VeraChem MOL file


 25 24  0  0  0  0  0  0  0  0999 V2000     
   20.1297   19.3391   27.8292 C   0  0  0  0  0  0  0  0  0  0  0  0
   21.0039   20.1835   27.8661 O   0  5  0  0  0  0  0  0  0  0  0  0
   19.6185   18.8690   28.8261 O   0  0  0  0  0  0  0  0  0  0  0  0
   19.6288   18.8242   26.4789 C   0  0  0  0  0  0  0  0  0  0  0  0
   18.5483   19.0054   26.4404 H   0  0  0  0  0  0  0  0  0  0  0  0
   19.7726   17.7374   26.4698 H   0  0  0  0  0  0  0  0  0  0  0  0
   20.3111   19.4541   25.2355 C   0  0  0  0  0  0  0  0  0  0  0  0
   20.1687   20.5436   25.2544 H   0  0  0  0  0  0  0  0  0  0  0  0
   21.3941   19.2743   25.2838 H   0  0  0  0  0  0  0  0  0  0  0  0
   19.7473   18.8792   23.9179 C   0  0  0  0  0  0  0  0  0  0  0  0
   18.6645   19.0601   23.8719 H   0  0  0  0  0  0  0  0  0  0  0  0
   19.8907   17.7900   23.9013 H   0  0  0  0  0  0  0  0  0  0  0  0
   20.4274   19.5072   22.6824 C   0  0  0  0  0  0  0  0  0  0  0  0
   20.2841   20.5964   22.6987 H   0  0  0  0  0  0  0  0  0  0  0  0
   21.5101   19.3265   22.7281 H   0  0  0  0  0  0  0  0  0  0  0  0
   19.8640   18.9328   21.3646 C   0  0  0  0  0  0  0  0  0  0  0  0
   18.7813   19.1135   21.3186 H   0  0  0  0  0  0  0  0  0  0  0  0
   20.0073   17.8436   21.3480 H   0  0  0  0  0  0  0  0  0  0  0  0
   20.5437   19.5605   20.1295 C   0  0  0  0  0  0  0  0  0  0  0  0
   20.4009   20.6500   20.1417 H   0  0  0  0  0  0  0  0  0  0  0  0
   21.6269   19.3801   20.1711 H   0  0  0  0  0  0  0  0  0  0  0  0
   19.9785   18.9844   18.8157 C   0  0  0  0  0  0  0  0  0  0  0  0
   18.9011   19.1785   18.7331 H   0  0  0  0  0  0  0  0  0  0  0  0
   20.4727   19.4414   17.9486 H   0  0  0  0  0  0  0  0  0  0  0  0
   20.1363   17.8992   18.7627 H   0  0  0  0  0  0  0  0  0  0  0  0
  1  2  1  0  0  0  0
  1  3  2  0  0  0  0
  1  4  1  0  0  0  0
  4  5  1  0  0  0  0
  4  6  1  0  0  0  0
  4  7  1  0  0  0  0
  7  8  1  0  0  0  0
  7  9  1  0  0  0  0
  7 10  1  0  0  0  0
 10 11  1  0  0  0  0
 10 12  1  0  0  0  0
 10 13  1  0  0  0  0
 13 14  1  0  0  0  0
 13 15  1  0  0  0  0
 13 16  1  0  0  0  0
 16 17  1  0  0  0  0
 16 18  1  0  0  0  0
 16 19  1  0  0  0  0
 19 20  1  0  0  0  0
 19 21  1  0  0  0  0
 19 22  1  0  0  0  0
 22 23  1  0  0  0  0
 22 24  1  0  0  0  0
 22 25  1  0  0  0  0
M  END
> <VConfSearch Rank>
1

> <Conf_Id>
0

> <Delta U+W>
0.000

> <U+W>
-51.629

> <U>
6.586

> <W>
-58.216

> <W(PB)>
-60.757

> <W(SA)>
2.541

> <Valence>
8.027

> <Coulomb>
-2.892

> <VdW>
1.451

> <VdW6>
-7.931

> <VdW12>
9.383

> <Bond>
0.149

> <Angle>
2.726

> <Pdih>
5.152

> <Idih>
0.000

> <Tether>
0.000

$$$$
VeraChem MOL file


 25 24  0  0  0  0  0  0  0  0999 V2000     
   20.1598   19.3415   27.8084 C   0  0  0  0  0  0  0  0  0  0  0  0
   21.2090   19.7260   28.2860 O   0  5  0  0  0  0  0  0  0  0  0  0
   19.0739   19.5505   28.3121 O   0  0  0  0  0  0  0  0  0  0  0  0
   20.2068   18.5742   26.4920 C   0  0  0  0  0  0  0  0  0  0  0  0
   19.3800   17.8538   26.4879 H   0  0  0  0  0  0  0  0  0  0  0  0
   21.1394   17.9978   26.4668 H   0  0  0  0  0  0  0  0  0  0  0  0
   20.1162   19.4991   25.2533 C   0  0  0  0  0  0  0  0  0  0  0  0
   19.1836   20.0785   25.3004 H   0  0  0  0  0  0  0  0  0  0  0  0
   20.9429   20.2226   25.2794 H   0  0  0  0  0  0  0  0  0  0  0  0
   20.1659   18.6991   23.9336 C   0  0  0  0  0  0  0  0  0  0  0  0
   19.3390   17.9761   23.9111 H   0  0  0  0  0  0  0  0  0  0  0  0
   21.0986   18.1200   23.8901 H   0  0  0  0  0  0  0  0  0  0  0  0
   20.0756   19.6238   22.7005 C   0  0  0  0  0  0  0  0  0  0  0  0
   19.1430   20.2029   22.7437 H   0  0  0  0  0  0  0  0  0  0  0  0
   20.9025   20.3469   22.7228 H   0  0  0  0  0  0  0  0  0  0  0  0
   20.1254   18.8245   21.3805 C   0  0  0  0  0  0  0  0  0  0  0  0
   19.2985   18.1014   21.3578 H   0  0  0  0  0  0  0  0  0  0  0  0
   21.0579   18.2452   21.3370 H   0  0  0  0  0  0  0  0  0  0  0  0
   20.0352   19.7486   20.1479 C   0  0  0  0  0  0  0  0  0  0  0  0
   19.1026   20.3284   20.1869 H   0  0  0  0  0  0  0  0  0  0  0  0
   20.8620   20.4722   20.1661 H   0  0  0  0  0  0  0  0  0  0  0  0
   20.0852   18.9467   18.8318 C   0  0  0  0  0  0  0  0  0  0  0  0
   20.0200   19.6190   17.9664 H   0  0  0  0  0  0  0  0  0  0  0  0
   21.0228   18.3812   18.7517 H   0  0  0  0  0  0  0  0  0  0  0  0
   19.2502   18.2363   18.7727 H   0  0  0  0  0  0  0  0  0  0  0  0
  1  2  1  0  0  0  0
  1  3  2  0  0  0  0
  1  4  1  0  0  0  0
  4  5  1  0  0  0  0
  4  6  1  0  0  0  0
  4  7  1  0  0  0  0
  7  8  1  0  0  0  0
  7  9  1  0  0  0  0
  7 10  1  0  0  0  0
 10 11  1  0  0  0  0
 10 12  1  0  0  0  0
 10 13  1  0  0  0  0
 13 14  1  0  0  0  0
 13 15  1  0  0  0  0
 13 16  1  0  0  0  0
 16 17  1  0  0  0  0
 16 18  1  0  0  0  0
 16 19  1  0  0  0  0
 19 20  1  0  0  0  0
 19 21  1  0  0  0  0
 19 22  1  0  0  0  0
 22 23  1  0  0  0  0
 22 24  1  0  0  0  0
 22 25  1  0  0  0  0
M  END
> <VConfSearch Rank>
2

> <Conf_Id>
27

> <Delta U+W>
-1.297

> <U+W>
-52.926

> <U>
5.617

> <W>
-58.543

> <W(PB)>
-61.065

> <W(SA)>
2.522

> <Valence>
7.531

> <Coulomb>
-2.818

> <VdW>
0.904

> <VdW6>
-7.640

> <VdW12>
8.544

> <Bond>
0.115

> <Angle>
2.271

> <Pdih>
5.144

> <Idih>
0.001

> <Tether>
0.000

$$$$
VeraChem MOL file


 25 24  0  0  0  0  0  0  0  0999 V2000     
   19.8675   19.5406   27.3270 C   0  0  0  0  0  0  0  0  0  0  0  0
   20.4823   20.4922   27.7669 O   0  5  0  0  0  0  0  0  0  0  0  0
   18.6545   19.4652   27.3268 O   0  0  0  0  0  0  0  0  0  0  0  0
   20.6650   18.3698   26.7596 C   0  0  0  0  0  0  0  0  0  0  0  0
   20.0167   17.4857   26.7310 H   0  0  0  0  0  0  0  0  0  0  0  0
   21.4721   18.1488   27.4680 H   0  0  0  0  0  0  0  0  0  0  0  0
   21.2668   18.6385   25.3558 C   0  0  0  0  0  0  0  0  0  0  0  0
   21.8910   19.5421   25.3943 H   0  0  0  0  0  0  0  0  0  0  0  0
   21.9317   17.8062   25.0878 H   0  0  0  0  0  0  0  0  0  0  0  0
   20.1835   18.7967   24.2652 C   0  0  0  0  0  0  0  0  0  0  0  0
   19.5245   19.6390   24.5174 H   0  0  0  0  0  0  0  0  0  0  0  0
   19.5540   17.8966   24.2399 H   0  0  0  0  0  0  0  0  0  0  0  0
   20.8052   19.0313   22.8716 C   0  0  0  0  0  0  0  0  0  0  0  0
   21.4345   19.9316   22.8979 H   0  0  0  0  0  0  0  0  0  0  0  0
   21.4623   18.1888   22.6160 H   0  0  0  0  0  0  0  0  0  0  0  0
   19.7234   19.1904   21.7816 C   0  0  0  0  0  0  0  0  0  0  0  0
   19.0661   20.0328   22.0371 H   0  0  0  0  0  0  0  0  0  0  0  0
   19.0937   18.2904   21.7553 H   0  0  0  0  0  0  0  0  0  0  0  0
   20.3442   19.4255   20.3885 C   0  0  0  0  0  0  0  0  0  0  0  0
   20.9733   20.3261   20.4105 H   0  0  0  0  0  0  0  0  0  0  0  0
   21.0009   18.5836   20.1287 H   0  0  0  0  0  0  0  0  0  0  0  0
   19.2606   19.5839   19.3030 C   0  0  0  0  0  0  0  0  0  0  0  0
   18.6079   20.4393   19.5214 H   0  0  0  0  0  0  0  0  0  0  0  0
   19.7195   19.7502   18.3196 H   0  0  0  0  0  0  0  0  0  0  0  0
   18.6357   18.6836   19.2374 H   0  0  0  0  0  0  0  0  0  0  0  0
  1  2  1  0  0  0  0
  1  3  2  0  0  0  0
  1  4  1  0  0  0  0
  4  5  1  0  0  0  0
  4  6  1  0  0  0  0
  4  7  1  0  0  0  0
  7  8  1  0  0  0  0
  7  9  1  0  0  0  0
  7 10  1  0  0  0  0
 10 11  1  0  0  0  0
 10 12  1  0  0  0  0
 10 13  1  0  0  0  0
 13 14  1  0  0  0  0
 13 15  1  0  0  0  0
 13 16  1  0  0  0  0
 16 17  1  0  0  0  0
 16 18  1  0  0  0  0
 16 19  1  0  0  0  0
 19 20  1  0  0  0  0
 19 21  1  0  0  0  0
 19 22  1  0  0  0  0
 22 23  1  0  0  0  0
 22 24  1  0  0  0  0
 22 25  1  0  0  0  0
M  END
> <VConfSearch Rank>
3

> <Conf_Id>
37

> <Delta U+W>
-0.230

> <U+W>
-51.860

> <U>
7.816

> <W>
-59.675

> <W(PB)>
-62.180

> <W(SA)>
2.505

> <Valence>
7.785

> <Coulomb>
-0.713

> <VdW>
0.744

> <VdW6>
-8.514

> <VdW12>
9.259

> <Bond>
0.136

> <Angle>
2.433

> <Pdih>
5.216

> <Idih>
0.000

> <Tether>
0.000

$$$$
VeraChem MOL file


 25 24  0  0  0  0  0  0  0  0999 V2000     
   20.3333   19.0579   27.3383 C   0  0  0  0  0  0  0  0  0  0  0  0
   21.2959   19.6493   27.7862 O   0  5  0  0  0  0  0  0  0  0  0  0
   20.2147   17.8487   27.3642 O   0  0  0  0  0  0  0  0  0  0  0  0
   19.2051   19.8823   26.7246 C   0  0  0  0  0  0  0  0  0  0  0  0
   18.9967   20.7133   27.4086 H   0  0  0  0  0  0  0  0  0  0  0  0
   18.2993   19.2648   26.6898 H   0  0  0  0  0  0  0  0  0  0  0  0
   19.5276   20.4404   25.3141 C   0  0  0  0  0  0  0  0  0  0  0  0
   18.7260   21.1275   25.0109 H   0  0  0  0  0  0  0  0  0  0  0  0
   20.4518   21.0331   25.3598 H   0  0  0  0  0  0  0  0  0  0  0  0
   19.6721   19.3264   24.2530 C   0  0  0  0  0  0  0  0  0  0  0  0
   18.7509   18.7286   24.2206 H   0  0  0  0  0  0  0  0  0  0  0  0
   20.4841   18.6443   24.5405 H   0  0  0  0  0  0  0  0  0  0  0  0
   19.9612   19.9059   22.8514 C   0  0  0  0  0  0  0  0  0  0  0  0
   19.1490   20.5861   22.5605 H   0  0  0  0  0  0  0  0  0  0  0  0
   20.8826   20.5033   22.8848 H   0  0  0  0  0  0  0  0  0  0  0  0
   20.1065   18.7933   21.7908 C   0  0  0  0  0  0  0  0  0  0  0  0
   19.1853   18.1955   21.7574 H   0  0  0  0  0  0  0  0  0  0  0  0
   20.9186   18.1129   22.0816 H   0  0  0  0  0  0  0  0  0  0  0  0
   20.3961   19.3720   20.3898 C   0  0  0  0  0  0  0  0  0  0  0  0
   19.5847   20.0518   20.0948 H   0  0  0  0  0  0  0  0  0  0  0  0
   21.3181   19.9690   20.4190 H   0  0  0  0  0  0  0  0  0  0  0  0
   20.5405   18.2578   19.3337 C   0  0  0  0  0  0  0  0  0  0  0  0
   19.6199   17.6639   19.2609 H   0  0  0  0  0  0  0  0  0  0  0  0
   20.7460   18.6868   18.3443 H   0  0  0  0  0  0  0  0  0  0  0  0
   21.3663   17.5805   19.5876 H   0  0  0  0  0  0  0  0  0  0  0  0
  1  2  1  0  0  0  0
  1  3  2  0  0  0  0
  1  4  1  0  0  0  0
  4  5  1  0  0  0  0
  4  6  1  0  0  0  0
  4  7  1  0  0  0  0
  7  8  1  0  0  0  0
  7  9  1  0  0  0  0
  7 10  1  0  0  0  0
 10 11  1  0  0  0  0
 10 12  1  0  0  0  0
 10 13  1  0  0  0  0
 13 14  1  0  0  0  0
 13 15  1  0  0  0  0
 13 16  1  0  0  0  0
 16 17  1  0  0  0  0
 16 18  1  0  0  0  0
 16 19  1  0  0  0  0
 19 20  1  0  0  0  0
 19 21  1  0  0  0  0
 19 22  1  0  0  0  0
 22 23  1  0  0  0  0
 22 24  1  0  0  0  0
 22 25  1  0  0  0  0
M  END
> <VConfSearch Rank>
4

> <Conf_Id>
54

> <Delta U+W>
-0.224

> <U+W>
-51.854

> <U>
7.816

> <W>
-59.670

> <W(PB)>
-62.157

> <W(SA)>
2.487

> <Valence>
7.785

> <Coulomb>
-0.713

> <VdW>
0.744

> <VdW6>
-8.515

> <VdW12>
9.259

> <Bond>
0.136

> <Angle>
2.433

> <Pdih>
5.215

> <Idih>
0.000

> <Tether>
0.000

$$$$
VeraChem MOL file


 25 24  0  0  0  0  0  0  0  0999 V2000     
   20.1669   19.4422   27.3583 C   0  0  0  0  0  0  0  0  0  0  0  0
   21.1992   20.0298   27.6159 O   0  5  0  0  0  0  0  0  0  0  0  0
   19.0809   19.7667   27.7969 O   0  0  0  0  0  0  0  0  0  0  0  0
   20.2387   18.2184   26.4493 C   0  0  0  0  0  0  0  0  0  0  0  0
   19.6430   17.4270   26.9192 H   0  0  0  0  0  0  0  0  0  0  0  0
   21.2755   17.8618   26.4226 H   0  0  0  0  0  0  0  0  0  0  0  0
   19.7215   18.4694   25.0088 C   0  0  0  0  0  0  0  0  0  0  0  0
   19.6665   17.5055   24.4876 H   0  0  0  0  0  0  0  0  0  0  0  0
   18.6973   18.8650   25.0539 H   0  0  0  0  0  0  0  0  0  0  0  0
   20.6256   19.4428   24.2144 C   0  0  0  0  0  0  0  0  0  0  0  0
   21.6380   19.0247   24.1307 H   0  0  0  0  0  0  0  0  0  0  0  0
   20.7249   20.3809   24.7775 H   0  0  0  0  0  0  0  0  0  0  0  0
   20.0851   19.7795   22.8040 C   0  0  0  0  0  0  0  0  0  0  0  0
   19.0656   20.1799   22.8869 H   0  0  0  0  0  0  0  0  0  0  0  0
   20.7029   20.5859   22.3890 H   0  0  0  0  0  0  0  0  0  0  0  0
   20.0964   18.5731   21.8328 C   0  0  0  0  0  0  0  0  0  0  0  0
   19.4732   17.7681   22.2420 H   0  0  0  0  0  0  0  0  0  0  0  0
   21.1152   18.1701   21.7542 H   0  0  0  0  0  0  0  0  0  0  0  0
   19.5658   18.9163   20.4209 C   0  0  0  0  0  0  0  0  0  0  0  0
   19.4774   17.9858   19.8433 H   0  0  0  0  0  0  0  0  0  0  0  0
   18.5513   19.3315   20.4964 H   0  0  0  0  0  0  0  0  0  0  0  0
   20.4729   19.8958   19.6447 C   0  0  0  0  0  0  0  0  0  0  0  0
   20.4958   20.8845   20.1194 H   0  0  0  0  0  0  0  0  0  0  0  0
   21.5016   19.5169   19.5869 H   0  0  0  0  0  0  0  0  0  0  0  0
   20.1042   20.0291   18.6194 H   0  0  0  0  0  0  0  0  0  0  0  0
  1  2  1  0  0  0  0
  1  3  2  0  0  0  0
  1  4  1  0  0  0  0
  4  5  1  0  0  0  0
  4  6  1  0  0  0  0
  4  7  1  0  0  0  0
  7  8  1  0  0  0  0
  7  9  1  0  0  0  0
  7 10  1  0  0  0  0
 10 11  1  0  0  0  0
 10 12  1  0  0  0  0
 10 13  1  0  0  0  0
 13 14  1  0  0  0  0
 13 15  1  0  0  0  0
 13 16  1  0  0  0  0
 16 17  1  0  0  0  0
 16 18  1  0  0  0  0
 16 19  1  0  0  0  0
 19 20  1  0  0  0  0
 19 21  1  0  0  0  0
 19 22  1  0  0  0  0
 22 23  1  0  0  0  0
 22 24  1  0  0  0  0
 22 25  1  0  0  0  0
M  END
> <VConfSearch Rank>
5

> <Conf_Id>
101

> <Delta U+W>
1.534

> <U+W>
-50.095

> <U>
9.416

> <W>
-59.512

> <W(PB)>
-61.988

> <W(SA)>
2.476

> <Valence>
8.939

> <Coulomb>
-0.615

> <VdW>
1.092

> <VdW6>
-9.710

> <VdW12>
10.802

> <Bond>
0.216

> <Angle>
2.979

> <Pdih>
5.743

> <Idih>
0.000

> <Tether>
0.000

$$$$
VeraChem MOL file


 25 24  0  0  0  0  0  0  0  0999 V2000     
   20.2813   19.4292   27.4496 C   0  0  0  0  0  0  0  0  0  0  0  0
   21.1516   20.2294   27.7304 O   0  5  0  0  0  0  0  0  0  0  0  0
   19.3920   19.1066   28.2124 O   0  0  0  0  0  0  0  0  0  0  0  0
   20.2925   18.8127   26.0553 C   0  0  0  0  0  0  0  0  0  0  0  0
   19.8774   17.8003   26.1280 H   0  0  0  0  0  0  0  0  0  0  0  0
   21.3383   18.7144   25.7438 H   0  0  0  0  0  0  0  0  0  0  0  0
   19.4890   19.6478   25.0245 C   0  0  0  0  0  0  0  0  0  0  0  0
   18.4752   19.8083   25.4168 H   0  0  0  0  0  0  0  0  0  0  0  0
   19.9431   20.6432   24.9236 H   0  0  0  0  0  0  0  0  0  0  0  0
   19.3798   18.9792   23.6332 C   0  0  0  0  0  0  0  0  0  0  0  0
   18.6815   19.5707   23.0274 H   0  0  0  0  0  0  0  0  0  0  0  0
   18.9346   17.9805   23.7378 H   0  0  0  0  0  0  0  0  0  0  0  0
   20.7360   18.8730   22.8932 C   0  0  0  0  0  0  0  0  0  0  0  0
   21.1805   19.8711   22.7880 H   0  0  0  0  0  0  0  0  0  0  0  0
   21.4387   18.2892   23.5007 H   0  0  0  0  0  0  0  0  0  0  0  0
   20.6315   18.1911   21.5052 C   0  0  0  0  0  0  0  0  0  0  0  0
   20.2669   17.1638   21.6405 H   0  0  0  0  0  0  0  0  0  0  0  0
   21.6414   18.1003   21.0827 H   0  0  0  0  0  0  0  0  0  0  0  0
   19.7249   18.9103   20.4755 C   0  0  0  0  0  0  0  0  0  0  0  0
   19.7307   18.3316   19.5416 H   0  0  0  0  0  0  0  0  0  0  0  0
   18.6833   18.9125   20.8225 H   0  0  0  0  0  0  0  0  0  0  0  0
   20.1745   20.3547   20.1667 C   0  0  0  0  0  0  0  0  0  0  0  0
   21.2223   20.3789   19.8404 H   0  0  0  0  0  0  0  0  0  0  0  0
   19.5601   20.7855   19.3655 H   0  0  0  0  0  0  0  0  0  0  0  0
   20.0723   21.0007   21.0478 H   0  0  0  0  0  0  0  0  0  0  0  0
  1  2  1  0  0  0  0
  1  3  2  0  0  0  0
  1  4  1  0  0  0  0
  4  5  1  0  0  0  0
  4  6  1  0  0  0  0
  4  7  1  0  0  0  0
  7  8  1  0  0  0  0
  7  9  1  0  0  0  0
  7 10  1  0  0  0  0
 10 11  1  0  0  0  0
 10 12  1  0  0  0  0
 10 13  1  0  0  0  0
 13 14  1  0  0  0  0
 13 15  1  0  0  0  0
 13 16  1  0  0  0  0
 16 17  1  0  0  0  0
 16 18  1  0  0  0  0
 16 19  1  0  0  0  0
 19 20  1  0  0  0  0
 19 21  1  0  0  0  0
 19 22  1  0  0  0  0
 22 23  1  0  0  0  0
 22 24  1  0  0  0  0
 22 25  1  0  0  0  0
M  END
> <VConfSearch Rank>
6

> <Conf_Id>
75

> <Delta U+W>
1.014

> <U+W>
-50.615

> <U>
8.474

> <W>
-59.089

> <W(PB)>
-61.530

> <W(SA)>
2.441

> <Valence>
9.080

> <Coulomb>
-1.772

> <VdW>
1.165

> <VdW6>
-9.830

> <VdW12>
10.996

> <Bond>
0.240

> <Angle>
3.225

> <Pdih>
5.615

> <Idih>
0.001

> <Tether>
0.000

$$$$
VeraChem MOL file


 25 24  0  0  0  0  0  0  0  0999 V2000     
   20.4434   19.2525   27.5025 C   0  0  0  0  0  0  0  0  0  0  0  0
   21.5007   19.7800   27.7861 O   0  5  0  0  0  0  0  0  0  0  0  0
   19.4786   19.2381   28.2411 O   0  0  0  0  0  0  0  0  0  0  0  0
   20.3132   18.5905   26.1355 C   0  0  0  0  0  0  0  0  0  0  0  0
   19.6291   17.7390   26.2330 H   0  0  0  0  0  0  0  0  0  0  0  0
   21.2946   18.1879   25.8571 H   0  0  0  0  0  0  0  0  0  0  0  0
   19.8046   19.5624   25.0424 C   0  0  0  0  0  0  0  0  0  0  0  0
   18.8276   19.9666   25.3420 H   0  0  0  0  0  0  0  0  0  0  0  0
   20.4932   20.4154   24.9666 H   0  0  0  0  0  0  0  0  0  0  0  0
   19.6829   18.8692   23.6681 C   0  0  0  0  0  0  0  0  0  0  0  0
   18.9941   18.0172   23.7488 H   0  0  0  0  0  0  0  0  0  0  0  0
   20.6584   18.4588   23.3815 H   0  0  0  0  0  0  0  0  0  0  0  0
   19.1688   19.8425   22.5812 C   0  0  0  0  0  0  0  0  0  0  0  0
   18.1789   20.2063   22.8887 H   0  0  0  0  0  0  0  0  0  0  0  0
   19.8161   20.7282   22.5237 H   0  0  0  0  0  0  0  0  0  0  0  0
   19.0386   19.1879   21.1823 C   0  0  0  0  0  0  0  0  0  0  0  0
   18.1559   19.6145   20.6867 H   0  0  0  0  0  0  0  0  0  0  0  0
   18.8343   18.1131   21.2818 H   0  0  0  0  0  0  0  0  0  0  0  0
   20.2522   19.4143   20.2470 C   0  0  0  0  0  0  0  0  0  0  0  0
   20.0201   18.9817   19.2640 H   0  0  0  0  0  0  0  0  0  0  0  0
   20.3944   20.4913   20.0826 H   0  0  0  0  0  0  0  0  0  0  0  0
   21.5698   18.7966   20.7597 C   0  0  0  0  0  0  0  0  0  0  0  0
   21.4406   17.7326   20.9964 H   0  0  0  0  0  0  0  0  0  0  0  0
   22.3555   18.8814   19.9979 H   0  0  0  0  0  0  0  0  0  0  0  0
   21.9253   19.3141   21.6594 H   0  0  0  0  0  0  0  0  0  0  0  0
  1  2  1  0  0  0  0
  1  3  2  0  0  0  0
  1  4  1  0  0  0  0
  4  5  1  0  0  0  0
  4  6  1  0  0  0  0
  4  7  1  0  0  0  0
  7  8  1  0  0  0  0
  7  9  1  0  0  0  0
  7 10  1  0  0  0  0
 10 11  1  0  0  0  0
 10 12  1  0  0  0  0
 10 13  1  0  0  0  0
 13 14  1  0  0  0  0
 13 15  1  0  0  0  0
 13 16  1  0  0  0  0
 16 17  1  0  0  0  0
 16 18  1  0  0  0  0
 16 19  1  0  0  0  0
 19 20  1  0  0  0  0
 19 21  1  0  0  0  0
 19 22  1  0  0  0  0
 22 23  1  0  0  0  0
 22 24  1  0  0  0  0
 22 25  1  0  0  0  0
M  END
> <VConfSearch Rank>
7

> <Conf_Id>
125

> <Delta U+W>
2.314

> <U+W>
-49.315

> <U>
9.740

> <W>
-59.054

> <W(PB)>
-61.488

> <W(SA)>
2.433

> <Valence>
10.506

> <Coulomb>
-1.761

> <VdW>
0.994

> <VdW6>
-9.209

> <VdW12>
10.203

> <Bond>
0.193

> <Angle>
2.979

> <Pdih>
7.334

> <Idih>
0.001

> <Tether>
0.000

$$$$
VeraChem MOL file


 25 24  0  0  0  0  0  0  0  0999 V2000     
   19.9921   19.8023   27.3326 C   0  0  0  0  0  0  0  0  0  0  0  0
   20.8332   20.6538   27.5429 O   0  5  0  0  0  0  0  0  0  0  0  0
   19.3965   19.2127   28.2125 O   0  0  0  0  0  0  0  0  0  0  0  0
   19.6844   19.4361   25.8851 C   0  0  0  0  0  0  0  0  0  0  0  0
   19.8026   20.3421   25.2803 H   0  0  0  0  0  0  0  0  0  0  0  0
   18.6303   19.1399   25.8260 H   0  0  0  0  0  0  0  0  0  0  0  0
   20.5912   18.2979   25.3489 C   0  0  0  0  0  0  0  0  0  0  0  0
   21.6402   18.6241   25.3694 H   0  0  0  0  0  0  0  0  0  0  0  0
   20.5201   17.4396   26.0312 H   0  0  0  0  0  0  0  0  0  0  0  0
   20.2171   17.8292   23.9225 C   0  0  0  0  0  0  0  0  0  0  0  0
   19.1707   17.4947   23.9076 H   0  0  0  0  0  0  0  0  0  0  0  0
   20.8279   16.9506   23.6736 H   0  0  0  0  0  0  0  0  0  0  0  0
   20.4322   18.9145   22.8422 C   0  0  0  0  0  0  0  0  0  0  0  0
   19.7755   19.7692   23.0443 H   0  0  0  0  0  0  0  0  0  0  0  0
   21.4659   19.2825   22.8924 H   0  0  0  0  0  0  0  0  0  0  0  0
   20.1465   18.3701   21.4233 C   0  0  0  0  0  0  0  0  0  0  0  0
   19.0995   18.0444   21.3560 H   0  0  0  0  0  0  0  0  0  0  0  0
   20.7619   17.4762   21.2524 H   0  0  0  0  0  0  0  0  0  0  0  0
   20.4438   19.3917   20.3009 C   0  0  0  0  0  0  0  0  0  0  0  0
   21.4920   19.7155   20.3620 H   0  0  0  0  0  0  0  0  0  0  0  0
   20.3300   18.8908   19.3296 H   0  0  0  0  0  0  0  0  0  0  0  0
   19.5160   20.6256   20.3351 C   0  0  0  0  0  0  0  0  0  0  0  0
   19.6797   21.2253   21.2392 H   0  0  0  0  0  0  0  0  0  0  0  0
   19.7060   21.2726   19.4690 H   0  0  0  0  0  0  0  0  0  0  0  0
   18.4607   20.3247   20.3071 H   0  0  0  0  0  0  0  0  0  0  0  0
  1  2  1  0  0  0  0
  1  3  2  0  0  0  0
  1  4  1  0  0  0  0
  4  5  1  0  0  0  0
  4  6  1  0  0  0  0
  4  7  1  0  0  0  0
  7  8  1  0  0  0  0
  7  9  1  0  0  0  0
  7 10  1  0  0  0  0
 10 11  1  0  0  0  0
 10 12  1  0  0  0  0
 10 13  1  0  0  0  0
 13 14  1  0  0  0  0
 13 15  1  0  0  0  0
 13 16  1  0  0  0  0
 16 17  1  0  0  0  0
 16 18  1  0  0  0  0
 16 19  1  0  0  0  0
 19 20  1  0  0  0  0
 19 21  1  0  0  0  0
 19 22  1  0  0  0  0
 22 23  1  0  0  0  0
 22 24  1  0  0  0  0
 22 25  1  0  0  0  0
M  END
> <VConfSearch Rank>
8

> <Conf_Id>
4

> <Delta U+W>
0.189

> <U+W>
-51.441

> <U>
7.701

> <W>
-59.141

> <W(PB)>
-61.609

> <W(SA)>
2.467

> <Valence>
8.550

> <Coulomb>
-1.988

> <VdW>
1.139

> <VdW6>
-8.988

> <VdW12>
10.127

> <Bond>
0.191

> <Angle>
2.738

> <Pdih>
5.621

> <Idih>
0.001

> <Tether>
0.000

$$$$
VeraChem MOL file


 25 24  0  0  0  0  0  0  0  0999 V2000     
   20.5990   19.1733   27.3471 C   0  0  0  0  0  0  0  0  0  0  0  0
   21.4749   19.9887   27.5585 O   0  5  0  0  0  0  0  0  0  0  0  0
   19.9686   18.6195   28.2261 O   0  0  0  0  0  0  0  0  0  0  0  0
   20.2557   18.8443   25.8987 C   0  0  0  0  0  0  0  0  0  0  0  0
   19.9234   17.8002   25.8567 H   0  0  0  0  0  0  0  0  0  0  0  0
   21.1792   18.9160   25.3133 H   0  0  0  0  0  0  0  0  0  0  0  0
   19.1634   19.7776   25.3146 C   0  0  0  0  0  0  0  0  0  0  0  0
   18.2875   19.7532   25.9777 H   0  0  0  0  0  0  0  0  0  0  0  0
   19.5265   20.8147   25.3188 H   0  0  0  0  0  0  0  0  0  0  0  0
   18.7148   19.3864   23.8864 C   0  0  0  0  0  0  0  0  0  0  0  0
   17.8648   20.0218   23.6025 H   0  0  0  0  0  0  0  0  0  0  0  0
   18.3432   18.3525   23.8876 H   0  0  0  0  0  0  0  0  0  0  0  0
   19.8319   19.5368   22.8278 C   0  0  0  0  0  0  0  0  0  0  0  0
   20.2358   20.5577   22.8630 H   0  0  0  0  0  0  0  0  0  0  0  0
   20.6574   18.8551   23.0655 H   0  0  0  0  0  0  0  0  0  0  0  0
   19.3105   19.2370   21.4032 C   0  0  0  0  0  0  0  0  0  0  0  0
   18.4438   19.8797   21.1967 H   0  0  0  0  0  0  0  0  0  0  0  0
   18.9486   18.2010   21.3522 H   0  0  0  0  0  0  0  0  0  0  0  0
   20.3680   19.4705   20.2992 C   0  0  0  0  0  0  0  0  0  0  0  0
   19.8860   19.3517   19.3190 H   0  0  0  0  0  0  0  0  0  0  0  0
   20.7284   20.5075   20.3439 H   0  0  0  0  0  0  0  0  0  0  0  0
   21.5661   18.5000   20.3843 C   0  0  0  0  0  0  0  0  0  0  0  0
   21.2276   17.4558   20.3733 H   0  0  0  0  0  0  0  0  0  0  0  0
   22.2396   18.6459   19.5298 H   0  0  0  0  0  0  0  0  0  0  0  0
   22.1502   18.6634   21.2985 H   0  0  0  0  0  0  0  0  0  0  0  0
  1  2  1  0  0  0  0
  1  3  2  0  0  0  0
  1  4  1  0  0  0  0
  4  5  1  0  0  0  0
  4  6  1  0  0  0  0
  4  7  1  0  0  0  0
  7  8  1  0  0  0  0
  7  9  1  0  0  0  0
  7 10  1  0  0  0  0
 10 11  1  0  0  0  0
 10 12  1  0  0  0  0
 10 13  1  0  0  0  0
 13 14  1  0  0  0  0
 13 15  1  0  0  0  0
 13 16  1  0  0  0  0
 16 17  1  0  0  0  0
 16 18  1  0  0  0  0
 16 19  1  0  0  0  0
 19 20  1  0  0  0  0
 19 21  1  0  0  0  0
 19 22  1  0  0  0  0
 22 23  1  0  0  0  0
 22 24  1  0  0  0  0
 22 25  1  0  0  0  0
M  END
> <VConfSearch Rank>
9

> <Conf_Id>
17

> <Delta U+W>
0.219

> <U+W>
-51.411

> <U>
7.701

> <W>
-59.111

> <W(PB)>
-61.599

> <W(SA)>
2.488

> <Valence>
8.550

> <Coulomb>
-1.988

> <VdW>
1.139

> <VdW6>
-8.988

> <VdW12>
10.127

> <Bond>
0.191

> <Angle>
2.738

> <Pdih>
5.621

> <Idih>
0.001

> <Tether>
0.000

$$$$
VeraChem MOL file


 25 24  0  0  0  0  0  0  0  0999 V2000     
   20.3045   18.9781   27.1572 C   0  0  0  0  0  0  0  0  0  0  0  0
   21.2342   19.6454   27.5664 O   0  5  0  0  0  0  0  0  0  0  0  0
   20.2648   17.7654   27.2268 O   0  0  0  0  0  0  0  0  0  0  0  0
   19.1117   19.7020   26.5390 C   0  0  0  0  0  0  0  0  0  0  0  0
   19.1288   20.7483   26.8672 H   0  0  0  0  0  0  0  0  0  0  0  0
   18.2028   19.2533   26.9567 H   0  0  0  0  0  0  0  0  0  0  0  0
   19.0629   19.6258   24.9909 C   0  0  0  0  0  0  0  0  0  0  0  0
   19.0661   18.5708   24.6867 H   0  0  0  0  0  0  0  0  0  0  0  0
   18.1137   20.0545   24.6422 H   0  0  0  0  0  0  0  0  0  0  0  0
   20.2391   20.3785   24.3239 C   0  0  0  0  0  0  0  0  0  0  0  0
   21.1916   19.9119   24.6110 H   0  0  0  0  0  0  0  0  0  0  0  0
   20.2699   21.4065   24.7101 H   0  0  0  0  0  0  0  0  0  0  0  0
   20.1380   20.4360   22.7811 C   0  0  0  0  0  0  0  0  0  0  0  0
   19.1903   20.9103   22.4917 H   0  0  0  0  0  0  0  0  0  0  0  0
   20.9389   21.0869   22.4044 H   0  0  0  0  0  0  0  0  0  0  0  0
   20.2564   19.0509   22.1041 C   0  0  0  0  0  0  0  0  0  0  0  0
   19.4194   18.4107   22.4116 H   0  0  0  0  0  0  0  0  0  0  0  0
   21.1785   18.5564   22.4387 H   0  0  0  0  0  0  0  0  0  0  0  0
   20.2635   19.1670   20.5652 C   0  0  0  0  0  0  0  0  0  0  0  0
   19.3430   19.6630   20.2273 H   0  0  0  0  0  0  0  0  0  0  0  0
   21.1031   19.7994   20.2448 H   0  0  0  0  0  0  0  0  0  0  0  0
   20.3778   17.7847   19.8915 C   0  0  0  0  0  0  0  0  0  0  0  0
   19.5326   17.1413   20.1691 H   0  0  0  0  0  0  0  0  0  0  0  0
   20.3818   17.8861   18.7984 H   0  0  0  0  0  0  0  0  0  0  0  0
   21.3058   17.2787   20.1884 H   0  0  0  0  0  0  0  0  0  0  0  0
  1  2  1  0  0  0  0
  1  3  2  0  0  0  0
  1  4  1  0  0  0  0
  4  5  1  0  0  0  0
  4  6  1  0  0  0  0
  4  7  1  0  0  0  0
  7  8  1  0  0  0  0
  7  9  1  0  0  0  0
  7 10  1  0  0  0  0
 10 11  1  0  0  0  0
 10 12  1  0  0  0  0
 10 13  1  0  0  0  0
 13 14  1  0  0  0  0
 13 15  1  0  0  0  0
 13 16  1  0  0  0  0
 16 17  1  0  0  0  0
 16 18  1  0  0  0  0
 16 19  1  0  0  0  0
 19 20  1  0  0  0  0
 19 21  1  0  0  0  0
 19 22  1  0  0  0  0
 22 23  1  0  0  0  0
 22 24  1  0  0  0  0
 22 25  1  0  0  0  0
M  END
> <VConfSearch Rank>
10

> <Conf_Id>
142

> <Delta U+W>
0.593

> <U+W>
-51.037

> <U>
8.903

> <W>
-59.940

> <W(PB)>
-62.418

> <W(SA)>
2.478

> <Valence>
8.305

> <Coulomb>
-0.223

> <VdW>
0.821

> <VdW6>
-9.236

> <VdW12>
10.057

> <Bond>
0.173

> <Angle>
2.663

> <Pdih>
5.469

> <Idih>
0.001

> <Tether>
0.000

$$$$
VeraChem MOL file


 25 24  0  0  0  0  0  0  0  0999 V2000     
   19.7964   19.1147   26.9071 C   0  0  0  0  0  0  0  0  0  0  0  0
   20.4331   19.3269   27.9206 O   0  5  0  0  0  0  0  0  0  0  0  0
   18.6499   19.4837   26.7441 O   0  0  0  0  0  0  0  0  0  0  0  0
   20.4662   18.3173   25.7916 C   0  0  0  0  0  0  0  0  0  0  0  0
   19.6952   17.9781   25.0903 H   0  0  0  0  0  0  0  0  0  0  0  0
   20.8917   17.4150   26.2456 H   0  0  0  0  0  0  0  0  0  0  0  0
   21.5841   19.0921   25.0418 C   0  0  0  0  0  0  0  0  0  0  0  0
   22.3718   19.3566   25.7608 H   0  0  0  0  0  0  0  0  0  0  0  0
   22.0575   18.4254   24.3095 H   0  0  0  0  0  0  0  0  0  0  0  0
   21.1036   20.3862   24.3354 C   0  0  0  0  0  0  0  0  0  0  0  0
   21.9641   20.8598   23.8437 H   0  0  0  0  0  0  0  0  0  0  0  0
   20.7593   21.1014   25.0950 H   0  0  0  0  0  0  0  0  0  0  0  0
   19.9748   20.1908   23.2923 C   0  0  0  0  0  0  0  0  0  0  0  0
   19.0673   19.8220   23.7888 H   0  0  0  0  0  0  0  0  0  0  0  0
   19.7145   21.1740   22.8775 H   0  0  0  0  0  0  0  0  0  0  0  0
   20.3611   19.2428   22.1335 C   0  0  0  0  0  0  0  0  0  0  0  0
   20.5541   18.2352   22.5242 H   0  0  0  0  0  0  0  0  0  0  0  0
   21.2933   19.5918   21.6689 H   0  0  0  0  0  0  0  0  0  0  0  0
   19.2498   19.1650   21.0657 C   0  0  0  0  0  0  0  0  0  0  0  0
   18.3156   18.8185   21.5290 H   0  0  0  0  0  0  0  0  0  0  0  0
   19.0531   20.1676   20.6613 H   0  0  0  0  0  0  0  0  0  0  0  0
   19.6340   18.2145   19.9138 C   0  0  0  0  0  0  0  0  0  0  0  0
   19.8052   17.1959   20.2858 H   0  0  0  0  0  0  0  0  0  0  0  0
   18.8331   18.1715   19.1643 H   0  0  0  0  0  0  0  0  0  0  0  0
   20.5495   18.5550   19.4126 H   0  0  0  0  0  0  0  0  0  0  0  0
  1  2  1  0  0  0  0
  1  3  2  0  0  0  0
  1  4  1  0  0  0  0
  4  5  1  0  0  0  0
  4  6  1  0  0  0  0
  4  7  1  0  0  0  0
  7  8  1  0  0  0  0
  7  9  1  0  0  0  0
  7 10  1  0  0  0  0
 10 11  1  0  0  0  0
 10 12  1  0  0  0  0
 10 13  1  0  0  0  0
 13 14  1  0  0  0  0
 13 15  1  0  0  0  0
 13 16  1  0  0  0  0
 16 17  1  0  0  0  0
 16 18  1  0  0  0  0
 16 19  1  0  0  0  0
 19 20  1  0  0  0  0
 19 21  1  0  0  0  0
 19 22  1  0  0  0  0
 22 23  1  0  0  0  0
 22 24  1  0  0  0  0
 22 25  1  0  0  0  0
M  END
> <VConfSearch Rank>
11

> <Conf_Id>
135

> <Delta U+W>
1.314

> <U+W>
-50.316

> <U>
9.773

> <W>
-60.088

> <W(PB)>
-62.535

> <W(SA)>
2.447

> <Valence>
8.741

> <Coulomb>
0.479

> <VdW>
0.552

> <VdW6>
-10.627

> <VdW12>
11.179

> <Bond>
0.227

> <Angle>
3.155

> <Pdih>
5.358

> <Idih>
0.001

> <Tether>
0.000

$$$$
VeraChem MOL file


 25 24  0  0  0  0  0  0  0  0999 V2000     
   20.1385   19.2585   27.4713 C   0  0  0  0  0  0  0  0  0  0  0  0
   20.9783   20.0028   27.9375 O   0  5  0  0  0  0  0  0  0  0  0  0
   19.1730   18.8601   28.0923 O   0  0  0  0  0  0  0  0  0  0  0  0
   20.2925   18.8181   26.0199 C   0  0  0  0  0  0  0  0  0  0  0  0
   19.8668   17.8123   25.9230 H   0  0  0  0  0  0  0  0  0  0  0  0
   21.3647   18.7395   25.8087 H   0  0  0  0  0  0  0  0  0  0  0  0
   19.6055   19.7882   25.0235 C   0  0  0  0  0  0  0  0  0  0  0  0
   18.5571   19.9163   25.3265 H   0  0  0  0  0  0  0  0  0  0  0  0
   20.0717   20.7806   25.0944 H   0  0  0  0  0  0  0  0  0  0  0  0
   19.6381   19.2976   23.5561 C   0  0  0  0  0  0  0  0  0  0  0  0
   18.9993   19.9650   22.9641 H   0  0  0  0  0  0  0  0  0  0  0  0
   19.1943   18.2949   23.4915 H   0  0  0  0  0  0  0  0  0  0  0  0
   21.0582   19.2845   22.9416 C   0  0  0  0  0  0  0  0  0  0  0  0
   21.4710   20.3023   22.9565 H   0  0  0  0  0  0  0  0  0  0  0  0
   21.7224   18.6733   23.5651 H   0  0  0  0  0  0  0  0  0  0  0  0
   21.1201   18.7255   21.4976 C   0  0  0  0  0  0  0  0  0  0  0  0
   20.7972   17.6755   21.4867 H   0  0  0  0  0  0  0  0  0  0  0  0
   22.1754   18.7156   21.1926 H   0  0  0  0  0  0  0  0  0  0  0  0
   20.3239   19.5428   20.4496 C   0  0  0  0  0  0  0  0  0  0  0  0
   20.2387   20.5910   20.7678 H   0  0  0  0  0  0  0  0  0  0  0  0
   20.8908   19.5550   19.5085 H   0  0  0  0  0  0  0  0  0  0  0  0
   18.9249   18.9559   20.1567 C   0  0  0  0  0  0  0  0  0  0  0  0
   18.2997   18.9226   21.0562 H   0  0  0  0  0  0  0  0  0  0  0  0
   18.4024   19.5643   19.4072 H   0  0  0  0  0  0  0  0  0  0  0  0
   19.0053   17.9344   19.7629 H   0  0  0  0  0  0  0  0  0  0  0  0
  1  2  1  0  0  0  0
  1  3  2  0  0  0  0
  1  4  1  0  0  0  0
  4  5  1  0  0  0  0
  4  6  1  0  0  0  0
  4  7  1  0  0  0  0
  7  8  1  0  0  0  0
  7  9  1  0  0  0  0
  7 10  1  0  0  0  0
 10 11  1  0  0  0  0
 10 12  1  0  0  0  0
 10 13  1  0  0  0  0
 13 14  1  0  0  0  0
 13 15  1  0  0  0  0
 13 16  1  0  0  0  0
 16 17  1  0  0  0  0
 16 18  1  0  0  0  0
 16 19  1  0  0  0  0
 19 20  1  0  0  0  0
 19 21  1  0  0  0  0
 19 22  1  0  0  0  0
 22 23  1  0  0  0  0
 22 24  1  0  0  0  0
 22 25  1  0  0  0  0
M  END
> <VConfSearch Rank>
12

> <Conf_Id>
19

> <Delta U+W>
3.222

> <U+W>
-48.407

> <U>
10.617

> <W>
-59.025

> <W(PB)>
-61.462

> <W(SA)>
2.437

> <Valence>
11.188

> <Coulomb>
-1.778

> <VdW>
1.208

> <VdW6>
-9.786

> <VdW12>
10.993

> <Bond>
0.241

> <Angle>
3.294

> <Pdih>
7.653

> <Idih>
0.001

> <Tether>
0.000

$$$$
VeraChem MOL file


 25 24  0  0  0  0  0  0  0  0999 V2000     
   20.0577   19.3422   27.4693 C   0  0  0  0  0  0  0  0  0  0  0  0
   20.8208   20.1660   27.9338 O   0  5  0  0  0  0  0  0  0  0  0  0
   19.6109   18.4062   28.1027 O   0  0  0  0  0  0  0  0  0  0  0  0
   19.6569   19.4768   26.0046 C   0  0  0  0  0  0  0  0  0  0  0  0
   19.6216   20.5457   25.7669 H   0  0  0  0  0  0  0  0  0  0  0  0
   18.6390   19.0846   25.8935 H   0  0  0  0  0  0  0  0  0  0  0  0
   20.6246   18.7323   25.0479 C   0  0  0  0  0  0  0  0  0  0  0  0
   21.6311   19.1649   25.1319 H   0  0  0  0  0  0  0  0  0  0  0  0
   20.7081   17.6876   25.3781 H   0  0  0  0  0  0  0  0  0  0  0  0
   20.1696   18.7470   23.5688 C   0  0  0  0  0  0  0  0  0  0  0  0
   19.1534   18.3374   23.4905 H   0  0  0  0  0  0  0  0  0  0  0  0
   20.8272   18.0710   23.0080 H   0  0  0  0  0  0  0  0  0  0  0  0
   20.2215   20.1515   22.9215 C   0  0  0  0  0  0  0  0  0  0  0  0
   19.6202   20.8516   23.5146 H   0  0  0  0  0  0  0  0  0  0  0  0
   21.2528   20.5284   22.9513 H   0  0  0  0  0  0  0  0  0  0  0  0
   19.6988   20.1983   21.4634 C   0  0  0  0  0  0  0  0  0  0  0  0
   19.7337   21.2457   21.1339 H   0  0  0  0  0  0  0  0  0  0  0  0
   18.6384   19.9125   21.4348 H   0  0  0  0  0  0  0  0  0  0  0  0
   20.5110   19.3488   20.4541 C   0  0  0  0  0  0  0  0  0  0  0  0
   20.5654   19.8922   19.5007 H   0  0  0  0  0  0  0  0  0  0  0  0
   21.5478   19.2343   20.7993 H   0  0  0  0  0  0  0  0  0  0  0  0
   19.8812   17.9648   20.1797 C   0  0  0  0  0  0  0  0  0  0  0  0
   18.8727   18.0718   19.7597 H   0  0  0  0  0  0  0  0  0  0  0  0
   20.4877   17.4033   19.4574 H   0  0  0  0  0  0  0  0  0  0  0  0
   19.8045   17.3630   21.0925 H   0  0  0  0  0  0  0  0  0  0  0  0
  1  2  1  0  0  0  0
  1  3  2  0  0  0  0
  1  4  1  0  0  0  0
  4  5  1  0  0  0  0
  4  6  1  0  0  0  0
  4  7  1  0  0  0  0
  7  8  1  0  0  0  0
  7  9  1  0  0  0  0
  7 10  1  0  0  0  0
 10 11  1  0  0  0  0
 10 12  1  0  0  0  0
 10 13  1  0  0  0  0
 13 14  1  0  0  0  0
 13 15  1  0  0  0  0
 13 16  1  0  0  0  0
 16 17  1  0  0  0  0
 16 18  1  0  0  0  0
 16 19  1  0  0  0  0
 19 20  1  0  0  0  0
 19 21  1  0  0  0  0
 19 22  1  0  0  0  0
 22 23  1  0  0  0  0
 22 24  1  0  0  0  0
 22 25  1  0  0  0  0
M  END
> <VConfSearch Rank>
13

> <Conf_Id>
20

> <Delta U+W>
3.224

> <U+W>
-48.406

> <U>
10.617

> <W>
-59.023

> <W(PB)>
-61.467

> <W(SA)>
2.444

> <Valence>
11.188

> <Coulomb>
-1.778

> <VdW>
1.208

> <VdW6>
-9.786

> <VdW12>
10.993

> <Bond>
0.241

> <Angle>
3.294

> <Pdih>
7.653

> <Idih>
0.001

> <Tether>
0.000

$$$$
VeraChem MOL file


 25 24  0  0  0  0  0  0  0  0999 V2000     
   20.6810   19.1121   26.6654 C   0  0  0  0  0  0  0  0  0  0  0  0
   21.2811   20.1398   26.9131 O   0  5  0  0  0  0  0  0  0  0  0  0
   21.2284   18.0406   26.4935 O   0  0  0  0  0  0  0  0  0  0  0  0
   19.1544   19.1537   26.6331 C   0  0  0  0  0  0  0  0  0  0  0  0
   18.8324   19.4302   27.6438 H   0  0  0  0  0  0  0  0  0  0  0  0
   18.7740   18.1419   26.4484 H   0  0  0  0  0  0  0  0  0  0  0  0
   18.5394   20.1547   25.6148 C   0  0  0  0  0  0  0  0  0  0  0  0
   17.5078   20.3656   25.9275 H   0  0  0  0  0  0  0  0  0  0  0  0
   19.0722   21.1145   25.6647 H   0  0  0  0  0  0  0  0  0  0  0  0
   18.4945   19.6479   24.1519 C   0  0  0  0  0  0  0  0  0  0  0  0
   17.9093   20.3646   23.5596 H   0  0  0  0  0  0  0  0  0  0  0  0
   17.9507   18.6944   24.1075 H   0  0  0  0  0  0  0  0  0  0  0  0
   19.8856   19.4831   23.4990 C   0  0  0  0  0  0  0  0  0  0  0  0
   20.4688   20.4041   23.6358 H   0  0  0  0  0  0  0  0  0  0  0  0
   20.4377   18.6759   23.9967 H   0  0  0  0  0  0  0  0  0  0  0  0
   19.7751   19.1593   21.9931 C   0  0  0  0  0  0  0  0  0  0  0  0
   19.2309   19.9655   21.4823 H   0  0  0  0  0  0  0  0  0  0  0  0
   19.1876   18.2408   21.8581 H   0  0  0  0  0  0  0  0  0  0  0  0
   21.1634   18.9833   21.3427 C   0  0  0  0  0  0  0  0  0  0  0  0
   21.7534   19.9008   21.4754 H   0  0  0  0  0  0  0  0  0  0  0  0
   21.7102   18.1764   21.8501 H   0  0  0  0  0  0  0  0  0  0  0  0
   21.0500   18.6596   19.8394 C   0  0  0  0  0  0  0  0  0  0  0  0
   20.5343   19.4660   19.3017 H   0  0  0  0  0  0  0  0  0  0  0  0
   22.0457   18.5378   19.3936 H   0  0  0  0  0  0  0  0  0  0  0  0
   20.4908   17.7284   19.6793 H   0  0  0  0  0  0  0  0  0  0  0  0
  1  2  1  0  0  0  0
  1  3  2  0  0  0  0
  1  4  1  0  0  0  0
  4  5  1  0  0  0  0
  4  6  1  0  0  0  0
  4  7  1  0  0  0  0
  7  8  1  0  0  0  0
  7  9  1  0  0  0  0
  7 10  1  0  0  0  0
 10 11  1  0  0  0  0
 10 12  1  0  0  0  0
 10 13  1  0  0  0  0
 13 14  1  0  0  0  0
 13 15  1  0  0  0  0
 13 16  1  0  0  0  0
 16 17  1  0  0  0  0
 16 18  1  0  0  0  0
 16 19  1  0  0  0  0
 19 20  1  0  0  0  0
 19 21  1  0  0  0  0
 19 22  1  0  0  0  0
 22 23  1  0  0  0  0
 22 24  1  0  0  0  0
 22 25  1  0  0  0  0
M  END
> <VConfSearch Rank>
14

> <Conf_Id>
24

> <Delta U+W>
1.784

> <U+W>
-49.846

> <U>
10.904

> <W>
-60.749

> <W(PB)>
-63.220

> <W(SA)>
2.471

> <Valence>
9.445

> <Coulomb>
0.780

> <VdW>
0.679

> <VdW6>
-10.008

> <VdW12>
10.687

> <Bond>
0.201

> <Angle>
3.198

> <Pdih>
6.039

> <Idih>
0.006

> <Tether>
0.000

$$$$
VeraChem MOL file


 25 24  0  0  0  0  0  0  0  0999 V2000     
   19.9496   19.8699   26.6478 C   0  0  0  0  0  0  0  0  0  0  0  0
   20.9920   20.4392   26.9067 O   0  5  0  0  0  0  0  0  0  0  0  0
   18.9027   20.4505   26.4376 O   0  0  0  0  0  0  0  0  0  0  0  0
   19.9373   18.3425   26.6517 C   0  0  0  0  0  0  0  0  0  0  0  0
   18.9171   17.9936   26.4513 H   0  0  0  0  0  0  0  0  0  0  0  0
   20.1783   18.0352   27.6759 H   0  0  0  0  0  0  0  0  0  0  0  0
   20.9392   17.6685   25.6724 C   0  0  0  0  0  0  0  0  0  0  0  0
   21.9159   18.1683   25.7331 H   0  0  0  0  0  0  0  0  0  0  0  0
   21.1058   16.6379   26.0138 H   0  0  0  0  0  0  0  0  0  0  0  0
   20.4652   17.6063   24.1991 C   0  0  0  0  0  0  0  0  0  0  0  0
   19.4944   17.0950   24.1443 H   0  0  0  0  0  0  0  0  0  0  0  0
   21.1744   16.9826   23.6378 H   0  0  0  0  0  0  0  0  0  0  0  0
   20.3649   18.9863   23.5105 C   0  0  0  0  0  0  0  0  0  0  0  0
   19.5663   19.5777   23.9757 H   0  0  0  0  0  0  0  0  0  0  0  0
   21.3024   19.5402   23.6561 H   0  0  0  0  0  0  0  0  0  0  0  0
   20.0726   18.8512   22.0002 C   0  0  0  0  0  0  0  0  0  0  0  0
   19.1374   18.2928   21.8565 H   0  0  0  0  0  0  0  0  0  0  0  0
   20.8708   18.2673   21.5217 H   0  0  0  0  0  0  0  0  0  0  0  0
   19.9609   20.2288   21.3139 C   0  0  0  0  0  0  0  0  0  0  0  0
   19.1620   20.8152   21.7888 H   0  0  0  0  0  0  0  0  0  0  0  0
   20.8952   20.7897   21.4552 H   0  0  0  0  0  0  0  0  0  0  0  0
   19.6687   20.0908   19.8062 C   0  0  0  0  0  0  0  0  0  0  0  0
   18.7224   19.5605   19.6365 H   0  0  0  0  0  0  0  0  0  0  0  0
   19.5924   21.0793   19.3348 H   0  0  0  0  0  0  0  0  0  0  0  0
   20.4689   19.5348   19.3003 H   0  0  0  0  0  0  0  0  0  0  0  0
  1  2  1  0  0  0  0
  1  3  2  0  0  0  0
  1  4  1  0  0  0  0
  4  5  1  0  0  0  0
  4  6  1  0  0  0  0
  4  7  1  0  0  0  0
  7  8  1  0  0  0  0
  7  9  1  0  0  0  0
  7 10  1  0  0  0  0
 10 11  1  0  0  0  0
 10 12  1  0  0  0  0
 10 13  1  0  0  0  0
 13 14  1  0  0  0  0
 13 15  1  0  0  0  0
 13 16  1  0  0  0  0
 16 17  1  0  0  0  0
 16 18  1  0  0  0  0
 16 19  1  0  0  0  0
 19 20  1  0  0  0  0
 19 21  1  0  0  0  0
 19 22  1  0  0  0  0
 22 23  1  0  0  0  0
 22 24  1  0  0  0  0
 22 25  1  0  0  0  0
M  END
> <VConfSearch Rank>
15

> <Conf_Id>
9

> <Delta U+W>
1.764

> <U+W>
-49.865

> <U>
10.902

> <W>
-60.768

> <W(PB)>
-63.223

> <W(SA)>
2.456

> <Valence>
9.445

> <Coulomb>
0.778

> <VdW>
0.679

> <VdW6>
-10.007

> <VdW12>
10.687

> <Bond>
0.201

> <Angle>
3.198

> <Pdih>
6.040

> <Idih>
0.006

> <Tether>
0.000

$$$$
VeraChem MOL file


 25 24  0  0  0  0  0  0  0  0999 V2000     
   20.6242   19.5109   27.0273 C   0  0  0  0  0  0  0  0  0  0  0  0
   21.4467   20.3844   26.8345 O   0  5  0  0  0  0  0  0  0  0  0  0
   20.1233   19.2851   28.1112 O   0  0  0  0  0  0  0  0  0  0  0  0
   20.1807   18.6646   25.8395 C   0  0  0  0  0  0  0  0  0  0  0  0
   19.9530   17.6575   26.2086 H   0  0  0  0  0  0  0  0  0  0  0  0
   21.0327   18.5699   25.1595 H   0  0  0  0  0  0  0  0  0  0  0  0
   18.9451   19.2556   25.1104 C   0  0  0  0  0  0  0  0  0  0  0  0
   18.1234   19.3203   25.8370 H   0  0  0  0  0  0  0  0  0  0  0  0
   19.1517   20.2864   24.7906 H   0  0  0  0  0  0  0  0  0  0  0  0
   18.4735   18.4041   23.9042 C   0  0  0  0  0  0  0  0  0  0  0  0
   17.3776   18.4619   23.8535 H   0  0  0  0  0  0  0  0  0  0  0  0
   18.7088   17.3440   24.0704 H   0  0  0  0  0  0  0  0  0  0  0  0
   19.0269   18.8644   22.5321 C   0  0  0  0  0  0  0  0  0  0  0  0
   18.5641   18.2483   21.7494 H   0  0  0  0  0  0  0  0  0  0  0  0
   18.7043   19.8969   22.3441 H   0  0  0  0  0  0  0  0  0  0  0  0
   20.5655   18.7673   22.4028 C   0  0  0  0  0  0  0  0  0  0  0  0
   20.8928   17.7750   22.7414 H   0  0  0  0  0  0  0  0  0  0  0  0
   21.0408   19.5029   23.0647 H   0  0  0  0  0  0  0  0  0  0  0  0
   21.0730   18.9878   20.9587 C   0  0  0  0  0  0  0  0  0  0  0  0
   22.1563   18.8058   20.9338 H   0  0  0  0  0  0  0  0  0  0  0  0
   20.6183   18.2458   20.2880 H   0  0  0  0  0  0  0  0  0  0  0  0
   20.7941   20.4097   20.4253 C   0  0  0  0  0  0  0  0  0  0  0  0
   21.2182   21.1701   21.0940 H   0  0  0  0  0  0  0  0  0  0  0  0
   21.2442   20.5430   19.4330 H   0  0  0  0  0  0  0  0  0  0  0  0
   19.7172   20.5970   20.3299 H   0  0  0  0  0  0  0  0  0  0  0  0
  1  2  1  0  0  0  0
  1  3  2  0  0  0  0
  1  4  1  0  0  0  0
  4  5  1  0  0  0  0
  4  6  1  0  0  0  0
  4  7  1  0  0  0  0
  7  8  1  0  0  0  0
  7  9  1  0  0  0  0
  7 10  1  0  0  0  0
 10 11  1  0  0  0  0
 10 12  1  0  0  0  0
 10 13  1  0  0  0  0
 13 14  1  0  0  0  0
 13 15  1  0  0  0  0
 13 16  1  0  0  0  0
 16 17  1  0  0  0  0
 16 18  1  0  0  0  0
 16 19  1  0  0  0  0
 19 20  1  0  0  0  0
 19 21  1  0  0  0  0
 19 22  1  0  0  0  0
 22 23  1  0  0  0  0
 22 24  1  0  0  0  0
 22 25  1  0  0  0  0
M  END
> <VConfSearch Rank>
16

> <Conf_Id>
89

> <Delta U+W>
2.903

> <U+W>
-48.726

> <U>
10.996

> <W>
-59.723

> <W(PB)>
-62.151

> <W(SA)>
2.428

> <Valence>
10.985

> <Coulomb>
-0.995

> <VdW>
1.006

> <VdW6>
-10.062

> <VdW12>
11.069

> <Bond>
0.238

> <Angle>
3.202

> <Pdih>
7.544

> <Idih>
0.001

> <Tether>
0.000

$$$$
VeraChem MOL file


 25 24  0  0  0  0  0  0  0  0999 V2000     
   20.2822   19.6894   26.8794 C   0  0  0  0  0  0  0  0  0  0  0  0
   21.3655   20.2401   26.9022 O   0  5  0  0  0  0  0  0  0  0  0  0
   19.2403   20.2476   27.1631 O   0  0  0  0  0  0  0  0  0  0  0  0
   20.2384   18.2011   26.5387 C   0  0  0  0  0  0  0  0  0  0  0  0
   19.8807   17.6900   27.4400 H   0  0  0  0  0  0  0  0  0  0  0  0
   21.2604   17.8452   26.3613 H   0  0  0  0  0  0  0  0  0  0  0  0
   19.3195   17.8202   25.3436 C   0  0  0  0  0  0  0  0  0  0  0  0
   19.0677   16.7552   25.4375 H   0  0  0  0  0  0  0  0  0  0  0  0
   18.3665   18.3626   25.4150 H   0  0  0  0  0  0  0  0  0  0  0  0
   19.9481   18.0326   23.9437 C   0  0  0  0  0  0  0  0  0  0  0  0
   19.2787   17.5730   23.2060 H   0  0  0  0  0  0  0  0  0  0  0  0
   20.8996   17.4876   23.8795 H   0  0  0  0  0  0  0  0  0  0  0  0
   20.1740   19.5187   23.5735 C   0  0  0  0  0  0  0  0  0  0  0  0
   19.2380   20.0807   23.6952 H   0  0  0  0  0  0  0  0  0  0  0  0
   20.8954   19.9593   24.2722 H   0  0  0  0  0  0  0  0  0  0  0  0
   20.7213   19.7223   22.1402 C   0  0  0  0  0  0  0  0  0  0  0  0
   21.6397   19.1340   22.0094 H   0  0  0  0  0  0  0  0  0  0  0  0
   21.0098   20.7763   22.0272 H   0  0  0  0  0  0  0  0  0  0  0  0
   19.7065   19.3626   21.0310 C   0  0  0  0  0  0  0  0  0  0  0  0
   19.4637   18.2929   21.0700 H   0  0  0  0  0  0  0  0  0  0  0  0
   18.7685   19.9106   21.1954 H   0  0  0  0  0  0  0  0  0  0  0  0
   20.2572   19.6994   19.6305 C   0  0  0  0  0  0  0  0  0  0  0  0
   21.1823   19.1438   19.4287 H   0  0  0  0  0  0  0  0  0  0  0  0
   19.5272   19.4357   18.8542 H   0  0  0  0  0  0  0  0  0  0  0  0
   20.4745   20.7718   19.5407 H   0  0  0  0  0  0  0  0  0  0  0  0
  1  2  1  0  0  0  0
  1  3  2  0  0  0  0
  1  4  1  0  0  0  0
  4  5  1  0  0  0  0
  4  6  1  0  0  0  0
  4  7  1  0  0  0  0
  7  8  1  0  0  0  0
  7  9  1  0  0  0  0
  7 10  1  0  0  0  0
 10 11  1  0  0  0  0
 10 12  1  0  0  0  0
 10 13  1  0  0  0  0
 13 14  1  0  0  0  0
 13 15  1  0  0  0  0
 13 16  1  0  0  0  0
 16 17  1  0  0  0  0
 16 18  1  0  0  0  0
 16 19  1  0  0  0  0
 19 20  1  0  0  0  0
 19 21  1  0  0  0  0
 19 22  1  0  0  0  0
 22 23  1  0  0  0  0
 22 24  1  0  0  0  0
 22 25  1  0  0  0  0
M  END
> <VConfSearch Rank>
17

> <Conf_Id>
114

> <Delta U+W>
2.758

> <U+W>
-48.871

> <U>
11.422

> <W>
-60.293

> <W(PB)>
-62.719

> <W(SA)>
2.425

> <Valence>
10.135

> <Coulomb>
0.369

> <VdW>
0.918

> <VdW6>
-10.482

> <VdW12>
11.400

> <Bond>
0.245

> <Angle>
3.539

> <Pdih>
6.346

> <Idih>
0.006

> <Tether>
0.000

$$$$
VeraChem MOL file


 25 24  0  0  0  0  0  0  0  0999 V2000     
   19.9747   19.5881   27.1777 C   0  0  0  0  0  0  0  0  0  0  0  0
   20.8054   20.4336   27.4463 O   0  5  0  0  0  0  0  0  0  0  0  0
   18.7832   19.7305   27.3702 O   0  0  0  0  0  0  0  0  0  0  0  0
   20.4540   18.2660   26.5850 C   0  0  0  0  0  0  0  0  0  0  0  0
   19.9328   17.4603   27.1153 H   0  0  0  0  0  0  0  0  0  0  0  0
   21.5224   18.1510   26.8043 H   0  0  0  0  0  0  0  0  0  0  0  0
   20.2014   18.1314   25.0609 C   0  0  0  0  0  0  0  0  0  0  0  0
   20.4546   17.1101   24.7462 H   0  0  0  0  0  0  0  0  0  0  0  0
   19.1296   18.2679   24.8657 H   0  0  0  0  0  0  0  0  0  0  0  0
   21.0306   19.1419   24.2323 C   0  0  0  0  0  0  0  0  0  0  0  0
   22.0883   19.0498   24.5147 H   0  0  0  0  0  0  0  0  0  0  0  0
   20.7316   20.1682   24.4863 H   0  0  0  0  0  0  0  0  0  0  0  0
   20.9122   18.9339   22.7035 C   0  0  0  0  0  0  0  0  0  0  0  0
   21.6410   19.5928   22.2147 H   0  0  0  0  0  0  0  0  0  0  0  0
   21.2017   17.9055   22.4482 H   0  0  0  0  0  0  0  0  0  0  0  0
   19.4973   19.2320   22.1487 C   0  0  0  0  0  0  0  0  0  0  0  0
   19.2069   20.2594   22.4074 H   0  0  0  0  0  0  0  0  0  0  0  0
   18.7680   18.5708   22.6333 H   0  0  0  0  0  0  0  0  0  0  0  0
   19.3821   19.0313   20.6193 C   0  0  0  0  0  0  0  0  0  0  0  0
   19.6830   18.0080   20.3555 H   0  0  0  0  0  0  0  0  0  0  0  0
   18.3262   19.1277   20.3311 H   0  0  0  0  0  0  0  0  0  0  0  0
   20.2123   20.0452   19.8022 C   0  0  0  0  0  0  0  0  0  0  0  0
   20.0201   19.9211   18.7286 H   0  0  0  0  0  0  0  0  0  0  0  0
   19.9523   21.0763   20.0748 H   0  0  0  0  0  0  0  0  0  0  0  0
   21.2884   19.9066   19.9640 H   0  0  0  0  0  0  0  0  0  0  0  0
  1  2  1  0  0  0  0
  1  3  2  0  0  0  0
  1  4  1  0  0  0  0
  4  5  1  0  0  0  0
  4  6  1  0  0  0  0
  4  7  1  0  0  0  0
  7  8  1  0  0  0  0
  7  9  1  0  0  0  0
  7 10  1  0  0  0  0
 10 11  1  0  0  0  0
 10 12  1  0  0  0  0
 10 13  1  0  0  0  0
 13 14  1  0  0  0  0
 13 15  1  0  0  0  0
 13 16  1  0  0  0  0
 16 17  1  0  0  0  0
 16 18  1  0  0  0  0
 16 19  1  0  0  0  0
 19 20  1  0  0  0  0
 19 21  1  0  0  0  0
 19 22  1  0  0  0  0
 22 23  1  0  0  0  0
 22 24  1  0  0  0  0
 22 25  1  0  0  0  0
M  END
> <VConfSearch Rank>
18

> <Conf_Id>
87

> <Delta U+W>
1.453

> <U+W>
-50.176

> <U>
9.763

> <W>
-59.940

> <W(PB)>
-62.392

> <W(SA)>
2.452

> <Valence>
8.883

> <Coulomb>
-0.122

> <VdW>
1.003

> <VdW6>
-9.782

> <VdW12>
10.785

> <Bond>
0.212

> <Angle>
2.940

> <Pdih>
5.730

> <Idih>
0.001

> <Tether>
0.000

$$$$
VeraChem MOL file


 25 24  0  0  0  0  0  0  0  0999 V2000     
   20.4760   19.4601   27.2617 C   0  0  0  0  0  0  0  0  0  0  0  0
   21.4777   20.1425   27.3480 O   0  5  0  0  0  0  0  0  0  0  0  0
   19.5614   19.5026   28.0607 O   0  0  0  0  0  0  0  0  0  0  0  0
   20.3514   18.5111   26.0750 C   0  0  0  0  0  0  0  0  0  0  0  0
   19.7827   17.6318   26.4004 H   0  0  0  0  0  0  0  0  0  0  0  0
   21.3574   18.1663   25.8074 H   0  0  0  0  0  0  0  0  0  0  0  0
   19.6687   19.1670   24.8496 C   0  0  0  0  0  0  0  0  0  0  0  0
   18.6662   19.5148   25.1347 H   0  0  0  0  0  0  0  0  0  0  0  0
   20.2443   20.0547   24.5554 H   0  0  0  0  0  0  0  0  0  0  0  0
   19.5616   18.1861   23.6593 C   0  0  0  0  0  0  0  0  0  0  0  0
   19.0442   17.2759   23.9917 H   0  0  0  0  0  0  0  0  0  0  0  0
   20.5654   17.8689   23.3476 H   0  0  0  0  0  0  0  0  0  0  0  0
   18.7927   18.7691   22.4471 C   0  0  0  0  0  0  0  0  0  0  0  0
   18.7101   17.9942   21.6738 H   0  0  0  0  0  0  0  0  0  0  0  0
   17.7622   18.9917   22.7554 H   0  0  0  0  0  0  0  0  0  0  0  0
   19.4101   20.0491   21.8240 C   0  0  0  0  0  0  0  0  0  0  0  0
   19.3427   20.8735   22.5458 H   0  0  0  0  0  0  0  0  0  0  0  0
   18.7929   20.3539   20.9680 H   0  0  0  0  0  0  0  0  0  0  0  0
   20.8795   19.9115   21.3550 C   0  0  0  0  0  0  0  0  0  0  0  0
   21.2128   20.8803   20.9585 H   0  0  0  0  0  0  0  0  0  0  0  0
   21.5308   19.6939   22.2120 H   0  0  0  0  0  0  0  0  0  0  0  0
   21.0740   18.8349   20.2654 C   0  0  0  0  0  0  0  0  0  0  0  0
   20.4193   19.0243   19.4050 H   0  0  0  0  0  0  0  0  0  0  0  0
   22.1117   18.8331   19.9078 H   0  0  0  0  0  0  0  0  0  0  0  0
   20.8533   17.8321   20.6523 H   0  0  0  0  0  0  0  0  0  0  0  0
  1  2  1  0  0  0  0
  1  3  2  0  0  0  0
  1  4  1  0  0  0  0
  4  5  1  0  0  0  0
  4  6  1  0  0  0  0
  4  7  1  0  0  0  0
  7  8  1  0  0  0  0
  7  9  1  0  0  0  0
  7 10  1  0  0  0  0
 10 11  1  0  0  0  0
 10 12  1  0  0  0  0
 10 13  1  0  0  0  0
 13 14  1  0  0  0  0
 13 15  1  0  0  0  0
 13 16  1  0  0  0  0
 16 17  1  0  0  0  0
 16 18  1  0  0  0  0
 16 19  1  0  0  0  0
 19 20  1  0  0  0  0
 19 21  1  0  0  0  0
 19 22  1  0  0  0  0
 22 23  1  0  0  0  0
 22 24  1  0  0  0  0
 22 25  1  0  0  0  0
M  END
> <VConfSearch Rank>
19

> <Conf_Id>
29

> <Delta U+W>
0.850

> <U+W>
-50.780

> <U>
8.646

> <W>
-59.426

> <W(PB)>
-61.868

> <W(SA)>
2.442

> <Valence>
8.924

> <Coulomb>
-1.171

> <VdW>
0.894

> <VdW6>
-10.223

> <VdW12>
11.117

> <Bond>
0.231

> <Angle>
3.232

> <Pdih>
5.461

> <Idih>
0.001

> <Tether>
0.000

$$$$
VeraChem MOL file


 25 24  0  0  0  0  0  0  0  0999 V2000     
   20.2761   19.6673   27.2567 C   0  0  0  0  0  0  0  0  0  0  0  0
   20.9918   20.6462   27.3360 O   0  5  0  0  0  0  0  0  0  0  0  0
   20.2678   18.7711   28.0774 O   0  0  0  0  0  0  0  0  0  0  0  0
   19.3509   19.5476   26.0510 C   0  0  0  0  0  0  0  0  0  0  0  0
   19.0485   20.5583   25.7519 H   0  0  0  0  0  0  0  0  0  0  0  0
   18.4446   19.0181   26.3683 H   0  0  0  0  0  0  0  0  0  0  0  0
   20.0101   18.8129   24.8578 C   0  0  0  0  0  0  0  0  0  0  0  0
   20.9244   19.3496   24.5716 H   0  0  0  0  0  0  0  0  0  0  0  0
   20.3151   17.8059   25.1743 H   0  0  0  0  0  0  0  0  0  0  0  0
   19.0538   18.7119   23.6471 C   0  0  0  0  0  0  0  0  0  0  0  0
   18.7800   19.7185   23.3047 H   0  0  0  0  0  0  0  0  0  0  0  0
   18.1183   18.2350   23.9695 H   0  0  0  0  0  0  0  0  0  0  0  0
   19.6368   17.8942   22.4673 C   0  0  0  0  0  0  0  0  0  0  0  0
   19.8150   16.8641   22.8045 H   0  0  0  0  0  0  0  0  0  0  0  0
   18.8775   17.8205   21.6777 H   0  0  0  0  0  0  0  0  0  0  0  0
   20.9522   18.4509   21.8611 C   0  0  0  0  0  0  0  0  0  0  0  0
   21.2543   17.8032   21.0270 H   0  0  0  0  0  0  0  0  0  0  0  0
   21.7568   18.3715   22.6038 H   0  0  0  0  0  0  0  0  0  0  0  0
   20.8784   19.9127   21.3554 C   0  0  0  0  0  0  0  0  0  0  0  0
   20.6647   20.5914   22.1918 H   0  0  0  0  0  0  0  0  0  0  0  0
   21.8675   20.2020   20.9747 H   0  0  0  0  0  0  0  0  0  0  0  0
   19.8350   20.1193   20.2362 C   0  0  0  0  0  0  0  0  0  0  0  0
   18.8163   19.9435   20.6038 H   0  0  0  0  0  0  0  0  0  0  0  0
   19.8788   21.1477   19.8550 H   0  0  0  0  0  0  0  0  0  0  0  0
   20.0206   19.4382   19.3957 H   0  0  0  0  0  0  0  0  0  0  0  0
  1  2  1  0  0  0  0
  1  3  2  0  0  0  0
  1  4  1  0  0  0  0
  4  5  1  0  0  0  0
  4  6  1  0  0  0  0
  4  7  1  0  0  0  0
  7  8  1  0  0  0  0
  7  9  1  0  0  0  0
  7 10  1  0  0  0  0
 10 11  1  0  0  0  0
 10 12  1  0  0  0  0
 10 13  1  0  0  0  0
 13 14  1  0  0  0  0
 13 15  1  0  0  0  0
 13 16  1  0  0  0  0
 16 17  1  0  0  0  0
 16 18  1  0  0  0  0
 16 19  1  0  0  0  0
 19 20  1  0  0  0  0
 19 21  1  0  0  0  0
 19 22  1  0  0  0  0
 22 23  1  0  0  0  0
 22 24  1  0  0  0  0
 22 25  1  0  0  0  0
M  END
> <VConfSearch Rank>
20

> <Conf_Id>
30

> <Delta U+W>
0.843

> <U+W>
-50.787

> <U>
8.647

> <W>
-59.434

> <W(PB)>
-61.861

> <W(SA)>
2.428

> <Valence>
8.924

> <Coulomb>
-1.170

> <VdW>
0.894

> <VdW6>
-10.224

> <VdW12>
11.118

> <Bond>
0.231

> <Angle>
3.232

> <Pdih>
5.460

> <Idih>
0.000

> <Tether>
0.000

$$$$
VeraChem MOL file


 25 24  0  0  0  0  0  0  0  0999 V2000     
   19.0554   23.3077   25.1316 C   0  0  0  0  0  0  0  0  0  0  0  0
   19.9026   23.9096   24.5003 O   0  5  0  0  0  0  0  0  0  0  0  0
   18.3276   23.8430   25.9438 O   0  0  0  0  0  0  0  0  0  0  0  0
   18.8735   21.8045   24.9152 C   0  0  0  0  0  0  0  0  0  0  0  0
   17.8313   21.6410   24.6168 H   0  0  0  0  0  0  0  0  0  0  0  0
   19.0097   21.3155   25.8869 H   0  0  0  0  0  0  0  0  0  0  0  0
   19.8251   21.1661   23.8687 C   0  0  0  0  0  0  0  0  0  0  0  0
   19.6880   21.6650   22.8992 H   0  0  0  0  0  0  0  0  0  0  0  0
   20.8675   21.3392   24.1705 H   0  0  0  0  0  0  0  0  0  0  0  0
   19.5740   19.6504   23.7131 C   0  0  0  0  0  0  0  0  0  0  0  0
   18.5314   19.4799   23.4114 H   0  0  0  0  0  0  0  0  0  0  0  0
   19.7116   19.1538   24.6835 H   0  0  0  0  0  0  0  0  0  0  0  0
   20.5217   19.0175   22.6716 C   0  0  0  0  0  0  0  0  0  0  0  0
   20.3843   19.5139   21.7011 H   0  0  0  0  0  0  0  0  0  0  0  0
   21.5644   19.1878   22.9731 H   0  0  0  0  0  0  0  0  0  0  0  0
   20.2712   17.5020   22.5156 C   0  0  0  0  0  0  0  0  0  0  0  0
   19.2286   17.3314   22.2141 H   0  0  0  0  0  0  0  0  0  0  0  0
   20.4087   17.0054   23.4860 H   0  0  0  0  0  0  0  0  0  0  0  0
   21.2184   16.8692   21.4745 C   0  0  0  0  0  0  0  0  0  0  0  0
   21.0823   17.3622   20.5020 H   0  0  0  0  0  0  0  0  0  0  0  0
   22.2624   17.0362   21.7738 H   0  0  0  0  0  0  0  0  0  0  0  0
   20.9651   15.3559   21.3217 C   0  0  0  0  0  0  0  0  0  0  0  0
   19.9361   15.1612   20.9921 H   0  0  0  0  0  0  0  0  0  0  0  0
   21.6467   14.9227   20.5781 H   0  0  0  0  0  0  0  0  0  0  0  0
   21.1251   14.8327   22.2735 H   0  0  0  0  0  0  0  0  0  0  0  0
  1  2  1  0  0  0  0
  1  3  2  0  0  0  0
  1  4  1  0  0  0  0
  4  5  1  0  0  0  0
  4  6  1  0  0  0  0
  4  7  1  0  0  0  0
  7  8  1  0  0  0  0
  7  9  1  0  0  0  0
  7 10  1  0  0  0  0
 10 11  1  0  0  0  0
 10 12  1  0  0  0  0
 10 13  1  0  0  0  0
 13 14  1  0  0  0  0
 13 15  1  0  0  0  0
 13 16  1  0  0  0  0
 16 17  1  0  0  0  0
 16 18  1  0  0  0  0
 16 19  1  0  0  0  0
 19 20  1  0  0  0  0
 19 21  1  0  0  0  0
 19 22  1  0  0  0  0
 22 23  1  0  0  0  0
 22 24  1  0  0  0  0
 22 25  1  0  0  0  0
M  END
> <VConfSearch Rank>
21

> <Conf_Id>
0

> <Delta U+W>
0.000

> <U+W>
-51.629

> <U>
6.586

> <W>
-58.216

> <W(PB)>
-60.757

> <W(SA)>
2.541

> <Valence>
8.027

> <Coulomb>
-2.892

> <VdW>
1.451

> <VdW6>
-7.931

> <VdW12>
9.383

> <Bond>
0.149

> <Angle>
2.726

> <Pdih>
5.152

> <Idih>
0.000

> <Tether>
0.000

$$$$
VeraChem MOL file


 25 24  0  0  0  0  0  0  0  0999 V2000     
   22.8353   18.5455   26.8945 C   0  0  0  0  0  0  0  0  0  0  0  0
   22.6706   17.4871   27.4684 O   0  5  0  0  0  0  0  0  0  0  0  0
   23.9029   19.1234   26.8408 O   0  0  0  0  0  0  0  0  0  0  0  0
   21.6414   19.1716   26.1826 C   0  0  0  0  0  0  0  0  0  0  0  0
   21.7516   20.2617   26.2273 H   0  0  0  0  0  0  0  0  0  0  0  0
   20.7360   18.9137   26.7451 H   0  0  0  0  0  0  0  0  0  0  0  0
   21.5074   18.7075   24.7114 C   0  0  0  0  0  0  0  0  0  0  0  0
   22.4269   18.9611   24.1657 H   0  0  0  0  0  0  0  0  0  0  0  0
   21.4115   17.6131   24.6834 H   0  0  0  0  0  0  0  0  0  0  0  0
   20.2921   19.3546   24.0128 C   0  0  0  0  0  0  0  0  0  0  0  0
   20.3904   20.4485   24.0435 H   0  0  0  0  0  0  0  0  0  0  0  0
   19.3748   19.1003   24.5615 H   0  0  0  0  0  0  0  0  0  0  0  0
   20.1609   18.8900   22.5464 C   0  0  0  0  0  0  0  0  0  0  0  0
   21.0780   19.1442   21.9975 H   0  0  0  0  0  0  0  0  0  0  0  0
   20.0625   17.7961   22.5155 H   0  0  0  0  0  0  0  0  0  0  0  0
   18.9457   19.5367   21.8472 C   0  0  0  0  0  0  0  0  0  0  0  0
   19.0438   20.6306   21.8778 H   0  0  0  0  0  0  0  0  0  0  0  0
   18.0284   19.2826   22.3959 H   0  0  0  0  0  0  0  0  0  0  0  0
   18.8144   19.0723   20.3814 C   0  0  0  0  0  0  0  0  0  0  0  0
   19.7296   19.3265   19.8289 H   0  0  0  0  0  0  0  0  0  0  0  0
   18.7141   17.9786   20.3469 H   0  0  0  0  0  0  0  0  0  0  0  0
   17.5999   19.7203   19.6867 C   0  0  0  0  0  0  0  0  0  0  0  0
   17.5218   19.3792   18.6462 H   0  0  0  0  0  0  0  0  0  0  0  0
   16.6663   19.4564   20.2008 H   0  0  0  0  0  0  0  0  0  0  0  0
   17.6895   20.8145   19.6789 H   0  0  0  0  0  0  0  0  0  0  0  0
  1  2  1  0  0  0  0
  1  3  2  0  0  0  0
  1  4  1  0  0  0  0
  4  5  1  0  0  0  0
  4  6  1  0  0  0  0
  4  7  1  0  0  0  0
  7  8  1  0  0  0  0
  7  9  1  0  0  0  0
  7 10  1  0  0  0  0
 10 11  1  0  0  0  0
 10 12  1  0  0  0  0
 10 13  1  0  0  0  0
 13 14  1  0  0  0  0
 13 15  1  0  0  0  0
 13 16  1  0  0  0  0
 16 17  1  0  0  0  0
 16 18  1  0  0  0  0
 16 19  1  0  0  0  0
 19 20  1  0  0  0  0
 19 21  1  0  0  0  0
 19 22  1  0  0  0  0
 22 23  1  0  0  0  0
 22 24  1  0  0  0  0
 22 25  1  0  0  0  0
M  END
> <VConfSearch Rank>
22

> <Conf_Id>
27

> <Delta U+W>
-1.297

> <U+W>
-52.926

> <U>
5.617

> <W>
-58.543

> <W(PB)>
-61.065

> <W(SA)>
2.522

> <Valence>
7.531

> <Coulomb>
-2.818

> <VdW>
0.904

> <VdW6>
-7.640

> <VdW12>
8.544

> <Bond>
0.115

> <Angle>
2.271

> <Pdih>
5.144

> <Idih>
0.001

> <Tether>
0.000

$$$$
VeraChem MOL file


 25 24  0  0  0  0  0  0  0  0999 V2000     
   19.9892   21.3833   26.6440 C   0  0  0  0  0  0  0  0  0  0  0  0
   20.7749   22.3105   26.6506 O   0  5  0  0  0  0  0  0  0  0  0  0
   18.7836   21.5234   26.5815 O   0  0  0  0  0  0  0  0  0  0  0  0
   20.5487   19.9664   26.7365 C   0  0  0  0  0  0  0  0  0  0  0  0
   19.7459   19.2935   27.0615 H   0  0  0  0  0  0  0  0  0  0  0  0
   21.3055   19.9640   27.5297 H   0  0  0  0  0  0  0  0  0  0  0  0
   21.1792   19.4504   25.4170 C   0  0  0  0  0  0  0  0  0  0  0  0
   21.9619   20.1490   25.0901 H   0  0  0  0  0  0  0  0  0  0  0  0
   21.6742   18.4891   25.6107 H   0  0  0  0  0  0  0  0  0  0  0  0
   20.1363   19.2687   24.2913 C   0  0  0  0  0  0  0  0  0  0  0  0
   19.6488   20.2304   24.0796 H   0  0  0  0  0  0  0  0  0  0  0  0
   19.3491   18.5802   24.6279 H   0  0  0  0  0  0  0  0  0  0  0  0
   20.7800   18.7243   22.9979 C   0  0  0  0  0  0  0  0  0  0  0  0
   21.5671   19.4134   22.6621 H   0  0  0  0  0  0  0  0  0  0  0  0
   21.2656   17.7611   23.2066 H   0  0  0  0  0  0  0  0  0  0  0  0
   19.7387   18.5434   21.8724 C   0  0  0  0  0  0  0  0  0  0  0  0
   19.2530   19.5065   21.6637 H   0  0  0  0  0  0  0  0  0  0  0  0
   18.9514   17.8546   22.2082 H   0  0  0  0  0  0  0  0  0  0  0  0
   20.3817   17.9998   20.5792 C   0  0  0  0  0  0  0  0  0  0  0  0
   21.1687   18.6873   20.2394 H   0  0  0  0  0  0  0  0  0  0  0  0
   20.8670   17.0353   20.7839 H   0  0  0  0  0  0  0  0  0  0  0  0
   19.3386   17.8207   19.4579 C   0  0  0  0  0  0  0  0  0  0  0  0
   18.8595   18.7771   19.2107 H   0  0  0  0  0  0  0  0  0  0  0  0
   19.8128   17.4337   18.5465 H   0  0  0  0  0  0  0  0  0  0  0  0
   18.5555   17.1127   19.7593 H   0  0  0  0  0  0  0  0  0  0  0  0
  1  2  1  0  0  0  0
  1  3  2  0  0  0  0
  1  4  1  0  0  0  0
  4  5  1  0  0  0  0
  4  6  1  0  0  0  0
  4  7  1  0  0  0  0
  7  8  1  0  0  0  0
  7  9  1  0  0  0  0
  7 10  1  0  0  0  0
 10 11  1  0  0  0  0
 10 12  1  0  0  0  0
 10 13  1  0  0  0  0
 13 14  1  0  0  0  0
 13 15  1  0  0  0  0
 13 16  1  0  0  0  0
 16 17  1  0  0  0  0
 16 18  1  0  0  0  0
 16 19  1  0  0  0  0
 19 20  1  0  0  0  0
 19 21  1  0  0  0  0
 19 22  1  0  0  0  0
 22 23  1  0  0  0  0
 22 24  1  0  0  0  0
 22 25  1  0  0  0  0
M  END
> <VConfSearch Rank>
23

> <Conf_Id>
37

> <Delta U+W>
-0.230

> <U+W>
-51.860

> <U>
7.816

> <W>
-59.675

> <W(PB)>
-62.180

> <W(SA)>
2.505

> <Valence>
7.785

> <Coulomb>
-0.713

> <VdW>
0.744

> <VdW6>
-8.514

> <VdW12>
9.259

> <Bond>
0.136

> <Angle>
2.433

> <Pdih>
5.216

> <Idih>
0.000

> <Tether>
0.000

$$$$
VeraChem MOL file


 25 24  0  0  0  0  0  0  0  0999 V2000     
   22.2180   21.2160   26.1136 C   0  0  0  0  0  0  0  0  0  0  0  0
   22.7974   22.1970   25.6905 O   0  5  0  0  0  0  0  0  0  0  0  0
   22.7854   20.2074   26.4846 O   0  0  0  0  0  0  0  0  0  0  0  0
   20.6949   21.2617   26.1979 C   0  0  0  0  0  0  0  0  0  0  0  0
   20.4199   22.2251   26.6432 H   0  0  0  0  0  0  0  0  0  0  0  0
   20.3593   20.4830   26.8935 H   0  0  0  0  0  0  0  0  0  0  0  0
   19.9827   21.1011   24.8297 C   0  0  0  0  0  0  0  0  0  0  0  0
   18.9079   21.2832   24.9638 H   0  0  0  0  0  0  0  0  0  0  0  0
   20.3496   21.8704   24.1359 H   0  0  0  0  0  0  0  0  0  0  0  0
   20.1890   19.6992   24.2133 C   0  0  0  0  0  0  0  0  0  0  0  0
   19.8330   18.9333   24.9160 H   0  0  0  0  0  0  0  0  0  0  0  0
   21.2616   19.5163   24.0599 H   0  0  0  0  0  0  0  0  0  0  0  0
   19.4459   19.5510   22.8682 C   0  0  0  0  0  0  0  0  0  0  0  0
   18.3727   19.7306   23.0197 H   0  0  0  0  0  0  0  0  0  0  0  0
   19.8026   20.3172   22.1661 H   0  0  0  0  0  0  0  0  0  0  0  0
   19.6521   18.1507   22.2514 C   0  0  0  0  0  0  0  0  0  0  0  0
   19.2957   17.3844   22.9534 H   0  0  0  0  0  0  0  0  0  0  0  0
   20.7253   17.9710   22.0999 H   0  0  0  0  0  0  0  0  0  0  0  0
   18.9100   18.0024   20.9065 C   0  0  0  0  0  0  0  0  0  0  0  0
   17.8357   18.1798   21.0546 H   0  0  0  0  0  0  0  0  0  0  0  0
   19.2655   18.7663   20.2010 H   0  0  0  0  0  0  0  0  0  0  0  0
   19.1185   16.6028   20.2939 C   0  0  0  0  0  0  0  0  0  0  0  0
   18.7425   15.8200   20.9657 H   0  0  0  0  0  0  0  0  0  0  0  0
   18.5844   16.5149   19.3389 H   0  0  0  0  0  0  0  0  0  0  0  0
   20.1830   16.4109   20.1059 H   0  0  0  0  0  0  0  0  0  0  0  0
  1  2  1  0  0  0  0
  1  3  2  0  0  0  0
  1  4  1  0  0  0  0
  4  5  1  0  0  0  0
  4  6  1  0  0  0  0
  4  7  1  0  0  0  0
  7  8  1  0  0  0  0
  7  9  1  0  0  0  0
  7 10  1  0  0  0  0
 10 11  1  0  0  0  0
 10 12  1  0  0  0  0
 10 13  1  0  0  0  0
 13 14  1  0  0  0  0
 13 15  1  0  0  0  0
 13 16  1  0  0  0  0
 16 17  1  0  0  0  0
 16 18  1  0  0  0  0
 16 19  1  0  0  0  0
 19 20  1  0  0  0  0
 19 21  1  0  0  0  0
 19 22  1  0  0  0  0
 22 23  1  0  0  0  0
 22 24  1  0  0  0  0
 22 25  1  0  0  0  0
M  END
> <VConfSearch Rank>
24

> <Conf_Id>
54

> <Delta U+W>
-0.224

> <U+W>
-51.854

> <U>
7.816

> <W>
-59.670

> <W(PB)>
-62.157

> <W(SA)>
2.487

> <Valence>
7.785

> <Coulomb>
-0.713

> <VdW>
0.744

> <VdW6>
-8.515

> <VdW12>
9.259

> <Bond>
0.136

> <Angle>
2.433

> <Pdih>
5.215

> <Idih>
0.000

> <Tether>
0.000

$$$$
VeraChem MOL file


 25 24  0  0  0  0  0  0  0  0999 V2000     
   21.7126   15.9675   25.3184 C   0  0  0  0  0  0  0  0  0  0  0  0
   22.5924   15.5468   24.5932 O   0  5  0  0  0  0  0  0  0  0  0  0
   21.8730   16.2126   26.4980 O   0  0  0  0  0  0  0  0  0  0  0  0
   20.3246   16.1832   24.7216 C   0  0  0  0  0  0  0  0  0  0  0  0
   19.5984   15.7456   25.4167 H   0  0  0  0  0  0  0  0  0  0  0  0
   20.2525   15.6137   23.7871 H   0  0  0  0  0  0  0  0  0  0  0  0
   19.9685   17.6717   24.4704 C   0  0  0  0  0  0  0  0  0  0  0  0
   18.9086   17.7324   24.1935 H   0  0  0  0  0  0  0  0  0  0  0  0
   20.0853   18.2364   25.4057 H   0  0  0  0  0  0  0  0  0  0  0  0
   20.8367   18.3106   23.3596 C   0  0  0  0  0  0  0  0  0  0  0  0
   20.6842   17.7733   22.4136 H   0  0  0  0  0  0  0  0  0  0  0  0
   21.8975   18.1867   23.6172 H   0  0  0  0  0  0  0  0  0  0  0  0
   20.5627   19.8191   23.1493 C   0  0  0  0  0  0  0  0  0  0  0  0
   20.6970   20.3532   24.0997 H   0  0  0  0  0  0  0  0  0  0  0  0
   21.3254   20.2088   22.4633 H   0  0  0  0  0  0  0  0  0  0  0  0
   19.1557   20.1182   22.5751 C   0  0  0  0  0  0  0  0  0  0  0  0
   18.3910   19.7361   23.2629 H   0  0  0  0  0  0  0  0  0  0  0  0
   19.0201   19.5799   21.6272 H   0  0  0  0  0  0  0  0  0  0  0  0
   18.8895   21.6261   22.3559 C   0  0  0  0  0  0  0  0  0  0  0  0
   17.8339   21.7602   22.0822 H   0  0  0  0  0  0  0  0  0  0  0  0
   19.0364   22.1699   23.2993 H   0  0  0  0  0  0  0  0  0  0  0  0
   19.7698   22.2515   21.2519 C   0  0  0  0  0  0  0  0  0  0  0  0
   20.8296   22.2522   21.5352 H   0  0  0  0  0  0  0  0  0  0  0  0
   19.6654   21.7018   20.3075 H   0  0  0  0  0  0  0  0  0  0  0  0
   19.4748   23.2932   21.0706 H   0  0  0  0  0  0  0  0  0  0  0  0
  1  2  1  0  0  0  0
  1  3  2  0  0  0  0
  1  4  1  0  0  0  0
  4  5  1  0  0  0  0
  4  6  1  0  0  0  0
  4  7  1  0  0  0  0
  7  8  1  0  0  0  0
  7  9  1  0  0  0  0
  7 10  1  0  0  0  0
 10 11  1  0  0  0  0
 10 12  1  0  0  0  0
 10 13  1  0  0  0  0
 13 14  1  0  0  0  0
 13 15  1  0  0  0  0
 13 16  1  0  0  0  0
 16 17  1  0  0  0  0
 16 18  1  0  0  0  0
 16 19  1  0  0  0  0
 19 20  1  0  0  0  0
 19 21  1  0  0  0  0
 19 22  1  0  0  0  0
 22 23  1  0  0  0  0
 22 24  1  0  0  0  0
 22 25  1  0  0  0  0
M  END
> <VConfSearch Rank>
25

> <Conf_Id>
101

> <Delta U+W>
1.534

> <U+W>
-50.095

> <U>
9.416

> <W>
-59.512

> <W(PB)>
-61.988

> <W(SA)>
2.476

> <Valence>
8.939

> <Coulomb>
-0.615

> <VdW>
1.092

> <VdW6>
-9.710

> <VdW12>
10.802

> <Bond>
0.216

> <Angle>
2.979

> <Pdih>
5.743

> <Idih>
0.000

> <Tether>
0.000

$$$$
VeraChem MOL file


 25 24  0  0  0  0  0  0  0  0999 V2000     
   21.9900   16.6438   20.5415 C   0  0  0  0  0  0  0  0  0  0  0  0
   22.1629   17.2717   19.5156 O   0  5  0  0  0  0  0  0  0  0  0  0
   22.6176   15.6449   20.8331 O   0  0  0  0  0  0  0  0  0  0  0  0
   20.9437   17.1500   21.5280 C   0  0  0  0  0  0  0  0  0  0  0  0
   20.5188   16.2829   22.0476 H   0  0  0  0  0  0  0  0  0  0  0  0
   20.1360   17.6105   20.9485 H   0  0  0  0  0  0  0  0  0  0  0  0
   21.5256   18.1567   22.5545 C   0  0  0  0  0  0  0  0  0  0  0  0
   22.3934   17.6950   23.0456 H   0  0  0  0  0  0  0  0  0  0  0  0
   21.9038   19.0430   22.0266 H   0  0  0  0  0  0  0  0  0  0  0  0
   20.5140   18.5884   23.6431 C   0  0  0  0  0  0  0  0  0  0  0  0
   21.0555   19.1794   24.3929 H   0  0  0  0  0  0  0  0  0  0  0  0
   20.1300   17.7002   24.1629 H   0  0  0  0  0  0  0  0  0  0  0  0
   19.3327   19.4227   23.0897 C   0  0  0  0  0  0  0  0  0  0  0  0
   19.7164   20.3108   22.5709 H   0  0  0  0  0  0  0  0  0  0  0  0
   18.7947   18.8373   22.3336 H   0  0  0  0  0  0  0  0  0  0  0  0
   18.3108   19.8446   24.1760 C   0  0  0  0  0  0  0  0  0  0  0  0
   17.8743   18.9412   24.6232 H   0  0  0  0  0  0  0  0  0  0  0  0
   17.4798   20.3727   23.6890 H   0  0  0  0  0  0  0  0  0  0  0  0
   18.8728   20.7397   25.3085 C   0  0  0  0  0  0  0  0  0  0  0  0
   18.0590   20.9650   26.0113 H   0  0  0  0  0  0  0  0  0  0  0  0
   19.6278   20.1913   25.8870 H   0  0  0  0  0  0  0  0  0  0  0  0
   19.4706   22.0691   24.7993 C   0  0  0  0  0  0  0  0  0  0  0  0
   18.7393   22.6236   24.1970 H   0  0  0  0  0  0  0  0  0  0  0  0
   19.7668   22.7054   25.6431 H   0  0  0  0  0  0  0  0  0  0  0  0
   20.3629   21.8951   24.1848 H   0  0  0  0  0  0  0  0  0  0  0  0
  1  2  1  0  0  0  0
  1  3  2  0  0  0  0
  1  4  1  0  0  0  0
  4  5  1  0  0  0  0
  4  6  1  0  0  0  0
  4  7  1  0  0  0  0
  7  8  1  0  0  0  0
  7  9  1  0  0  0  0
  7 10  1  0  0  0  0
 10 11  1  0  0  0  0
 10 12  1  0  0  0  0
 10 13  1  0  0  0  0
 13 14  1  0  0  0  0
 13 15  1  0  0  0  0
 13 16  1  0  0  0  0
 16 17  1  0  0  0  0
 16 18  1  0  0  0  0
 16 19  1  0  0  0  0
 19 20  1  0  0  0  0
 19 21  1  0  0  0  0
 19 22  1  0  0  0  0
 22 23  1  0  0  0  0
 22 24  1  0  0  0  0
 22 25  1  0  0  0  0
M  END
> <VConfSearch Rank>
26

> <Conf_Id>
75

> <Delta U+W>
1.014

> <U+W>
-50.615

> <U>
8.474

> <W>
-59.089

> <W(PB)>
-61.530

> <W(SA)>
2.441

> <Valence>
9.080

> <Coulomb>
-1.772

> <VdW>
1.165

> <VdW6>
-9.830

> <VdW12>
10.996

> <Bond>
0.240

> <Angle>
3.225

> <Pdih>
5.615

> <Idih>
0.001

> <Tether>
0.000

$$$$
VeraChem MOL file


 25 24  0  0  0  0  0  0  0  0999 V2000     
   21.9294   15.7520   21.5965 C   0  0  0  0  0  0  0  0  0  0  0  0
   22.9782   15.5580   22.1789 O   0  5  0  0  0  0  0  0  0  0  0  0
   21.2979   14.8772   21.0375 O   0  0  0  0  0  0  0  0  0  0  0  0
   21.3637   17.1676   21.5849 C   0  0  0  0  0  0  0  0  0  0  0  0
   20.8220   17.3103   20.6421 H   0  0  0  0  0  0  0  0  0  0  0  0
   22.2053   17.8707   21.5850 H   0  0  0  0  0  0  0  0  0  0  0  0
   20.4295   17.4520   22.7867 C   0  0  0  0  0  0  0  0  0  0  0  0
   19.5995   16.7319   22.7797 H   0  0  0  0  0  0  0  0  0  0  0  0
   20.9831   17.2919   23.7223 H   0  0  0  0  0  0  0  0  0  0  0  0
   19.8713   18.8912   22.7530 C   0  0  0  0  0  0  0  0  0  0  0  0
   19.3192   19.0468   21.8161 H   0  0  0  0  0  0  0  0  0  0  0  0
   20.7050   19.6033   22.7486 H   0  0  0  0  0  0  0  0  0  0  0  0
   18.9341   19.1684   23.9520 C   0  0  0  0  0  0  0  0  0  0  0  0
   18.0977   18.4577   23.9035 H   0  0  0  0  0  0  0  0  0  0  0  0
   19.4536   18.9656   24.8985 H   0  0  0  0  0  0  0  0  0  0  0  0
   18.3565   20.6067   23.9607 C   0  0  0  0  0  0  0  0  0  0  0  0
   17.3270   20.5587   24.3411 H   0  0  0  0  0  0  0  0  0  0  0  0
   18.2777   20.9920   22.9349 H   0  0  0  0  0  0  0  0  0  0  0  0
   19.1340   21.6104   24.8477 C   0  0  0  0  0  0  0  0  0  0  0  0
   18.5953   22.5680   24.8447 H   0  0  0  0  0  0  0  0  0  0  0  0
   19.1316   21.2600   25.8891 H   0  0  0  0  0  0  0  0  0  0  0  0
   20.5878   21.8601   24.3953 C   0  0  0  0  0  0  0  0  0  0  0  0
   20.6273   22.1481   23.3368 H   0  0  0  0  0  0  0  0  0  0  0  0
   21.0393   22.6692   24.9837 H   0  0  0  0  0  0  0  0  0  0  0  0
   21.2053   20.9645   24.5371 H   0  0  0  0  0  0  0  0  0  0  0  0
  1  2  1  0  0  0  0
  1  3  2  0  0  0  0
  1  4  1  0  0  0  0
  4  5  1  0  0  0  0
  4  6  1  0  0  0  0
  4  7  1  0  0  0  0
  7  8  1  0  0  0  0
  7  9  1  0  0  0  0
  7 10  1  0  0  0  0
 10 11  1  0  0  0  0
 10 12  1  0  0  0  0
 10 13  1  0  0  0  0
 13 14  1  0  0  0  0
 13 15  1  0  0  0  0
 13 16  1  0  0  0  0
 16 17  1  0  0  0  0
 16 18  1  0  0  0  0
 16 19  1  0  0  0  0
 19 20  1  0  0  0  0
 19 21  1  0  0  0  0
 19 22  1  0  0  0  0
 22 23  1  0  0  0  0
 22 24  1  0  0  0  0
 22 25  1  0  0  0  0
M  END
> <VConfSearch Rank>
27

> <Conf_Id>
125

> <Delta U+W>
2.314

> <U+W>
-49.315

> <U>
9.740

> <W>
-59.054

> <W(PB)>
-61.488

> <W(SA)>
2.433

> <Valence>
10.506

> <Coulomb>
-1.761

> <VdW>
0.994

> <VdW6>
-9.209

> <VdW12>
10.203

> <Bond>
0.193

> <Angle>
2.979

> <Pdih>
7.334

> <Idih>
0.001

> <Tether>
0.000

$$$$
VeraChem MOL file


 25 24  0  0  0  0  0  0  0  0999 V2000     
   23.3953   21.3568   24.2884 C   0  0  0  0  0  0  0  0  0  0  0  0
   24.3018   20.5552   24.3995 O   0  5  0  0  0  0  0  0  0  0  0  0
   23.4966   22.5322   24.5799 O   0  0  0  0  0  0  0  0  0  0  0  0
   22.0492   20.8554   23.7780 C   0  0  0  0  0  0  0  0  0  0  0  0
   22.2440   20.0489   23.0623 H   0  0  0  0  0  0  0  0  0  0  0  0
   21.5691   21.6722   23.2259 H   0  0  0  0  0  0  0  0  0  0  0  0
   21.1213   20.3625   24.9188 C   0  0  0  0  0  0  0  0  0  0  0  0
   21.5924   19.5142   25.4342 H   0  0  0  0  0  0  0  0  0  0  0  0
   21.0241   21.1633   25.6649 H   0  0  0  0  0  0  0  0  0  0  0  0
   19.7072   19.9610   24.4358 C   0  0  0  0  0  0  0  0  0  0  0  0
   19.2351   20.8142   23.9295 H   0  0  0  0  0  0  0  0  0  0  0  0
   19.0883   19.7409   25.3164 H   0  0  0  0  0  0  0  0  0  0  0  0
   19.7035   18.7318   23.4976 C   0  0  0  0  0  0  0  0  0  0  0  0
   20.2627   18.9656   22.5837 H   0  0  0  0  0  0  0  0  0  0  0  0
   20.2199   17.8950   23.9871 H   0  0  0  0  0  0  0  0  0  0  0  0
   18.2649   18.3037   23.1257 C   0  0  0  0  0  0  0  0  0  0  0  0
   17.7612   19.1225   22.5940 H   0  0  0  0  0  0  0  0  0  0  0  0
   17.6926   18.1330   24.0477 H   0  0  0  0  0  0  0  0  0  0  0  0
   18.2079   17.0179   22.2682 C   0  0  0  0  0  0  0  0  0  0  0  0
   18.7062   16.1953   22.7995 H   0  0  0  0  0  0  0  0  0  0  0  0
   17.1570   16.7194   22.1504 H   0  0  0  0  0  0  0  0  0  0  0  0
   18.8359   17.1878   20.8678 C   0  0  0  0  0  0  0  0  0  0  0  0
   19.9156   17.3718   20.9323 H   0  0  0  0  0  0  0  0  0  0  0  0
   18.6894   16.2797   20.2688 H   0  0  0  0  0  0  0  0  0  0  0  0
   18.3748   18.0259   20.3293 H   0  0  0  0  0  0  0  0  0  0  0  0
  1  2  1  0  0  0  0
  1  3  2  0  0  0  0
  1  4  1  0  0  0  0
  4  5  1  0  0  0  0
  4  6  1  0  0  0  0
  4  7  1  0  0  0  0
  7  8  1  0  0  0  0
  7  9  1  0  0  0  0
  7 10  1  0  0  0  0
 10 11  1  0  0  0  0
 10 12  1  0  0  0  0
 10 13  1  0  0  0  0
 13 14  1  0  0  0  0
 13 15  1  0  0  0  0
 13 16  1  0  0  0  0
 16 17  1  0  0  0  0
 16 18  1  0  0  0  0
 16 19  1  0  0  0  0
 19 20  1  0  0  0  0
 19 21  1  0  0  0  0
 19 22  1  0  0  0  0
 22 23  1  0  0  0  0
 22 24  1  0  0  0  0
 22 25  1  0  0  0  0
M  END
> <VConfSearch Rank>
28

> <Conf_Id>
4

> <Delta U+W>
0.189

> <U+W>
-51.441

> <U>
7.701

> <W>
-59.141

> <W(PB)>
-61.609

> <W(SA)>
2.467

> <Valence>
8.550

> <Coulomb>
-1.988

> <VdW>
1.139

> <VdW6>
-8.988

> <VdW12>
10.127

> <Bond>
0.191

> <Angle>
2.738

> <Pdih>
5.621

> <Idih>
0.001

> <Tether>
0.000

$$$$
VeraChem MOL file


 25 24  0  0  0  0  0  0  0  0999 V2000     
   19.4904   22.8351   25.1129 C   0  0  0  0  0  0  0  0  0  0  0  0
   18.6144   22.6546   25.9356 O   0  5  0  0  0  0  0  0  0  0  0  0
   20.1253   23.8672   25.0211 O   0  0  0  0  0  0  0  0  0  0  0  0
   19.8278   21.6953   24.1584 C   0  0  0  0  0  0  0  0  0  0  0  0
   20.1612   22.1333   23.2101 H   0  0  0  0  0  0  0  0  0  0  0  0
   18.9017   21.1459   23.9557 H   0  0  0  0  0  0  0  0  0  0  0  0
   20.9163   20.7445   24.7210 C   0  0  0  0  0  0  0  0  0  0  0  0
   21.7951   21.3416   25.0013 H   0  0  0  0  0  0  0  0  0  0  0  0
   20.5519   20.2762   25.6458 H   0  0  0  0  0  0  0  0  0  0  0  0
   21.3592   19.6507   23.7202 C   0  0  0  0  0  0  0  0  0  0  0  0
   22.2071   19.1041   24.1551 H   0  0  0  0  0  0  0  0  0  0  0  0
   21.7321   20.1223   22.8007 H   0  0  0  0  0  0  0  0  0  0  0  0
   20.2372   18.6453   23.3715 C   0  0  0  0  0  0  0  0  0  0  0  0
   19.8322   18.2121   24.2962 H   0  0  0  0  0  0  0  0  0  0  0  0
   19.4137   19.1717   22.8743 H   0  0  0  0  0  0  0  0  0  0  0  0
   20.7528   17.5126   22.4537 C   0  0  0  0  0  0  0  0  0  0  0  0
   21.6177   17.0314   22.9304 H   0  0  0  0  0  0  0  0  0  0  0  0
   21.1157   17.9388   21.5085 H   0  0  0  0  0  0  0  0  0  0  0  0
   19.6901   16.4285   22.1581 C   0  0  0  0  0  0  0  0  0  0  0  0
   20.1680   15.6086   21.6043 H   0  0  0  0  0  0  0  0  0  0  0  0
   19.3287   15.9963   23.1014 H   0  0  0  0  0  0  0  0  0  0  0  0
   18.4936   16.9528   21.3347 C   0  0  0  0  0  0  0  0  0  0  0  0
   18.8334   17.4184   20.4004 H   0  0  0  0  0  0  0  0  0  0  0  0
   17.8163   16.1290   21.0748 H   0  0  0  0  0  0  0  0  0  0  0  0
   17.9133   17.6941   21.8981 H   0  0  0  0  0  0  0  0  0  0  0  0
  1  2  1  0  0  0  0
  1  3  2  0  0  0  0
  1  4  1  0  0  0  0
  4  5  1  0  0  0  0
  4  6  1  0  0  0  0
  4  7  1  0  0  0  0
  7  8  1  0  0  0  0
  7  9  1  0  0  0  0
  7 10  1  0  0  0  0
 10 11  1  0  0  0  0
 10 12  1  0  0  0  0
 10 13  1  0  0  0  0
 13 14  1  0  0  0  0
 13 15  1  0  0  0  0
 13 16  1  0  0  0  0
 16 17  1  0  0  0  0
 16 18  1  0  0  0  0
 16 19  1  0  0  0  0
 19 20  1  0  0  0  0
 19 21  1  0  0  0  0
 19 22  1  0  0  0  0
 22 23  1  0  0  0  0
 22 24  1  0  0  0  0
 22 25  1  0  0  0  0
M  END
> <VConfSearch Rank>
29

> <Conf_Id>
17

> <Delta U+W>
0.219

> <U+W>
-51.411

> <U>
7.701

> <W>
-59.111

> <W(PB)>
-61.599

> <W(SA)>
2.488

> <Valence>
8.550

> <Coulomb>
-1.988

> <VdW>
1.139

> <VdW6>
-8.988

> <VdW12>
10.127

> <Bond>
0.191

> <Angle>
2.738

> <Pdih>
5.621

> <Idih>
0.001

> <Tether>
0.000

$$$$
VeraChem MOL file


 25 24  0  0  0  0  0  0  0  0999 V2000     
   20.8567   16.0050   24.9926 C   0  0  0  0  0  0  0  0  0  0  0  0
   19.8799   15.5269   25.5350 O   0  5  0  0  0  0  0  0  0  0  0  0
   21.8564   16.3512   25.5907 O   0  0  0  0  0  0  0  0  0  0  0  0
   20.8367   16.1622   23.4748 C   0  0  0  0  0  0  0  0  0  0  0  0
   20.0642   15.5005   23.0645 H   0  0  0  0  0  0  0  0  0  0  0  0
   21.7991   15.8003   23.0944 H   0  0  0  0  0  0  0  0  0  0  0  0
   20.6050   17.6190   22.9962 C   0  0  0  0  0  0  0  0  0  0  0  0
   21.3778   18.2642   23.4346 H   0  0  0  0  0  0  0  0  0  0  0  0
   20.7356   17.6617   21.9066 H   0  0  0  0  0  0  0  0  0  0  0  0
   19.1969   18.1456   23.3631 C   0  0  0  0  0  0  0  0  0  0  0  0
   19.0818   18.1736   24.4555 H   0  0  0  0  0  0  0  0  0  0  0  0
   18.4431   17.4383   22.9911 H   0  0  0  0  0  0  0  0  0  0  0  0
   18.8901   19.5442   22.7769 C   0  0  0  0  0  0  0  0  0  0  0  0
   18.9959   19.5165   21.6838 H   0  0  0  0  0  0  0  0  0  0  0  0
   17.8375   19.7834   22.9811 H   0  0  0  0  0  0  0  0  0  0  0  0
   19.7819   20.6652   23.3591 C   0  0  0  0  0  0  0  0  0  0  0  0
   20.8324   20.4816   23.0989 H   0  0  0  0  0  0  0  0  0  0  0  0
   19.7161   20.6543   24.4556 H   0  0  0  0  0  0  0  0  0  0  0  0
   19.3675   22.0552   22.8320 C   0  0  0  0  0  0  0  0  0  0  0  0
   19.4305   22.0689   21.7351 H   0  0  0  0  0  0  0  0  0  0  0  0
   18.3190   22.2539   23.0942 H   0  0  0  0  0  0  0  0  0  0  0  0
   20.2601   23.1716   23.4106 C   0  0  0  0  0  0  0  0  0  0  0  0
   21.3116   23.0157   23.1362 H   0  0  0  0  0  0  0  0  0  0  0  0
   19.9513   24.1523   23.0259 H   0  0  0  0  0  0  0  0  0  0  0  0
   20.1923   23.2005   24.5060 H   0  0  0  0  0  0  0  0  0  0  0  0
  1  2  1  0  0  0  0
  1  3  2  0  0  0  0
  1  4  1  0  0  0  0
  4  5  1  0  0  0  0
  4  6  1  0  0  0  0
  4  7  1  0  0  0  0
  7  8  1  0  0  0  0
  7  9  1  0  0  0  0
  7 10  1  0  0  0  0
 10 11  1  0  0  0  0
 10 12  1  0  0  0  0
 10 13  1  0  0  0  0
 13 14  1  0  0  0  0
 13 15  1  0  0  0  0
 13 16  1  0  0  0  0
 16 17  1  0  0  0  0
 16 18  1  0  0  0  0
 16 19  1  0  0  0  0
 19 20  1  0  0  0  0
 19 21  1  0  0  0  0
 19 22  1  0  0  0  0
 22 23  1  0  0  0  0
 22 24  1  0  0  0  0
 22 25  1  0  0  0  0
M  END
> <VConfSearch Rank>
30

> <Conf_Id>
142

> <Delta U+W>
0.593

> <U+W>
-51.037

> <U>
8.903

> <W>
-59.940

> <W(PB)>
-62.418

> <W(SA)>
2.478

> <Valence>
8.305

> <Coulomb>
-0.223

> <VdW>
0.821

> <VdW6>
-9.236

> <VdW12>
10.057

> <Bond>
0.173

> <Angle>
2.663

> <Pdih>
5.469

> <Idih>
0.001

> <Tether>
0.000

$$$$
VeraChem MOL file


 25 24  0  0  0  0  0  0  0  0999 V2000     
   20.2089   22.4561   22.1378 C   0  0  0  0  0  0  0  0  0  0  0  0
   19.6949   23.0847   21.2333 O   0  5  0  0  0  0  0  0  0  0  0  0
   20.3152   22.8769   23.2730 O   0  0  0  0  0  0  0  0  0  0  0  0
   20.7755   21.0748   21.8213 C   0  0  0  0  0  0  0  0  0  0  0  0
   21.4338   20.7685   22.6423 H   0  0  0  0  0  0  0  0  0  0  0  0
   21.4120   21.1785   20.9350 H   0  0  0  0  0  0  0  0  0  0  0  0
   19.6944   19.9921   21.5544 C   0  0  0  0  0  0  0  0  0  0  0  0
   19.0974   20.2980   20.6842 H   0  0  0  0  0  0  0  0  0  0  0  0
   20.1857   19.0537   21.2666 H   0  0  0  0  0  0  0  0  0  0  0  0
   18.7366   19.7356   22.7467 C   0  0  0  0  0  0  0  0  0  0  0  0
   18.0112   18.9635   22.4563 H   0  0  0  0  0  0  0  0  0  0  0  0
   18.1496   20.6448   22.9357 H   0  0  0  0  0  0  0  0  0  0  0  0
   19.4238   19.3069   24.0674 C   0  0  0  0  0  0  0  0  0  0  0  0
   20.0700   20.1167   24.4321 H   0  0  0  0  0  0  0  0  0  0  0  0
   18.6471   19.1719   24.8323 H   0  0  0  0  0  0  0  0  0  0  0  0
   20.2400   17.9996   23.9437 C   0  0  0  0  0  0  0  0  0  0  0  0
   21.0665   18.1412   23.2352 H   0  0  0  0  0  0  0  0  0  0  0  0
   19.6003   17.2045   23.5371 H   0  0  0  0  0  0  0  0  0  0  0  0
   20.8140   17.5546   25.3053 C   0  0  0  0  0  0  0  0  0  0  0  0
   21.4522   18.3497   25.7150 H   0  0  0  0  0  0  0  0  0  0  0  0
   19.9946   17.4020   26.0212 H   0  0  0  0  0  0  0  0  0  0  0  0
   21.6327   16.2540   25.1792 C   0  0  0  0  0  0  0  0  0  0  0  0
   22.4791   16.3878   24.4928 H   0  0  0  0  0  0  0  0  0  0  0  0
   22.0328   15.9524   26.1559 H   0  0  0  0  0  0  0  0  0  0  0  0
   21.0100   15.4333   24.7998 H   0  0  0  0  0  0  0  0  0  0  0  0
  1  2  1  0  0  0  0
  1  3  2  0  0  0  0
  1  4  1  0  0  0  0
  4  5  1  0  0  0  0
  4  6  1  0  0  0  0
  4  7  1  0  0  0  0
  7  8  1  0  0  0  0
  7  9  1  0  0  0  0
  7 10  1  0  0  0  0
 10 11  1  0  0  0  0
 10 12  1  0  0  0  0
 10 13  1  0  0  0  0
 13 14  1  0  0  0  0
 13 15  1  0  0  0  0
 13 16  1  0  0  0  0
 16 17  1  0  0  0  0
 16 18  1  0  0  0  0
 16 19  1  0  0  0  0
 19 20  1  0  0  0  0
 19 21  1  0  0  0  0
 19 22  1  0  0  0  0
 22 23  1  0  0  0  0
 22 24  1  0  0  0  0
 22 25  1  0  0  0  0
M  END
> <VConfSearch Rank>
31

> <Conf_Id>
135

> <Delta U+W>
1.314

> <U+W>
-50.316

> <U>
9.773

> <W>
-60.088

> <W(PB)>
-62.535

> <W(SA)>
2.447

> <Valence>
8.741

> <Coulomb>
0.479

> <VdW>
0.552

> <VdW6>
-10.627

> <VdW12>
11.179

> <Bond>
0.227

> <Angle>
3.155

> <Pdih>
5.358

> <Idih>
0.001

> <Tether>
0.000

$$$$
VeraChem MOL file


 25 24  0  0  0  0  0  0  0  0999 V2000     
   17.7349   18.7880   19.7902 C   0  0  0  0  0  0  0  0  0  0  0  0
   16.7883   18.0393   19.9321 O   0  5  0  0  0  0  0  0  0  0  0  0
   17.8095   19.6186   18.9063 O   0  0  0  0  0  0  0  0  0  0  0  0
   18.8822   18.6957   20.7898 C   0  0  0  0  0  0  0  0  0  0  0  0
   19.8092   18.9628   20.2685 H   0  0  0  0  0  0  0  0  0  0  0  0
   18.9717   17.6479   21.0968 H   0  0  0  0  0  0  0  0  0  0  0  0
   18.6780   19.6144   22.0227 C   0  0  0  0  0  0  0  0  0  0  0  0
   18.4950   20.6387   21.6693 H   0  0  0  0  0  0  0  0  0  0  0  0
   17.7728   19.3077   22.5649 H   0  0  0  0  0  0  0  0  0  0  0  0
   19.8862   19.6349   22.9894 C   0  0  0  0  0  0  0  0  0  0  0  0
   19.7087   20.4220   23.7330 H   0  0  0  0  0  0  0  0  0  0  0  0
   20.7945   19.9173   22.4401 H   0  0  0  0  0  0  0  0  0  0  0  0
   20.1120   18.2912   23.7230 C   0  0  0  0  0  0  0  0  0  0  0  0
   19.2210   18.0462   24.3167 H   0  0  0  0  0  0  0  0  0  0  0  0
   20.2233   17.4853   22.9870 H   0  0  0  0  0  0  0  0  0  0  0  0
   21.3620   18.2700   24.6387 C   0  0  0  0  0  0  0  0  0  0  0  0
   22.2700   18.4212   24.0391 H   0  0  0  0  0  0  0  0  0  0  0  0
   21.4470   17.2579   25.0575 H   0  0  0  0  0  0  0  0  0  0  0  0
   21.3224   19.2763   25.8160 C   0  0  0  0  0  0  0  0  0  0  0  0
   20.2827   19.4987   26.0931 H   0  0  0  0  0  0  0  0  0  0  0  0
   21.7786   18.8046   26.6973 H   0  0  0  0  0  0  0  0  0  0  0  0
   22.0908   20.5844   25.5231 C   0  0  0  0  0  0  0  0  0  0  0  0
   21.6800   21.1137   24.6558 H   0  0  0  0  0  0  0  0  0  0  0  0
   22.0387   21.2618   26.3852 H   0  0  0  0  0  0  0  0  0  0  0  0
   23.1501   20.3777   25.3223 H   0  0  0  0  0  0  0  0  0  0  0  0
  1  2  1  0  0  0  0
  1  3  2  0  0  0  0
  1  4  1  0  0  0  0
  4  5  1  0  0  0  0
  4  6  1  0  0  0  0
  4  7  1  0  0  0  0
  7  8  1  0  0  0  0
  7  9  1  0  0  0  0
  7 10  1  0  0  0  0
 10 11  1  0  0  0  0
 10 12  1  0  0  0  0
 10 13  1  0  0  0  0
 13 14  1  0  0  0  0
 13 15  1  0  0  0  0
 13 16  1  0  0  0  0
 16 17  1  0  0  0  0
 16 18  1  0  0  0  0
 16 19  1  0  0  0  0
 19 20  1  0  0  0  0
 19 21  1  0  0  0  0
 19 22  1  0  0  0  0
 22 23  1  0  0  0  0
 22 24  1  0  0  0  0
 22 25  1  0  0  0  0
M  END
> <VConfSearch Rank>
32

> <Conf_Id>
19

> <Delta U+W>
3.222

> <U+W>
-48.407

> <U>
10.617

> <W>
-59.025

> <W(PB)>
-61.462

> <W(SA)>
2.437

> <Valence>
11.188

> <Coulomb>
-1.778

> <VdW>
1.208

> <VdW6>
-9.786

> <VdW12>
10.993

> <Bond>
0.241

> <Angle>
3.294

> <Pdih>
7.653

> <Idih>
0.001

> <Tether>
0.000

$$$$
VeraChem MOL file


 25 24  0  0  0  0  0  0  0  0999 V2000     
   17.4256   20.0343   20.1068 C   0  0  0  0  0  0  0  0  0  0  0  0
   17.9077   19.8654   19.0042 O   0  5  0  0  0  0  0  0  0  0  0  0
   16.4402   20.7148   20.3136 O   0  0  0  0  0  0  0  0  0  0  0  0
   18.1083   19.3749   21.2999 C   0  0  0  0  0  0  0  0  0  0  0  0
   18.5321   18.4248   20.9566 H   0  0  0  0  0  0  0  0  0  0  0  0
   17.3382   19.1383   22.0438 H   0  0  0  0  0  0  0  0  0  0  0  0
   19.2058   20.2703   21.9322 C   0  0  0  0  0  0  0  0  0  0  0  0
   19.9962   20.4616   21.1933 H   0  0  0  0  0  0  0  0  0  0  0  0
   18.7644   21.2472   22.1733 H   0  0  0  0  0  0  0  0  0  0  0  0
   19.8252   19.6776   23.2206 C   0  0  0  0  0  0  0  0  0  0  0  0
   19.0307   19.4637   23.9482 H   0  0  0  0  0  0  0  0  0  0  0  0
   20.4669   20.4462   23.6696 H   0  0  0  0  0  0  0  0  0  0  0  0
   20.6662   18.4030   22.9707 C   0  0  0  0  0  0  0  0  0  0  0  0
   20.0512   17.6515   22.4602 H   0  0  0  0  0  0  0  0  0  0  0  0
   21.4935   18.6403   22.2882 H   0  0  0  0  0  0  0  0  0  0  0  0
   21.2325   17.7534   24.2587 C   0  0  0  0  0  0  0  0  0  0  0  0
   21.7593   16.8363   23.9614 H   0  0  0  0  0  0  0  0  0  0  0  0
   20.4090   17.4263   24.9082 H   0  0  0  0  0  0  0  0  0  0  0  0
   22.2226   18.6413   25.0533 C   0  0  0  0  0  0  0  0  0  0  0  0
   23.0205   18.0033   25.4578 H   0  0  0  0  0  0  0  0  0  0  0  0
   22.7159   19.3576   24.3819 H   0  0  0  0  0  0  0  0  0  0  0  0
   21.5592   19.3833   26.2351 C   0  0  0  0  0  0  0  0  0  0  0  0
   21.1318   18.6705   26.9524 H   0  0  0  0  0  0  0  0  0  0  0  0
   22.2988   19.9938   26.7691 H   0  0  0  0  0  0  0  0  0  0  0  0
   20.7550   20.0481   25.9000 H   0  0  0  0  0  0  0  0  0  0  0  0
  1  2  1  0  0  0  0
  1  3  2  0  0  0  0
  1  4  1  0  0  0  0
  4  5  1  0  0  0  0
  4  6  1  0  0  0  0
  4  7  1  0  0  0  0
  7  8  1  0  0  0  0
  7  9  1  0  0  0  0
  7 10  1  0  0  0  0
 10 11  1  0  0  0  0
 10 12  1  0  0  0  0
 10 13  1  0  0  0  0
 13 14  1  0  0  0  0
 13 15  1  0  0  0  0
 13 16  1  0  0  0  0
 16 17  1  0  0  0  0
 16 18  1  0  0  0  0
 16 19  1  0  0  0  0
 19 20  1  0  0  0  0
 19 21  1  0  0  0  0
 19 22  1  0  0  0  0
 22 23  1  0  0  0  0
 22 24  1  0  0  0  0
 22 25  1  0  0  0  0
M  END
> <VConfSearch Rank>
33

> <Conf_Id>
20

> <Delta U+W>
3.224

> <U+W>
-48.406

> <U>
10.617

> <W>
-59.023

> <W(PB)>
-61.467

> <W(SA)>
2.444

> <Valence>
11.188

> <Coulomb>
-1.778

> <VdW>
1.208

> <VdW6>
-9.786

> <VdW12>
10.993

> <Bond>
0.241

> <Angle>
3.294

> <Pdih>
7.653

> <Idih>
0.001

> <Tether>
0.000

$$$$
VeraChem MOL file


 25 24  0  0  0  0  0  0  0  0999 V2000     
   21.2778   18.5830   26.3686 C   0  0  0  0  0  0  0  0  0  0  0  0
   20.4862   18.9147   27.2294 O   0  5  0  0  0  0  0  0  0  0  0  0
   22.2563   19.2387   26.0687 O   0  0  0  0  0  0  0  0  0  0  0  0
   21.0702   17.2398   25.6715 C   0  0  0  0  0  0  0  0  0  0  0  0
   21.1624   16.4721   26.4484 H   0  0  0  0  0  0  0  0  0  0  0  0
   21.8936   17.0731   24.9664 H   0  0  0  0  0  0  0  0  0  0  0  0
   19.7024   17.0700   24.9523 C   0  0  0  0  0  0  0  0  0  0  0  0
   19.5196   15.9949   24.8209 H   0  0  0  0  0  0  0  0  0  0  0  0
   18.8920   17.4374   25.5971 H   0  0  0  0  0  0  0  0  0  0  0  0
   19.6147   17.7371   23.5571 C   0  0  0  0  0  0  0  0  0  0  0  0
   18.6718   17.4249   23.0876 H   0  0  0  0  0  0  0  0  0  0  0  0
   20.4202   17.3567   22.9142 H   0  0  0  0  0  0  0  0  0  0  0  0
   19.6642   19.2814   23.5928 C   0  0  0  0  0  0  0  0  0  0  0  0
   18.9274   19.6575   24.3158 H   0  0  0  0  0  0  0  0  0  0  0  0
   20.6514   19.6148   23.9366 H   0  0  0  0  0  0  0  0  0  0  0  0
   19.3851   19.8941   22.2031 C   0  0  0  0  0  0  0  0  0  0  0  0
   18.3947   19.5736   21.8518 H   0  0  0  0  0  0  0  0  0  0  0  0
   20.1197   19.5131   21.4805 H   0  0  0  0  0  0  0  0  0  0  0  0
   19.4455   21.4357   22.2352 C   0  0  0  0  0  0  0  0  0  0  0  0
   18.7111   21.8200   22.9566 H   0  0  0  0  0  0  0  0  0  0  0  0
   20.4356   21.7601   22.5846 H   0  0  0  0  0  0  0  0  0  0  0  0
   19.1670   22.0446   20.8462 C   0  0  0  0  0  0  0  0  0  0  0  0
   18.1692   21.7616   20.4862 H   0  0  0  0  0  0  0  0  0  0  0  0
   19.2140   23.1406   20.8877 H   0  0  0  0  0  0  0  0  0  0  0  0
   19.9068   21.7012   20.1113 H   0  0  0  0  0  0  0  0  0  0  0  0
  1  2  1  0  0  0  0
  1  3  2  0  0  0  0
  1  4  1  0  0  0  0
  4  5  1  0  0  0  0
  4  6  1  0  0  0  0
  4  7  1  0  0  0  0
  7  8  1  0  0  0  0
  7  9  1  0  0  0  0
  7 10  1  0  0  0  0
 10 11  1  0  0  0  0
 10 12  1  0  0  0  0
 10 13  1  0  0  0  0
 13 14  1  0  0  0  0
 13 15  1  0  0  0  0
 13 16  1  0  0  0  0
 16 17  1  0  0  0  0
 16 18  1  0  0  0  0
 16 19  1  0  0  0  0
 19 20  1  0  0  0  0
 19 21  1  0  0  0  0
 19 22  1  0  0  0  0
 22 23  1  0  0  0  0
 22 24  1  0  0  0  0
 22 25  1  0  0  0  0
M  END
> <VConfSearch Rank>
34

> <Conf_Id>
24

> <Delta U+W>
1.784

> <U+W>
-49.846

> <U>
10.904

> <W>
-60.749

> <W(PB)>
-63.220

> <W(SA)>
2.471

> <Valence>
9.445

> <Coulomb>
0.780

> <VdW>
0.679

> <VdW6>
-10.008

> <VdW12>
10.687

> <Bond>
0.201

> <Angle>
3.198

> <Pdih>
6.039

> <Idih>
0.006

> <Tether>
0.000

$$$$
VeraChem MOL file


 25 24  0  0  0  0  0  0  0  0999 V2000     
   18.4311   20.7114   25.6610 C   0  0  0  0  0  0  0  0  0  0  0  0
   19.0645   21.7283   25.8665 O   0  5  0  0  0  0  0  0  0  0  0  0
   17.4582   20.6627   24.9341 O   0  0  0  0  0  0  0  0  0  0  0  0
   18.8369   19.4414   26.4064 C   0  0  0  0  0  0  0  0  0  0  0  0
   18.1373   18.6373   26.1479 H   0  0  0  0  0  0  0  0  0  0  0  0
   18.6936   19.6509   27.4727 H   0  0  0  0  0  0  0  0  0  0  0  0
   20.3021   18.9758   26.1747 C   0  0  0  0  0  0  0  0  0  0  0  0
   20.9822   19.8370   26.2319 H   0  0  0  0  0  0  0  0  0  0  0  0
   20.5828   18.3139   27.0051 H   0  0  0  0  0  0  0  0  0  0  0  0
   20.5364   18.2009   24.8542 C   0  0  0  0  0  0  0  0  0  0  0  0
   19.8620   17.3348   24.8091 H   0  0  0  0  0  0  0  0  0  0  0  0
   21.5576   17.7961   24.8720 H   0  0  0  0  0  0  0  0  0  0  0  0
   20.3648   19.0595   23.5807 C   0  0  0  0  0  0  0  0  0  0  0  0
   19.3161   19.3650   23.4756 H   0  0  0  0  0  0  0  0  0  0  0  0
   20.9602   19.9783   23.6722 H   0  0  0  0  0  0  0  0  0  0  0  0
   20.7915   18.2905   22.3114 C   0  0  0  0  0  0  0  0  0  0  0  0
   20.1986   17.3697   22.2242 H   0  0  0  0  0  0  0  0  0  0  0  0
   21.8434   17.9865   22.4016 H   0  0  0  0  0  0  0  0  0  0  0  0
   20.6098   19.1429   21.0380 C   0  0  0  0  0  0  0  0  0  0  0  0
   19.5581   19.4474   20.9435 H   0  0  0  0  0  0  0  0  0  0  0  0
   21.2023   20.0646   21.1218 H   0  0  0  0  0  0  0  0  0  0  0  0
   21.0362   18.3724   19.7723 C   0  0  0  0  0  0  0  0  0  0  0  0
   20.4372   17.4609   19.6469 H   0  0  0  0  0  0  0  0  0  0  0  0
   20.9003   18.9932   18.8772 H   0  0  0  0  0  0  0  0  0  0  0  0
   22.0939   18.0828   19.8265 H   0  0  0  0  0  0  0  0  0  0  0  0
  1  2  1  0  0  0  0
  1  3  2  0  0  0  0
  1  4  1  0  0  0  0
  4  5  1  0  0  0  0
  4  6  1  0  0  0  0
  4  7  1  0  0  0  0
  7  8  1  0  0  0  0
  7  9  1  0  0  0  0
  7 10  1  0  0  0  0
 10 11  1  0  0  0  0
 10 12  1  0  0  0  0
 10 13  1  0  0  0  0
 13 14  1  0  0  0  0
 13 15  1  0  0  0  0
 13 16  1  0  0  0  0
 16 17  1  0  0  0  0
 16 18  1  0  0  0  0
 16 19  1  0  0  0  0
 19 20  1  0  0  0  0
 19 21  1  0  0  0  0
 19 22  1  0  0  0  0
 22 23  1  0  0  0  0
 22 24  1  0  0  0  0
 22 25  1  0  0  0  0
M  END
> <VConfSearch Rank>
35

> <Conf_Id>
9

> <Delta U+W>
1.764

> <U+W>
-49.865

> <U>
10.902

> <W>
-60.768

> <W(PB)>
-63.223

> <W(SA)>
2.456

> <Valence>
9.445

> <Coulomb>
0.778

> <VdW>
0.679

> <VdW6>
-10.007

> <VdW12>
10.687

> <Bond>
0.201

> <Angle>
3.198

> <Pdih>
6.040

> <Idih>
0.006

> <Tether>
0.000

$$$$
VeraChem MOL file


 25 24  0  0  0  0  0  0  0  0999 V2000     
   21.8894   21.8775   21.7677 C   0  0  0  0  0  0  0  0  0  0  0  0
   21.8024   22.5799   22.7555 O   0  5  0  0  0  0  0  0  0  0  0  0
   22.6700   22.0860   20.8600 O   0  0  0  0  0  0  0  0  0  0  0  0
   20.9835   20.6553   21.6710 C   0  0  0  0  0  0  0  0  0  0  0  0
   20.7460   20.4937   20.6129 H   0  0  0  0  0  0  0  0  0  0  0  0
   20.0428   20.8954   22.1759 H   0  0  0  0  0  0  0  0  0  0  0  0
   21.6317   19.3797   22.2713 C   0  0  0  0  0  0  0  0  0  0  0  0
   22.5639   19.1849   21.7232 H   0  0  0  0  0  0  0  0  0  0  0  0
   21.9233   19.5589   23.3155 H   0  0  0  0  0  0  0  0  0  0  0  0
   20.7288   18.1237   22.1746 C   0  0  0  0  0  0  0  0  0  0  0  0
   21.3743   17.2521   21.9997 H   0  0  0  0  0  0  0  0  0  0  0  0
   20.0742   18.1912   21.2949 H   0  0  0  0  0  0  0  0  0  0  0  0
   19.8885   17.8323   23.4434 C   0  0  0  0  0  0  0  0  0  0  0  0
   19.3576   16.8822   23.2947 H   0  0  0  0  0  0  0  0  0  0  0  0
   20.5657   17.6782   24.2937 H   0  0  0  0  0  0  0  0  0  0  0  0
   18.8587   18.9334   23.7900 C   0  0  0  0  0  0  0  0  0  0  0  0
   18.2877   19.1888   22.8872 H   0  0  0  0  0  0  0  0  0  0  0  0
   19.3824   19.8455   24.1047 H   0  0  0  0  0  0  0  0  0  0  0  0
   17.8659   18.5150   24.8995 C   0  0  0  0  0  0  0  0  0  0  0  0
   17.1130   19.3067   25.0161 H   0  0  0  0  0  0  0  0  0  0  0  0
   17.3214   17.6125   24.5894 H   0  0  0  0  0  0  0  0  0  0  0  0
   18.5454   18.2685   26.2639 C   0  0  0  0  0  0  0  0  0  0  0  0
   19.1172   19.1497   26.5827 H   0  0  0  0  0  0  0  0  0  0  0  0
   17.7934   18.0562   27.0349 H   0  0  0  0  0  0  0  0  0  0  0  0
   19.2290   17.4114   26.2212 H   0  0  0  0  0  0  0  0  0  0  0  0
  1  2  1  0  0  0  0
  1  3  2  0  0  0  0
  1  4  1  0  0  0  0
  4  5  1  0  0  0  0
  4  6  1  0  0  0  0
  4  7  1  0  0  0  0
  7  8  1  0  0  0  0
  7  9  1  0  0  0  0
  7 10  1  0  0  0  0
 10 11  1  0  0  0  0
 10 12  1  0  0  0  0
 10 13  1  0  0  0  0
 13 14  1  0  0  0  0
 13 15  1  0  0  0  0
 13 16  1  0  0  0  0
 16 17  1  0  0  0  0
 16 18  1  0  0  0  0
 16 19  1  0  0  0  0
 19 20  1  0  0  0  0
 19 21  1  0  0  0  0
 19 22  1  0  0  0  0
 22 23  1  0  0  0  0
 22 24  1  0  0  0  0
 22 25  1  0  0  0  0
M  END
> <VConfSearch Rank>
36

> <Conf_Id>
89

> <Delta U+W>
2.903

> <U+W>
-48.726

> <U>
10.996

> <W>
-59.723

> <W(PB)>
-62.151

> <W(SA)>
2.428

> <Valence>
10.985

> <Coulomb>
-0.995

> <VdW>
1.006

> <VdW6>
-10.062

> <VdW12>
11.069

> <Bond>
0.238

> <Angle>
3.202

> <Pdih>
7.544

> <Idih>
0.001

> <Tether>
0.000

$$$$
VeraChem MOL file


 25 24  0  0  0  0  0  0  0  0999 V2000     
   19.0961   16.2046   25.2304 C   0  0  0  0  0  0  0  0  0  0  0  0
   20.0410   15.4842   24.9748 O   0  5  0  0  0  0  0  0  0  0  0  0
   18.8326   16.5923   26.3519 O   0  0  0  0  0  0  0  0  0  0  0  0
   18.1549   16.5889   24.0903 C   0  0  0  0  0  0  0  0  0  0  0  0
   17.1857   16.1342   24.3257 H   0  0  0  0  0  0  0  0  0  0  0  0
   18.5054   16.1180   23.1639 H   0  0  0  0  0  0  0  0  0  0  0  0
   17.9581   18.1165   23.8779 C   0  0  0  0  0  0  0  0  0  0  0  0
   17.0154   18.2629   23.3335 H   0  0  0  0  0  0  0  0  0  0  0  0
   17.8268   18.6166   24.8476 H   0  0  0  0  0  0  0  0  0  0  0  0
   19.0808   18.8128   23.0688 C   0  0  0  0  0  0  0  0  0  0  0  0
   18.7445   19.8325   22.8439 H   0  0  0  0  0  0  0  0  0  0  0  0
   19.2061   18.3083   22.1012 H   0  0  0  0  0  0  0  0  0  0  0  0
   20.4420   18.8736   23.8037 C   0  0  0  0  0  0  0  0  0  0  0  0
   20.3104   19.3225   24.7976 H   0  0  0  0  0  0  0  0  0  0  0  0
   20.8094   17.8534   23.9684 H   0  0  0  0  0  0  0  0  0  0  0  0
   21.5320   19.6468   23.0230 C   0  0  0  0  0  0  0  0  0  0  0  0
   21.6396   19.2174   22.0176 H   0  0  0  0  0  0  0  0  0  0  0  0
   22.4944   19.4933   23.5300 H   0  0  0  0  0  0  0  0  0  0  0  0
   21.2614   21.1651   22.9179 C   0  0  0  0  0  0  0  0  0  0  0  0
   20.3453   21.3493   22.3420 H   0  0  0  0  0  0  0  0  0  0  0  0
   21.0990   21.5827   23.9211 H   0  0  0  0  0  0  0  0  0  0  0  0
   22.4342   21.9024   22.2405 C   0  0  0  0  0  0  0  0  0  0  0  0
   22.6018   21.5227   21.2241 H   0  0  0  0  0  0  0  0  0  0  0  0
   22.2262   22.9780   22.1705 H   0  0  0  0  0  0  0  0  0  0  0  0
   23.3627   21.7737   22.8122 H   0  0  0  0  0  0  0  0  0  0  0  0
  1  2  1  0  0  0  0
  1  3  2  0  0  0  0
  1  4  1  0  0  0  0
  4  5  1  0  0  0  0
  4  6  1  0  0  0  0
  4  7  1  0  0  0  0
  7  8  1  0  0  0  0
  7  9  1  0  0  0  0
  7 10  1  0  0  0  0
 10 11  1  0  0  0  0
 10 12  1  0  0  0  0
 10 13  1  0  0  0  0
 13 14  1  0  0  0  0
 13 15  1  0  0  0  0
 13 16  1  0  0  0  0
 16 17  1  0  0  0  0
 16 18  1  0  0  0  0
 16 19  1  0  0  0  0
 19 20  1  0  0  0  0
 19 21  1  0  0  0  0
 19 22  1  0  0  0  0
 22 23  1  0  0  0  0
 22 24  1  0  0  0  0
 22 25  1  0  0  0  0
M  END
> <VConfSearch Rank>
37

> <Conf_Id>
114

> <Delta U+W>
2.758

> <U+W>
-48.871

> <U>
11.422

> <W>
-60.293

> <W(PB)>
-62.719

> <W(SA)>
2.425

> <Valence>
10.135

> <Coulomb>
0.369

> <VdW>
0.918

> <VdW6>
-10.482

> <VdW12>
11.400

> <Bond>
0.245

> <Angle>
3.539

> <Pdih>
6.346

> <Idih>
0.006

> <Tether>
0.000

$$$$
VeraChem MOL file


 25 24  0  0  0  0  0  0  0  0999 V2000     
   23.3094   18.2614   25.4748 C   0  0  0  0  0  0  0  0  0  0  0  0
   22.9037   18.0734   26.6049 O   0  5  0  0  0  0  0  0  0  0  0  0
   23.8758   17.4134   24.8136 O   0  0  0  0  0  0  0  0  0  0  0  0
   23.1165   19.6437   24.8578 C   0  0  0  0  0  0  0  0  0  0  0  0
   24.0642   19.9277   24.3854 H   0  0  0  0  0  0  0  0  0  0  0  0
   22.9353   20.3647   25.6640 H   0  0  0  0  0  0  0  0  0  0  0  0
   21.9747   19.7114   23.8105 C   0  0  0  0  0  0  0  0  0  0  0  0
   21.9916   20.6978   23.3278 H   0  0  0  0  0  0  0  0  0  0  0  0
   22.1696   18.9696   23.0250 H   0  0  0  0  0  0  0  0  0  0  0  0
   20.5806   19.4738   24.4391 C   0  0  0  0  0  0  0  0  0  0  0  0
   20.4483   20.1654   25.2822 H   0  0  0  0  0  0  0  0  0  0  0  0
   20.5282   18.4602   24.8601 H   0  0  0  0  0  0  0  0  0  0  0  0
   19.4108   19.6811   23.4475 C   0  0  0  0  0  0  0  0  0  0  0  0
   18.4732   19.6360   24.0159 H   0  0  0  0  0  0  0  0  0  0  0  0
   19.4665   20.6906   23.0182 H   0  0  0  0  0  0  0  0  0  0  0  0
   19.3730   18.6304   22.3104 C   0  0  0  0  0  0  0  0  0  0  0  0
   19.3209   17.6209   22.7404 H   0  0  0  0  0  0  0  0  0  0  0  0
   20.3082   18.6774   21.7383 H   0  0  0  0  0  0  0  0  0  0  0  0
   18.1988   18.8340   21.3243 C   0  0  0  0  0  0  0  0  0  0  0  0
   18.2411   19.8470   20.9009 H   0  0  0  0  0  0  0  0  0  0  0  0
   18.3239   18.1404   20.4814 H   0  0  0  0  0  0  0  0  0  0  0  0
   16.8127   18.5933   21.9613 C   0  0  0  0  0  0  0  0  0  0  0  0
   16.0248   18.6556   21.1995 H   0  0  0  0  0  0  0  0  0  0  0  0
   16.7592   17.5982   22.4217 H   0  0  0  0  0  0  0  0  0  0  0  0
   16.5887   19.3420   22.7311 H   0  0  0  0  0  0  0  0  0  0  0  0
  1  2  1  0  0  0  0
  1  3  2  0  0  0  0
  1  4  1  0  0  0  0
  4  5  1  0  0  0  0
  4  6  1  0  0  0  0
  4  7  1  0  0  0  0
  7  8  1  0  0  0  0
  7  9  1  0  0  0  0
  7 10  1  0  0  0  0
 10 11  1  0  0  0  0
 10 12  1  0  0  0  0
 10 13  1  0  0  0  0
 13 14  1  0  0  0  0
 13 15  1  0  0  0  0
 13 16  1  0  0  0  0
 16 17  1  0  0  0  0
 16 18  1  0  0  0  0
 16 19  1  0  0  0  0
 19 20  1  0  0  0  0
 19 21  1  0  0  0  0
 19 22  1  0  0  0  0
 22 23  1  0  0  0  0
 22 24  1  0  0  0  0
 22 25  1  0  0  0  0
M  END
> <VConfSearch Rank>
38

> <Conf_Id>
87

> <Delta U+W>
1.453

> <U+W>
-50.176

> <U>
9.763

> <W>
-59.940

> <W(PB)>
-62.392

> <W(SA)>
2.452

> <Valence>
8.883

> <Coulomb>
-0.122

> <VdW>
1.003

> <VdW6>
-9.782

> <VdW12>
10.785

> <Bond>
0.212

> <Angle>
2.940

> <Pdih>
5.730

> <Idih>
0.001

> <Tether>
0.000

$$$$
VeraChem MOL file


 25 24  0  0  0  0  0  0  0  0999 V2000     
   17.9298   18.4859   26.6168 C   0  0  0  0  0  0  0  0  0  0  0  0
   16.9116   19.1025   26.3724 O   0  5  0  0  0  0  0  0  0  0  0  0
   17.9600   17.4772   27.2937 O   0  0  0  0  0  0  0  0  0  0  0  0
   19.2396   18.9959   26.0262 C   0  0  0  0  0  0  0  0  0  0  0  0
   20.0464   18.7552   26.7287 H   0  0  0  0  0  0  0  0  0  0  0  0
   19.1812   20.0890   25.9611 H   0  0  0  0  0  0  0  0  0  0  0  0
   19.5456   18.3939   24.6327 C   0  0  0  0  0  0  0  0  0  0  0  0
   19.5926   17.2990   24.7119 H   0  0  0  0  0  0  0  0  0  0  0  0
   18.7158   18.6308   23.9536 H   0  0  0  0  0  0  0  0  0  0  0  0
   20.8744   18.9326   24.0543 C   0  0  0  0  0  0  0  0  0  0  0  0
   21.6799   18.7484   24.7780 H   0  0  0  0  0  0  0  0  0  0  0  0
   20.8139   20.0226   23.9372 H   0  0  0  0  0  0  0  0  0  0  0  0
   21.2704   18.2787   22.7067 C   0  0  0  0  0  0  0  0  0  0  0  0
   22.2481   18.6701   22.3965 H   0  0  0  0  0  0  0  0  0  0  0  0
   21.4187   17.2020   22.8658 H   0  0  0  0  0  0  0  0  0  0  0  0
   20.2525   18.4724   21.5516 C   0  0  0  0  0  0  0  0  0  0  0  0
   19.3240   17.9384   21.7921 H   0  0  0  0  0  0  0  0  0  0  0  0
   20.6493   17.9853   20.6506 H   0  0  0  0  0  0  0  0  0  0  0  0
   19.9116   19.9446   21.2131 C   0  0  0  0  0  0  0  0  0  0  0  0
   19.1684   19.9548   20.4041 H   0  0  0  0  0  0  0  0  0  0  0  0
   19.4305   20.4284   22.0735 H   0  0  0  0  0  0  0  0  0  0  0  0
   21.1397   20.7691   20.7704 C   0  0  0  0  0  0  0  0  0  0  0  0
   21.6461   20.2938   19.9204 H   0  0  0  0  0  0  0  0  0  0  0  0
   20.8349   21.7776   20.4626 H   0  0  0  0  0  0  0  0  0  0  0  0
   21.8640   20.8751   21.5878 H   0  0  0  0  0  0  0  0  0  0  0  0
  1  2  1  0  0  0  0
  1  3  2  0  0  0  0
  1  4  1  0  0  0  0
  4  5  1  0  0  0  0
  4  6  1  0  0  0  0
  4  7  1  0  0  0  0
  7  8  1  0  0  0  0
  7  9  1  0  0  0  0
  7 10  1  0  0  0  0
 10 11  1  0  0  0  0
 10 12  1  0  0  0  0
 10 13  1  0  0  0  0
 13 14  1  0  0  0  0
 13 15  1  0  0  0  0
 13 16  1  0  0  0  0
 16 17  1  0  0  0  0
 16 18  1  0  0  0  0
 16 19  1  0  0  0  0
 19 20  1  0  0  0  0
 19 21  1  0  0  0  0
 19 22  1  0  0  0  0
 22 23  1  0  0  0  0
 22 24  1  0  0  0  0
 22 25  1  0  0  0  0
M  END
> <VConfSearch Rank>
39

> <Conf_Id>
29

> <Delta U+W>
0.850

> <U+W>
-50.780

> <U>
8.646

> <W>
-59.426

> <W(PB)>
-61.868

> <W(SA)>
2.442

> <Valence>
8.924

> <Coulomb>
-1.171

> <VdW>
0.894

> <VdW6>
-10.223

> <VdW12>
11.117

> <Bond>
0.231

> <Angle>
3.232

> <Pdih>
5.461

> <Idih>
0.001

> <Tether>
0.000

$$$$
VeraChem MOL file


 25 24  0  0  0  0  0  0  0  0999 V2000     
   17.5759   22.3114   23.4458 C   0  0  0  0  0  0  0  0  0  0  0  0
   17.4873   22.5187   24.6399 O   0  5  0  0  0  0  0  0  0  0  0  0
   16.6794   22.5326   22.6558 O   0  0  0  0  0  0  0  0  0  0  0  0
   18.8772   21.7237   22.9116 C   0  0  0  0  0  0  0  0  0  0  0  0
   19.6995   22.0933   23.5360 H   0  0  0  0  0  0  0  0  0  0  0  0
   19.0372   22.1144   21.8996 H   0  0  0  0  0  0  0  0  0  0  0  0
   18.8750   20.1753   22.8938 C   0  0  0  0  0  0  0  0  0  0  0  0
   18.6936   19.8088   23.9128 H   0  0  0  0  0  0  0  0  0  0  0  0
   18.0419   19.8199   22.2720 H   0  0  0  0  0  0  0  0  0  0  0  0
   20.2078   19.6060   22.3551 C   0  0  0  0  0  0  0  0  0  0  0  0
   21.0368   19.9277   22.9991 H   0  0  0  0  0  0  0  0  0  0  0  0
   20.4064   20.0376   21.3647 H   0  0  0  0  0  0  0  0  0  0  0  0
   20.2107   18.0622   22.2239 C   0  0  0  0  0  0  0  0  0  0  0  0
   19.4368   17.7668   21.5026 H   0  0  0  0  0  0  0  0  0  0  0  0
   21.1645   17.7458   21.7817 H   0  0  0  0  0  0  0  0  0  0  0  0
   19.9774   17.2842   23.5460 C   0  0  0  0  0  0  0  0  0  0  0  0
   20.0206   16.2080   23.3307 H   0  0  0  0  0  0  0  0  0  0  0  0
   18.9569   17.4737   23.9039 H   0  0  0  0  0  0  0  0  0  0  0  0
   20.9763   17.6051   24.6851 C   0  0  0  0  0  0  0  0  0  0  0  0
   20.8878   18.6593   24.9793 H   0  0  0  0  0  0  0  0  0  0  0  0
   20.6978   17.0180   25.5709 H   0  0  0  0  0  0  0  0  0  0  0  0
   22.4421   17.2871   24.3187 C   0  0  0  0  0  0  0  0  0  0  0  0
   22.7974   17.9296   23.5032 H   0  0  0  0  0  0  0  0  0  0  0  0
   23.0987   17.4518   25.1827 H   0  0  0  0  0  0  0  0  0  0  0  0
   22.5505   16.2407   24.0053 H   0  0  0  0  0  0  0  0  0  0  0  0
  1  2  1  0  0  0  0
  1  3  2  0  0  0  0
  1  4  1  0  0  0  0
  4  5  1  0  0  0  0
  4  6  1  0  0  0  0
  4  7  1  0  0  0  0
  7  8  1  0  0  0  0
  7  9  1  0  0  0  0
  7 10  1  0  0  0  0
 10 11  1  0  0  0  0
 10 12  1  0  0  0  0
 10 13  1  0  0  0  0
 13 14  1  0  0  0  0
 13 15  1  0  0  0  0
 13 16  1  0  0  0  0
 16 17  1  0  0  0  0
 16 18  1  0  0  0  0
 16 19  1  0  0  0  0
 19 20  1  0  0  0  0
 19 21  1  0  0  0  0
 19 22  1  0  0  0  0
 22 23  1  0  0  0  0
 22 24  1  0  0  0  0
 22 25  1  0  0  0  0
M  END
> <VConfSearch Rank>
40

> <Conf_Id>
30

> <Delta U+W>
0.843

> <U+W>
-50.787

> <U>
8.647

> <W>
-59.434

> <W(PB)>
-61.861

> <W(SA)>
2.428

> <Valence>
8.924

> <Coulomb>
-1.170

> <VdW>
0.894

> <VdW6>
-10.224

> <VdW12>
11.118

> <Bond>
0.231

> <Angle>
3.232

> <Pdih>
5.460

> <Idih>
0.000

> <Tether>
0.000

$$$$
VeraChem MOL file


 25 24  0  0  0  0  0  0  0  0999 V2000     
   16.8669   20.9656   20.1889 C   0  0  0  0  0  0  0  0  0  0  0  0
   16.1406   21.3434   21.0880 O   0  5  0  0  0  0  0  0  0  0  0  0
   16.6069   21.1274   19.0132 O   0  0  0  0  0  0  0  0  0  0  0  0
   18.1765   20.2492   20.5220 C   0  0  0  0  0  0  0  0  0  0  0  0
   18.9887   20.8197   20.0563 H   0  0  0  0  0  0  0  0  0  0  0  0
   18.1482   19.2703   20.0292 H   0  0  0  0  0  0  0  0  0  0  0  0
   18.4648   20.0663   22.0359 C   0  0  0  0  0  0  0  0  0  0  0  0
   18.4854   21.0503   22.5245 H   0  0  0  0  0  0  0  0  0  0  0  0
   17.6442   19.4995   22.4973 H   0  0  0  0  0  0  0  0  0  0  0  0
   19.8030   19.3360   22.2817 C   0  0  0  0  0  0  0  0  0  0  0  0
   20.6219   19.9043   21.8195 H   0  0  0  0  0  0  0  0  0  0  0  0
   19.7801   18.3525   21.7923 H   0  0  0  0  0  0  0  0  0  0  0  0
   20.0877   19.1551   23.7882 C   0  0  0  0  0  0  0  0  0  0  0  0
   20.1108   20.1384   24.2779 H   0  0  0  0  0  0  0  0  0  0  0  0
   19.2691   18.5868   24.2507 H   0  0  0  0  0  0  0  0  0  0  0  0
   21.4257   18.4250   24.0347 C   0  0  0  0  0  0  0  0  0  0  0  0
   22.2445   18.9932   23.5723 H   0  0  0  0  0  0  0  0  0  0  0  0
   21.4028   17.4416   23.5452 H   0  0  0  0  0  0  0  0  0  0  0  0
   21.7104   18.2442   25.5405 C   0  0  0  0  0  0  0  0  0  0  0  0
   21.7359   19.2260   26.0332 H   0  0  0  0  0  0  0  0  0  0  0  0
   20.8942   17.6745   26.0061 H   0  0  0  0  0  0  0  0  0  0  0  0
   23.0472   17.5147   25.7824 C   0  0  0  0  0  0  0  0  0  0  0  0
   23.8858   18.0792   25.3540 H   0  0  0  0  0  0  0  0  0  0  0  0
   23.2335   17.3949   26.8576 H   0  0  0  0  0  0  0  0  0  0  0  0
   23.0378   16.5159   25.3267 H   0  0  0  0  0  0  0  0  0  0  0  0
  1  2  1  0  0  0  0
  1  3  2  0  0  0  0
  1  4  1  0  0  0  0
  4  5  1  0  0  0  0
  4  6  1  0  0  0  0
  4  7  1  0  0  0  0
  7  8  1  0  0  0  0
  7  9  1  0  0  0  0
  7 10  1  0  0  0  0
 10 11  1  0  0  0  0
 10 12  1  0  0  0  0
 10 13  1  0  0  0  0
 13 14  1  0  0  0  0
 13 15  1  0  0  0  0
 13 16  1  0  0  0  0
 16 17  1  0  0  0  0
 16 18  1  0  0  0  0
 16 19  1  0  0  0  0
 19 20  1  0  0  0  0
 19 21  1  0  0  0  0
 19 22  1  0  0  0  0
 22 23  1  0  0  0  0
 22 24  1  0  0  0  0
 22 25  1  0  0  0  0
M  END
> <VConfSearch Rank>
41

> <Conf_Id>
0

> <Delta U+W>
0.000

> <U+W>
-51.629

> <U>
6.586

> <W>
-58.216

> <W(PB)>
-60.757

> <W(SA)>
2.541

> <Valence>
8.027

> <Coulomb>
-2.892

> <VdW>
1.451

> <VdW6>
-7.931

> <VdW12>
9.383

> <Bond>
0.149

> <Angle>
2.726

> <Pdih>
5.152

> <Idih>
0.000

> <Tether>
0.000

$$$$
VeraChem MOL file


 25 24  0  0  0  0  0  0  0  0999 V2000     
   19.3625   20.1917   27.6313 C   0  0  0  0  0  0  0  0  0  0  0  0
   18.6243   21.1405   27.8088 O   0  5  0  0  0  0  0  0  0  0  0  0
   19.4324   19.2423   28.3864 O   0  0  0  0  0  0  0  0  0  0  0  0
   20.2326   20.1812   26.3795 C   0  0  0  0  0  0  0  0  0  0  0  0
   21.1642   19.6535   26.6166 H   0  0  0  0  0  0  0  0  0  0  0  0
   20.4988   21.2180   26.1410 H   0  0  0  0  0  0  0  0  0  0  0  0
   19.5348   19.5160   25.1677 C   0  0  0  0  0  0  0  0  0  0  0  0
   19.2631   18.4833   25.4273 H   0  0  0  0  0  0  0  0  0  0  0  0
   18.5976   20.0476   24.9518 H   0  0  0  0  0  0  0  0  0  0  0  0
   20.4352   19.5178   23.9134 C   0  0  0  0  0  0  0  0  0  0  0  0
   21.3716   18.9866   24.1329 H   0  0  0  0  0  0  0  0  0  0  0  0
   20.7061   20.5514   23.6574 H   0  0  0  0  0  0  0  0  0  0  0  0
   19.7369   18.8542   22.7070 C   0  0  0  0  0  0  0  0  0  0  0  0
   19.4660   17.8206   22.9628 H   0  0  0  0  0  0  0  0  0  0  0  0
   18.8005   19.3853   22.4874 H   0  0  0  0  0  0  0  0  0  0  0  0
   20.6367   18.8558   21.4524 C   0  0  0  0  0  0  0  0  0  0  0  0
   21.5732   18.3247   21.6717 H   0  0  0  0  0  0  0  0  0  0  0  0
   20.9078   19.8892   21.1963 H   0  0  0  0  0  0  0  0  0  0  0  0
   19.9388   18.1926   20.2464 C   0  0  0  0  0  0  0  0  0  0  0  0
   19.6678   17.1579   20.4982 H   0  0  0  0  0  0  0  0  0  0  0  0
   19.0024   18.7224   20.0229 H   0  0  0  0  0  0  0  0  0  0  0  0
   20.8405   18.1961   18.9956 C   0  0  0  0  0  0  0  0  0  0  0  0
   20.3289   17.7211   18.1484 H   0  0  0  0  0  0  0  0  0  0  0  0
   21.1015   19.2214   18.7023 H   0  0  0  0  0  0  0  0  0  0  0  0
   21.7718   17.6450   19.1812 H   0  0  0  0  0  0  0  0  0  0  0  0
  1  2  1  0  0  0  0
  1  3  2  0  0  0  0
  1  4  1  0  0  0  0
  4  5  1  0  0  0  0
  4  6  1  0  0  0  0
  4  7  1  0  0  0  0
  7  8  1  0  0  0  0
  7  9  1  0  0  0  0
  7 10  1  0  0  0  0
 10 11  1  0  0  0  0
 10 12  1  0  0  0  0
 10 13  1  0  0  0  0
 13 14  1  0  0  0  0
 13 15  1  0  0  0  0
 13 16  1  0  0  0  0
 16 17  1  0  0  0  0
 16 18  1  0  0  0  0
 16 19  1  0  0  0  0
 19 20  1  0  0  0  0
 19 21  1  0  0  0  0
 19 22  1  0  0  0  0
 22 23  1  0  0  0  0
 22 24  1  0  0  0  0
 22 25  1  0  0  0  0
M  END
> <VConfSearch Rank>
42

> <Conf_Id>
27

> <Delta U+W>
-1.297

> <U+W>
-52.926

> <U>
5.617

> <W>
-58.543

> <W(PB)>
-61.065

> <W(SA)>
2.522

> <Valence>
7.531

> <Coulomb>
-2.818

> <VdW>
0.904

> <VdW6>
-7.640

> <VdW12>
8.544

> <Bond>
0.115

> <Angle>
2.271

> <Pdih>
5.144

> <Idih>
0.001

> <Tether>
0.000

$$$$
VeraChem MOL file


 25 24  0  0  0  0  0  0  0  0999 V2000     
   16.9613   19.6995   21.0602 C   0  0  0  0  0  0  0  0  0  0  0  0
   16.7400   20.8721   20.8297 O   0  5  0  0  0  0  0  0  0  0  0  0
   17.2844   18.8956   20.2080 O   0  0  0  0  0  0  0  0  0  0  0  0
   16.8079   19.2082   22.4969 C   0  0  0  0  0  0  0  0  0  0  0  0
   16.6991   18.1169   22.4839 H   0  0  0  0  0  0  0  0  0  0  0  0
   15.8671   19.6165   22.8843 H   0  0  0  0  0  0  0  0  0  0  0  0
   17.9751   19.6192   23.4316 C   0  0  0  0  0  0  0  0  0  0  0  0
   18.0892   20.7120   23.4124 H   0  0  0  0  0  0  0  0  0  0  0  0
   17.7179   19.3463   24.4641 H   0  0  0  0  0  0  0  0  0  0  0  0
   19.3114   18.9465   23.0447 C   0  0  0  0  0  0  0  0  0  0  0  0
   19.5845   19.2289   22.0185 H   0  0  0  0  0  0  0  0  0  0  0  0
   19.1884   17.8548   23.0523 H   0  0  0  0  0  0  0  0  0  0  0  0
   20.4514   19.3444   24.0068 C   0  0  0  0  0  0  0  0  0  0  0  0
   20.5736   20.4363   23.9985 H   0  0  0  0  0  0  0  0  0  0  0  0
   20.1818   19.0603   25.0332 H   0  0  0  0  0  0  0  0  0  0  0  0
   21.7871   18.6733   23.6203 C   0  0  0  0  0  0  0  0  0  0  0  0
   22.0569   18.9573   22.5938 H   0  0  0  0  0  0  0  0  0  0  0  0
   21.6651   17.5815   23.6281 H   0  0  0  0  0  0  0  0  0  0  0  0
   22.9271   19.0712   24.5813 C   0  0  0  0  0  0  0  0  0  0  0  0
   23.0533   20.1627   24.5746 H   0  0  0  0  0  0  0  0  0  0  0  0
   22.6615   18.7868   25.6090 H   0  0  0  0  0  0  0  0  0  0  0  0
   24.2591   18.3991   24.1918 C   0  0  0  0  0  0  0  0  0  0  0  0
   24.5651   18.6915   23.1787 H   0  0  0  0  0  0  0  0  0  0  0  0
   25.0579   18.6928   24.8851 H   0  0  0  0  0  0  0  0  0  0  0  0
   24.1704   17.3052   24.2208 H   0  0  0  0  0  0  0  0  0  0  0  0
  1  2  1  0  0  0  0
  1  3  2  0  0  0  0
  1  4  1  0  0  0  0
  4  5  1  0  0  0  0
  4  6  1  0  0  0  0
  4  7  1  0  0  0  0
  7  8  1  0  0  0  0
  7  9  1  0  0  0  0
  7 10  1  0  0  0  0
 10 11  1  0  0  0  0
 10 12  1  0  0  0  0
 10 13  1  0  0  0  0
 13 14  1  0  0  0  0
 13 15  1  0  0  0  0
 13 16  1  0  0  0  0
 16 17  1  0  0  0  0
 16 18  1  0  0  0  0
 16 19  1  0  0  0  0
 19 20  1  0  0  0  0
 19 21  1  0  0  0  0
 19 22  1  0  0  0  0
 22 23  1  0  0  0  0
 22 24  1  0  0  0  0
 22 25  1  0  0  0  0
M  END
> <VConfSearch Rank>
43

> <Conf_Id>
37

> <Delta U+W>
-0.230

> <U+W>
-51.860

> <U>
7.816

> <W>
-59.675

> <W(PB)>
-62.180

> <W(SA)>
2.505

> <Valence>
7.785

> <Coulomb>
-0.713

> <VdW>
0.744

> <VdW6>
-8.514

> <VdW12>
9.259

> <Bond>
0.136

> <Angle>
2.433

> <Pdih>
5.216

> <Idih>
0.000

> <Tether>
0.000

$$$$
VeraChem MOL file


 25 24  0  0  0  0  0  0  0  0999 V2000     
   19.5634   16.1221   25.7253 C   0  0  0  0  0  0  0  0  0  0  0  0
   20.6132   15.5699   25.9899 O   0  5  0  0  0  0  0  0  0  0  0  0
   18.6868   15.6146   25.0538 O   0  0  0  0  0  0  0  0  0  0  0  0
   19.3286   17.5237   26.2816 C   0  0  0  0  0  0  0  0  0  0  0  0
   19.6251   17.5115   27.3370 H   0  0  0  0  0  0  0  0  0  0  0  0
   18.2526   17.7345   26.2565 H   0  0  0  0  0  0  0  0  0  0  0  0
   20.1101   18.6367   25.5365 C   0  0  0  0  0  0  0  0  0  0  0  0
   19.9924   19.5821   26.0834 H   0  0  0  0  0  0  0  0  0  0  0  0
   21.1826   18.3972   25.5462 H   0  0  0  0  0  0  0  0  0  0  0  0
   19.6296   18.8273   24.0803 C   0  0  0  0  0  0  0  0  0  0  0  0
   18.5544   19.0533   24.0752 H   0  0  0  0  0  0  0  0  0  0  0  0
   19.7604   17.8902   23.5216 H   0  0  0  0  0  0  0  0  0  0  0  0
   20.3988   19.9607   23.3680 C   0  0  0  0  0  0  0  0  0  0  0  0
   20.2670   20.8994   23.9234 H   0  0  0  0  0  0  0  0  0  0  0  0
   21.4738   19.7338   23.3735 H   0  0  0  0  0  0  0  0  0  0  0  0
   19.9196   20.1512   21.9127 C   0  0  0  0  0  0  0  0  0  0  0  0
   18.8446   20.3779   21.9070 H   0  0  0  0  0  0  0  0  0  0  0  0
   20.0513   19.2125   21.3572 H   0  0  0  0  0  0  0  0  0  0  0  0
   20.6887   21.2836   21.2001 C   0  0  0  0  0  0  0  0  0  0  0  0
   20.5578   22.2247   21.7521 H   0  0  0  0  0  0  0  0  0  0  0  0
   21.7644   21.0592   21.2023 H   0  0  0  0  0  0  0  0  0  0  0  0
   20.2072   21.4705   19.7473 C   0  0  0  0  0  0  0  0  0  0  0  0
   19.1402   21.7272   19.7170 H   0  0  0  0  0  0  0  0  0  0  0  0
   20.7643   22.2789   19.2561 H   0  0  0  0  0  0  0  0  0  0  0  0
   20.3558   20.5529   19.1631 H   0  0  0  0  0  0  0  0  0  0  0  0
  1  2  1  0  0  0  0
  1  3  2  0  0  0  0
  1  4  1  0  0  0  0
  4  5  1  0  0  0  0
  4  6  1  0  0  0  0
  4  7  1  0  0  0  0
  7  8  1  0  0  0  0
  7  9  1  0  0  0  0
  7 10  1  0  0  0  0
 10 11  1  0  0  0  0
 10 12  1  0  0  0  0
 10 13  1  0  0  0  0
 13 14  1  0  0  0  0
 13 15  1  0  0  0  0
 13 16  1  0  0  0  0
 16 17  1  0  0  0  0
 16 18  1  0  0  0  0
 16 19  1  0  0  0  0
 19 20  1  0  0  0  0
 19 21  1  0  0  0  0
 19 22  1  0  0  0  0
 22 23  1  0  0  0  0
 22 24  1  0  0  0  0
 22 25  1  0  0  0  0
M  END
> <VConfSearch Rank>
44

> <Conf_Id>
54

> <Delta U+W>
-0.224

> <U+W>
-51.854

> <U>
7.816

> <W>
-59.670

> <W(PB)>
-62.157

> <W(SA)>
2.487

> <Valence>
7.785

> <Coulomb>
-0.713

> <VdW>
0.744

> <VdW6>
-8.515

> <VdW12>
9.259

> <Bond>
0.136

> <Angle>
2.433

> <Pdih>
5.215

> <Idih>
0.000

> <Tether>
0.000

$$$$
VeraChem MOL file


 25 24  0  0  0  0  0  0  0  0999 V2000     
   19.6948   15.1531   22.6041 C   0  0  0  0  0  0  0  0  0  0  0  0
   18.6249   15.0557   22.0359 O   0  5  0  0  0  0  0  0  0  0  0  0
   20.7219   14.6479   22.1954 O   0  0  0  0  0  0  0  0  0  0  0  0
   19.7502   15.9368   23.9125 C   0  0  0  0  0  0  0  0  0  0  0  0
   20.3201   15.3349   24.6300 H   0  0  0  0  0  0  0  0  0  0  0  0
   18.7323   16.0262   24.3110 H   0  0  0  0  0  0  0  0  0  0  0  0
   20.3994   17.3394   23.7826 C   0  0  0  0  0  0  0  0  0  0  0  0
   20.5347   17.7531   24.7897 H   0  0  0  0  0  0  0  0  0  0  0  0
   21.4017   17.2369   23.3440 H   0  0  0  0  0  0  0  0  0  0  0  0
   19.5493   18.3103   22.9280 C   0  0  0  0  0  0  0  0  0  0  0  0
   18.5632   18.4477   23.3922 H   0  0  0  0  0  0  0  0  0  0  0  0
   19.3666   17.8568   21.9442 H   0  0  0  0  0  0  0  0  0  0  0  0
   20.2162   19.6896   22.7089 C   0  0  0  0  0  0  0  0  0  0  0  0
   21.2100   19.5506   22.2621 H   0  0  0  0  0  0  0  0  0  0  0  0
   19.6183   20.2408   21.9721 H   0  0  0  0  0  0  0  0  0  0  0  0
   20.3373   20.5309   24.0036 C   0  0  0  0  0  0  0  0  0  0  0  0
   20.9410   19.9850   24.7395 H   0  0  0  0  0  0  0  0  0  0  0  0
   19.3439   20.6652   24.4527 H   0  0  0  0  0  0  0  0  0  0  0  0
   20.9942   21.9131   23.7788 C   0  0  0  0  0  0  0  0  0  0  0  0
   21.1673   22.3829   24.7568 H   0  0  0  0  0  0  0  0  0  0  0  0
   21.9833   21.7834   23.3181 H   0  0  0  0  0  0  0  0  0  0  0  0
   20.1391   22.8670   22.9164 C   0  0  0  0  0  0  0  0  0  0  0  0
   20.0397   22.4987   21.8878 H   0  0  0  0  0  0  0  0  0  0  0  0
   19.1331   22.9842   23.3397 H   0  0  0  0  0  0  0  0  0  0  0  0
   20.6032   23.8606   22.8689 H   0  0  0  0  0  0  0  0  0  0  0  0
  1  2  1  0  0  0  0
  1  3  2  0  0  0  0
  1  4  1  0  0  0  0
  4  5  1  0  0  0  0
  4  6  1  0  0  0  0
  4  7  1  0  0  0  0
  7  8  1  0  0  0  0
  7  9  1  0  0  0  0
  7 10  1  0  0  0  0
 10 11  1  0  0  0  0
 10 12  1  0  0  0  0
 10 13  1  0  0  0  0
 13 14  1  0  0  0  0
 13 15  1  0  0  0  0
 13 16  1  0  0  0  0
 16 17  1  0  0  0  0
 16 18  1  0  0  0  0
 16 19  1  0  0  0  0
 19 20  1  0  0  0  0
 19 21  1  0  0  0  0
 19 22  1  0  0  0  0
 22 23  1  0  0  0  0
 22 24  1  0  0  0  0
 22 25  1  0  0  0  0
M  END
> <VConfSearch Rank>
45

> <Conf_Id>
101

> <Delta U+W>
1.534

> <U+W>
-50.095

> <U>
9.416

> <W>
-59.512

> <W(PB)>
-61.988

> <W(SA)>
2.476

> <Valence>
8.939

> <Coulomb>
-0.615

> <VdW>
1.092

> <VdW6>
-9.710

> <VdW12>
10.802

> <Bond>
0.216

> <Angle>
2.979

> <Pdih>
5.743

> <Idih>
0.000

> <Tether>
0.000

$$$$
VeraChem MOL file


 25 24  0  0  0  0  0  0  0  0999 V2000     
   19.2945   23.0851   24.6088 C   0  0  0  0  0  0  0  0  0  0  0  0
   18.1084   23.1455   24.8663 O   0  5  0  0  0  0  0  0  0  0  0  0
   20.1199   23.8584   25.0533 O   0  0  0  0  0  0  0  0  0  0  0  0
   19.7770   21.9637   23.6958 C   0  0  0  0  0  0  0  0  0  0  0  0
   20.6444   22.3317   23.1348 H   0  0  0  0  0  0  0  0  0  0  0  0
   18.9818   21.7608   22.9700 H   0  0  0  0  0  0  0  0  0  0  0  0
   20.1507   20.6757   24.4749 C   0  0  0  0  0  0  0  0  0  0  0  0
   20.8766   20.9371   25.2573 H   0  0  0  0  0  0  0  0  0  0  0  0
   19.2626   20.2887   24.9932 H   0  0  0  0  0  0  0  0  0  0  0  0
   20.7617   19.5667   23.5852 C   0  0  0  0  0  0  0  0  0  0  0  0
   21.1203   18.7646   24.2428 H   0  0  0  0  0  0  0  0  0  0  0  0
   21.6435   19.9588   23.0606 H   0  0  0  0  0  0  0  0  0  0  0  0
   19.7610   18.9790   22.5599 C   0  0  0  0  0  0  0  0  0  0  0  0
   18.8801   18.5865   23.0842 H   0  0  0  0  0  0  0  0  0  0  0  0
   19.3944   19.7805   21.9066 H   0  0  0  0  0  0  0  0  0  0  0  0
   20.3746   17.8776   21.6582 C   0  0  0  0  0  0  0  0  0  0  0  0
   21.1993   18.3125   21.0774 H   0  0  0  0  0  0  0  0  0  0  0  0
   19.6196   17.5652   20.9240 H   0  0  0  0  0  0  0  0  0  0  0  0
   20.8955   16.6217   22.4003 C   0  0  0  0  0  0  0  0  0  0  0  0
   21.3062   15.9234   21.6582 H   0  0  0  0  0  0  0  0  0  0  0  0
   21.7326   16.8892   23.0585 H   0  0  0  0  0  0  0  0  0  0  0  0
   19.8039   15.8945   23.2148 C   0  0  0  0  0  0  0  0  0  0  0  0
   18.9453   15.6386   22.5806 H   0  0  0  0  0  0  0  0  0  0  0  0
   20.1990   14.9637   23.6418 H   0  0  0  0  0  0  0  0  0  0  0  0
   19.4464   16.5158   24.0456 H   0  0  0  0  0  0  0  0  0  0  0  0
  1  2  1  0  0  0  0
  1  3  2  0  0  0  0
  1  4  1  0  0  0  0
  4  5  1  0  0  0  0
  4  6  1  0  0  0  0
  4  7  1  0  0  0  0
  7  8  1  0  0  0  0
  7  9  1  0  0  0  0
  7 10  1  0  0  0  0
 10 11  1  0  0  0  0
 10 12  1  0  0  0  0
 10 13  1  0  0  0  0
 13 14  1  0  0  0  0
 13 15  1  0  0  0  0
 13 16  1  0  0  0  0
 16 17  1  0  0  0  0
 16 18  1  0  0  0  0
 16 19  1  0  0  0  0
 19 20  1  0  0  0  0
 19 21  1  0  0  0  0
 19 22  1  0  0  0  0
 22 23  1  0  0  0  0
 22 24  1  0  0  0  0
 22 25  1  0  0  0  0
M  END
> <VConfSearch Rank>
46

> <Conf_Id>
75

> <Delta U+W>
1.014

> <U+W>
-50.615

> <U>
8.474

> <W>
-59.089

> <W(PB)>
-61.530

> <W(SA)>
2.441

> <Valence>
9.080

> <Coulomb>
-1.772

> <VdW>
1.165

> <VdW6>
-9.830

> <VdW12>
10.996

> <Bond>
0.240

> <Angle>
3.225

> <Pdih>
5.615

> <Idih>
0.001

> <Tether>
0.000

$$$$
VeraChem MOL file


 25 24  0  0  0  0  0  0  0  0999 V2000     
   24.0953   19.2614   24.6598 C   0  0  0  0  0  0  0  0  0  0  0  0
   24.1647   18.5885   25.6693 O   0  5  0  0  0  0  0  0  0  0  0  0
   25.0382   19.4665   23.9212 O   0  0  0  0  0  0  0  0  0  0  0  0
   22.7453   19.8641   24.2879 C   0  0  0  0  0  0  0  0  0  0  0  0
   22.9269   20.8171   23.7766 H   0  0  0  0  0  0  0  0  0  0  0  0
   22.2066   20.0913   25.2157 H   0  0  0  0  0  0  0  0  0  0  0  0
   21.8958   18.9298   23.3916 C   0  0  0  0  0  0  0  0  0  0  0  0
   22.4541   18.7014   22.4731 H   0  0  0  0  0  0  0  0  0  0  0  0
   21.7343   17.9758   23.9125 H   0  0  0  0  0  0  0  0  0  0  0  0
   20.5340   19.5616   23.0305 C   0  0  0  0  0  0  0  0  0  0  0  0
   20.7003   20.5149   22.5105 H   0  0  0  0  0  0  0  0  0  0  0  0
   19.9879   19.7970   23.9517 H   0  0  0  0  0  0  0  0  0  0  0  0
   19.6918   18.6272   22.1303 C   0  0  0  0  0  0  0  0  0  0  0  0
   20.2573   18.4410   21.2070 H   0  0  0  0  0  0  0  0  0  0  0  0
   19.5607   17.6484   22.6116 H   0  0  0  0  0  0  0  0  0  0  0  0
   18.3116   19.2209   21.7495 C   0  0  0  0  0  0  0  0  0  0  0  0
   18.0805   18.9143   20.7202 H   0  0  0  0  0  0  0  0  0  0  0  0
   18.3610   20.3182   21.7298 H   0  0  0  0  0  0  0  0  0  0  0  0
   17.1381   18.7573   22.6477 C   0  0  0  0  0  0  0  0  0  0  0  0
   16.2043   19.1697   22.2414 H   0  0  0  0  0  0  0  0  0  0  0  0
   17.0410   17.6643   22.5914 H   0  0  0  0  0  0  0  0  0  0  0  0
   17.2653   19.1842   24.1248 C   0  0  0  0  0  0  0  0  0  0  0  0
   17.4304   20.2661   24.2097 H   0  0  0  0  0  0  0  0  0  0  0  0
   16.3489   18.9369   24.6761 H   0  0  0  0  0  0  0  0  0  0  0  0
   18.0968   18.6641   24.6165 H   0  0  0  0  0  0  0  0  0  0  0  0
  1  2  1  0  0  0  0
  1  3  2  0  0  0  0
  1  4  1  0  0  0  0
  4  5  1  0  0  0  0
  4  6  1  0  0  0  0
  4  7  1  0  0  0  0
  7  8  1  0  0  0  0
  7  9  1  0  0  0  0
  7 10  1  0  0  0  0
 10 11  1  0  0  0  0
 10 12  1  0  0  0  0
 10 13  1  0  0  0  0
 13 14  1  0  0  0  0
 13 15  1  0  0  0  0
 13 16  1  0  0  0  0
 16 17  1  0  0  0  0
 16 18  1  0  0  0  0
 16 19  1  0  0  0  0
 19 20  1  0  0  0  0
 19 21  1  0  0  0  0
 19 22  1  0  0  0  0
 22 23  1  0  0  0  0
 22 24  1  0  0  0  0
 22 25  1  0  0  0  0
M  END
> <VConfSearch Rank>
47

> <Conf_Id>
125

> <Delta U+W>
2.314

> <U+W>
-49.315

> <U>
9.740

> <W>
-59.054

> <W(PB)>
-61.488

> <W(SA)>
2.433

> <Valence>
10.506

> <Coulomb>
-1.761

> <VdW>
0.994

> <VdW6>
-9.209

> <VdW12>
10.203

> <Bond>
0.193

> <Angle>
2.979

> <Pdih>
7.334

> <Idih>
0.001

> <Tether>
0.000

$$$$
VeraChem MOL file


 25 24  0  0  0  0  0  0  0  0999 V2000     
   22.6853   22.1190   24.3894 C   0  0  0  0  0  0  0  0  0  0  0  0
   23.3332   21.6625   25.3106 O   0  5  0  0  0  0  0  0  0  0  0  0
   22.7480   23.2788   24.0321 O   0  0  0  0  0  0  0  0  0  0  0  0
   21.7226   21.1913   23.6568 C   0  0  0  0  0  0  0  0  0  0  0  0
   22.1623   20.1876   23.6576 H   0  0  0  0  0  0  0  0  0  0  0  0
   21.6622   21.5199   22.6125 H   0  0  0  0  0  0  0  0  0  0  0  0
   20.3088   21.1701   24.2940 C   0  0  0  0  0  0  0  0  0  0  0  0
   20.3765   20.7949   25.3245 H   0  0  0  0  0  0  0  0  0  0  0  0
   19.9381   22.2022   24.3636 H   0  0  0  0  0  0  0  0  0  0  0  0
   19.2840   20.3282   23.4971 C   0  0  0  0  0  0  0  0  0  0  0  0
   19.2116   20.7118   22.4702 H   0  0  0  0  0  0  0  0  0  0  0  0
   18.2930   20.4657   23.9509 H   0  0  0  0  0  0  0  0  0  0  0  0
   19.6189   18.8188   23.4666 C   0  0  0  0  0  0  0  0  0  0  0  0
   20.5762   18.6653   22.9540 H   0  0  0  0  0  0  0  0  0  0  0  0
   19.7396   18.4489   24.4938 H   0  0  0  0  0  0  0  0  0  0  0  0
   18.5156   18.0051   22.7514 C   0  0  0  0  0  0  0  0  0  0  0  0
   18.4248   18.3411   21.7094 H   0  0  0  0  0  0  0  0  0  0  0  0
   17.5494   18.2136   23.2307 H   0  0  0  0  0  0  0  0  0  0  0  0
   18.7589   16.4781   22.7830 C   0  0  0  0  0  0  0  0  0  0  0  0
   18.8448   16.1376   23.8242 H   0  0  0  0  0  0  0  0  0  0  0  0
   17.8785   15.9724   22.3630 H   0  0  0  0  0  0  0  0  0  0  0  0
   20.0089   16.0409   21.9887 C   0  0  0  0  0  0  0  0  0  0  0  0
   20.9289   16.4285   22.4439 H   0  0  0  0  0  0  0  0  0  0  0  0
   20.0856   14.9462   21.9661 H   0  0  0  0  0  0  0  0  0  0  0  0
   19.9603   16.3978   20.9517 H   0  0  0  0  0  0  0  0  0  0  0  0
  1  2  1  0  0  0  0
  1  3  2  0  0  0  0
  1  4  1  0  0  0  0
  4  5  1  0  0  0  0
  4  6  1  0  0  0  0
  4  7  1  0  0  0  0
  7  8  1  0  0  0  0
  7  9  1  0  0  0  0
  7 10  1  0  0  0  0
 10 11  1  0  0  0  0
 10 12  1  0  0  0  0
 10 13  1  0  0  0  0
 13 14  1  0  0  0  0
 13 15  1  0  0  0  0
 13 16  1  0  0  0  0
 16 17  1  0  0  0  0
 16 18  1  0  0  0  0
 16 19  1  0  0  0  0
 19 20  1  0  0  0  0
 19 21  1  0  0  0  0
 19 22  1  0  0  0  0
 22 23  1  0  0  0  0
 22 24  1  0  0  0  0
 22 25  1  0  0  0  0
M  END
> <VConfSearch Rank>
48

> <Conf_Id>
4

> <Delta U+W>
0.189

> <U+W>
-51.441

> <U>
7.701

> <W>
-59.141

> <W(PB)>
-61.609

> <W(SA)>
2.467

> <Valence>
8.550

> <Coulomb>
-1.988

> <VdW>
1.139

> <VdW6>
-8.988

> <VdW12>
10.127

> <Bond>
0.191

> <Angle>
2.738

> <Pdih>
5.621

> <Idih>
0.001

> <Tether>
0.000

$$$$
VeraChem MOL file


 25 24  0  0  0  0  0  0  0  0999 V2000     
   18.5102   22.4544   25.2670 C   0  0  0  0  0  0  0  0  0  0  0  0
   18.1241   23.2083   24.3956 O   0  5  0  0  0  0  0  0  0  0  0  0
   18.3066   22.6343   26.4514 O   0  0  0  0  0  0  0  0  0  0  0  0
   19.2717   21.2015   24.8498 C   0  0  0  0  0  0  0  0  0  0  0  0
   19.9882   20.9588   25.6436 H   0  0  0  0  0  0  0  0  0  0  0  0
   19.8507   21.4472   23.9525 H   0  0  0  0  0  0  0  0  0  0  0  0
   18.3373   19.9925   24.5841 C   0  0  0  0  0  0  0  0  0  0  0  0
   17.7058   19.8340   25.4693 H   0  0  0  0  0  0  0  0  0  0  0  0
   17.6558   20.2307   23.7558 H   0  0  0  0  0  0  0  0  0  0  0  0
   19.0966   18.6801   24.2757 C   0  0  0  0  0  0  0  0  0  0  0  0
   18.3667   17.8610   24.2191 H   0  0  0  0  0  0  0  0  0  0  0  0
   19.7697   18.4395   25.1100 H   0  0  0  0  0  0  0  0  0  0  0  0
   19.9007   18.7302   22.9558 C   0  0  0  0  0  0  0  0  0  0  0  0
   19.2352   19.0196   22.1313 H   0  0  0  0  0  0  0  0  0  0  0  0
   20.6780   19.5004   23.0283 H   0  0  0  0  0  0  0  0  0  0  0  0
   20.5556   17.3664   22.6359 C   0  0  0  0  0  0  0  0  0  0  0  0
   19.7789   16.5895   22.6278 H   0  0  0  0  0  0  0  0  0  0  0  0
   21.2575   17.0962   23.4367 H   0  0  0  0  0  0  0  0  0  0  0  0
   21.2891   17.3403   21.2747 C   0  0  0  0  0  0  0  0  0  0  0  0
   21.6194   16.3121   21.0722 H   0  0  0  0  0  0  0  0  0  0  0  0
   20.5887   17.6050   20.4706 H   0  0  0  0  0  0  0  0  0  0  0  0
   22.5168   18.2756   21.2230 C   0  0  0  0  0  0  0  0  0  0  0  0
   23.2171   18.0503   22.0378 H   0  0  0  0  0  0  0  0  0  0  0  0
   23.0530   18.1529   20.2730 H   0  0  0  0  0  0  0  0  0  0  0  0
   22.2218   19.3292   21.3035 H   0  0  0  0  0  0  0  0  0  0  0  0
  1  2  1  0  0  0  0
  1  3  2  0  0  0  0
  1  4  1  0  0  0  0
  4  5  1  0  0  0  0
  4  6  1  0  0  0  0
  4  7  1  0  0  0  0
  7  8  1  0  0  0  0
  7  9  1  0  0  0  0
  7 10  1  0  0  0  0
 10 11  1  0  0  0  0
 10 12  1  0  0  0  0
 10 13  1  0  0  0  0
 13 14  1  0  0  0  0
 13 15  1  0  0  0  0
 13 16  1  0  0  0  0
 16 17  1  0  0  0  0
 16 18  1  0  0  0  0
 16 19  1  0  0  0  0
 19 20  1  0  0  0  0
 19 21  1  0  0  0  0
 19 22  1  0  0  0  0
 22 23  1  0  0  0  0
 22 24  1  0  0  0  0
 22 25  1  0  0  0  0
M  END
> <VConfSearch Rank>
49

> <Conf_Id>
17

> <Delta U+W>
0.219

> <U+W>
-51.411

> <U>
7.701

> <W>
-59.111

> <W(PB)>
-61.599

> <W(SA)>
2.488

> <Valence>
8.550

> <Coulomb>
-1.988

> <VdW>
1.139

> <VdW6>
-8.988

> <VdW12>
10.127

> <Bond>
0.191

> <Angle>
2.738

> <Pdih>
5.621

> <Idih>
0.001

> <Tether>
0.000

$$$$
VeraChem MOL file


 25 24  0  0  0  0  0  0  0  0999 V2000     
   22.2686   22.2604   24.1282 C   0  0  0  0  0  0  0  0  0  0  0  0
   23.1184   22.3590   23.2649 O   0  5  0  0  0  0  0  0  0  0  0  0
   22.5168   22.0081   25.2909 O   0  0  0  0  0  0  0  0  0  0  0  0
   20.8107   22.4846   23.7367 C   0  0  0  0  0  0  0  0  0  0  0  0
   20.7836   23.0383   22.7904 H   0  0  0  0  0  0  0  0  0  0  0  0
   20.3626   23.1344   24.4975 H   0  0  0  0  0  0  0  0  0  0  0  0
   19.9832   21.1784   23.6182 C   0  0  0  0  0  0  0  0  0  0  0  0
   20.0414   20.6333   24.5697 H   0  0  0  0  0  0  0  0  0  0  0  0
   18.9272   21.4377   23.4643 H   0  0  0  0  0  0  0  0  0  0  0  0
   20.4629   20.2773   22.4551 C   0  0  0  0  0  0  0  0  0  0  0  0
   21.4975   19.9542   22.6355 H   0  0  0  0  0  0  0  0  0  0  0  0
   20.4809   20.8687   21.5295 H   0  0  0  0  0  0  0  0  0  0  0  0
   19.5677   19.0361   22.2278 C   0  0  0  0  0  0  0  0  0  0  0  0
   18.5343   19.3571   22.0385 H   0  0  0  0  0  0  0  0  0  0  0  0
   19.9064   18.5255   21.3160 H   0  0  0  0  0  0  0  0  0  0  0  0
   19.5951   18.0332   23.4045 C   0  0  0  0  0  0  0  0  0  0  0  0
   19.1882   18.5048   24.3084 H   0  0  0  0  0  0  0  0  0  0  0  0
   20.6347   17.7566   23.6269 H   0  0  0  0  0  0  0  0  0  0  0  0
   18.7799   16.7613   23.0889 C   0  0  0  0  0  0  0  0  0  0  0  0
   17.7397   17.0348   22.8641 H   0  0  0  0  0  0  0  0  0  0  0  0
   19.1838   16.2755   22.1898 H   0  0  0  0  0  0  0  0  0  0  0  0
   18.8051   15.7639   24.2646 C   0  0  0  0  0  0  0  0  0  0  0  0
   18.3766   16.2132   25.1701 H   0  0  0  0  0  0  0  0  0  0  0  0
   18.2215   14.8661   24.0229 H   0  0  0  0  0  0  0  0  0  0  0  0
   19.8324   15.4496   24.4910 H   0  0  0  0  0  0  0  0  0  0  0  0
  1  2  1  0  0  0  0
  1  3  2  0  0  0  0
  1  4  1  0  0  0  0
  4  5  1  0  0  0  0
  4  6  1  0  0  0  0
  4  7  1  0  0  0  0
  7  8  1  0  0  0  0
  7  9  1  0  0  0  0
  7 10  1  0  0  0  0
 10 11  1  0  0  0  0
 10 12  1  0  0  0  0
 10 13  1  0  0  0  0
 13 14  1  0  0  0  0
 13 15  1  0  0  0  0
 13 16  1  0  0  0  0
 16 17  1  0  0  0  0
 16 18  1  0  0  0  0
 16 19  1  0  0  0  0
 19 20  1  0  0  0  0
 19 21  1  0  0  0  0
 19 22  1  0  0  0  0
 22 23  1  0  0  0  0
 22 24  1  0  0  0  0
 22 25  1  0  0  0  0
M  END
> <VConfSearch Rank>
50

> <Conf_Id>
142

> <Delta U+W>
0.593

> <U+W>
-51.037

> <U>
8.903

> <W>
-59.940

> <W(PB)>
-62.418

> <W(SA)>
2.478

> <Valence>
8.305

> <Coulomb>
-0.223

> <VdW>
0.821

> <VdW6>
-9.236

> <VdW12>
10.057

> <Bond>
0.173

> <Angle>
2.663

> <Pdih>
5.469

> <Idih>
0.001

> <Tether>
0.000

$$$$
VeraChem MOL file


 25 24  0  0  0  0  0  0  0  0999 V2000     
   17.2898   17.5462   22.4202 C   0  0  0  0  0  0  0  0  0  0  0  0
   16.1201   17.4836   22.7449 O   0  5  0  0  0  0  0  0  0  0  0  0
   17.6640   17.6184   21.2662 O   0  0  0  0  0  0  0  0  0  0  0  0
   18.3445   17.5037   23.5224 C   0  0  0  0  0  0  0  0  0  0  0  0
   19.3188   17.2893   23.0684 H   0  0  0  0  0  0  0  0  0  0  0  0
   18.1080   16.6498   24.1677 H   0  0  0  0  0  0  0  0  0  0  0  0
   18.4147   18.7948   24.3828 C   0  0  0  0  0  0  0  0  0  0  0  0
   17.4443   18.9416   24.8768 H   0  0  0  0  0  0  0  0  0  0  0  0
   19.1442   18.6519   25.1904 H   0  0  0  0  0  0  0  0  0  0  0  0
   18.7636   20.0780   23.5852 C   0  0  0  0  0  0  0  0  0  0  0  0
   18.7821   20.9299   24.2784 H   0  0  0  0  0  0  0  0  0  0  0  0
   17.9541   20.2871   22.8724 H   0  0  0  0  0  0  0  0  0  0  0  0
   20.1049   20.0321   22.8111 C   0  0  0  0  0  0  0  0  0  0  0  0
   20.0617   19.2561   22.0350 H   0  0  0  0  0  0  0  0  0  0  0  0
   20.2290   20.9852   22.2793 H   0  0  0  0  0  0  0  0  0  0  0  0
   21.3348   19.7990   23.7185 C   0  0  0  0  0  0  0  0  0  0  0  0
   21.2609   18.8163   24.2022 H   0  0  0  0  0  0  0  0  0  0  0  0
   21.3485   20.5513   24.5188 H   0  0  0  0  0  0  0  0  0  0  0  0
   22.6539   19.8700   22.9207 C   0  0  0  0  0  0  0  0  0  0  0  0
   22.6411   19.1199   22.1178 H   0  0  0  0  0  0  0  0  0  0  0  0
   22.7428   20.8531   22.4379 H   0  0  0  0  0  0  0  0  0  0  0  0
   23.8791   19.6313   23.8259 C   0  0  0  0  0  0  0  0  0  0  0  0
   23.8322   18.6408   24.2972 H   0  0  0  0  0  0  0  0  0  0  0  0
   24.8075   19.6855   23.2427 H   0  0  0  0  0  0  0  0  0  0  0  0
   23.9334   20.3869   24.6206 H   0  0  0  0  0  0  0  0  0  0  0  0
  1  2  1  0  0  0  0
  1  3  2  0  0  0  0
  1  4  1  0  0  0  0
  4  5  1  0  0  0  0
  4  6  1  0  0  0  0
  4  7  1  0  0  0  0
  7  8  1  0  0  0  0
  7  9  1  0  0  0  0
  7 10  1  0  0  0  0
 10 11  1  0  0  0  0
 10 12  1  0  0  0  0
 10 13  1  0  0  0  0
 13 14  1  0  0  0  0
 13 15  1  0  0  0  0
 13 16  1  0  0  0  0
 16 17  1  0  0  0  0
 16 18  1  0  0  0  0
 16 19  1  0  0  0  0
 19 20  1  0  0  0  0
 19 21  1  0  0  0  0
 19 22  1  0  0  0  0
 22 23  1  0  0  0  0
 22 24  1  0  0  0  0
 22 25  1  0  0  0  0
M  END
> <VConfSearch Rank>
51

> <Conf_Id>
135

> <Delta U+W>
1.314

> <U+W>
-50.316

> <U>
9.773

> <W>
-60.088

> <W(PB)>
-62.535

> <W(SA)>
2.447

> <Valence>
8.741

> <Coulomb>
0.479

> <VdW>
0.552

> <VdW6>
-10.627

> <VdW12>
11.179

> <Bond>
0.227

> <Angle>
3.155

> <Pdih>
5.358

> <Idih>
0.001

> <Tether>
0.000

$$$$
VeraChem MOL file


 25 24  0  0  0  0  0  0  0  0999 V2000     
   17.6259   19.7133   19.8810 C   0  0  0  0  0  0  0  0  0  0  0  0
   18.1718   19.4300   18.8329 O   0  5  0  0  0  0  0  0  0  0  0  0
   16.4198   19.7742   20.0165 O   0  0  0  0  0  0  0  0  0  0  0  0
   18.5017   19.9850   21.0988 C   0  0  0  0  0  0  0  0  0  0  0  0
   17.9866   20.7181   21.7310 H   0  0  0  0  0  0  0  0  0  0  0  0
   19.4266   20.4534   20.7448 H   0  0  0  0  0  0  0  0  0  0  0  0
   18.8118   18.7012   21.9122 C   0  0  0  0  0  0  0  0  0  0  0  0
   17.8623   18.2092   22.1648 H   0  0  0  0  0  0  0  0  0  0  0  0
   19.3699   17.9930   21.2844 H   0  0  0  0  0  0  0  0  0  0  0  0
   19.5921   18.9685   23.2216 C   0  0  0  0  0  0  0  0  0  0  0  0
   19.6228   18.0316   23.7920 H   0  0  0  0  0  0  0  0  0  0  0  0
   19.0448   19.6958   23.8363 H   0  0  0  0  0  0  0  0  0  0  0  0
   21.0397   19.4624   22.9869 C   0  0  0  0  0  0  0  0  0  0  0  0
   21.5968   18.7026   22.4223 H   0  0  0  0  0  0  0  0  0  0  0  0
   21.0234   20.3624   22.3597 H   0  0  0  0  0  0  0  0  0  0  0  0
   21.8116   19.8065   24.2859 C   0  0  0  0  0  0  0  0  0  0  0  0
   21.3127   20.6317   24.8123 H   0  0  0  0  0  0  0  0  0  0  0  0
   22.7967   20.1936   23.9915 H   0  0  0  0  0  0  0  0  0  0  0  0
   22.0315   18.6116   25.2472 C   0  0  0  0  0  0  0  0  0  0  0  0
   22.0349   17.6666   24.6866 H   0  0  0  0  0  0  0  0  0  0  0  0
   23.0293   18.7021   25.6983 H   0  0  0  0  0  0  0  0  0  0  0  0
   20.9940   18.5530   26.3907 C   0  0  0  0  0  0  0  0  0  0  0  0
   19.9714   18.4532   26.0094 H   0  0  0  0  0  0  0  0  0  0  0  0
   21.1930   17.6953   27.0462 H   0  0  0  0  0  0  0  0  0  0  0  0
   21.0387   19.4619   27.0045 H   0  0  0  0  0  0  0  0  0  0  0  0
  1  2  1  0  0  0  0
  1  3  2  0  0  0  0
  1  4  1  0  0  0  0
  4  5  1  0  0  0  0
  4  6  1  0  0  0  0
  4  7  1  0  0  0  0
  7  8  1  0  0  0  0
  7  9  1  0  0  0  0
  7 10  1  0  0  0  0
 10 11  1  0  0  0  0
 10 12  1  0  0  0  0
 10 13  1  0  0  0  0
 13 14  1  0  0  0  0
 13 15  1  0  0  0  0
 13 16  1  0  0  0  0
 16 17  1  0  0  0  0
 16 18  1  0  0  0  0
 16 19  1  0  0  0  0
 19 20  1  0  0  0  0
 19 21  1  0  0  0  0
 19 22  1  0  0  0  0
 22 23  1  0  0  0  0
 22 24  1  0  0  0  0
 22 25  1  0  0  0  0
M  END
> <VConfSearch Rank>
52

> <Conf_Id>
19

> <Delta U+W>
3.222

> <U+W>
-48.407

> <U>
10.617

> <W>
-59.025

> <W(PB)>
-61.462

> <W(SA)>
2.437

> <Valence>
11.188

> <Coulomb>
-1.778

> <VdW>
1.208

> <VdW6>
-9.786

> <VdW12>
10.993

> <Bond>
0.241

> <Angle>
3.294

> <Pdih>
7.653

> <Idih>
0.001

> <Tether>
0.000

$$$$
VeraChem MOL file


 25 24  0  0  0  0  0  0  0  0999 V2000     
   16.8930   18.8663   25.9782 C   0  0  0  0  0  0  0  0  0  0  0  0
   16.2959   19.9098   26.1550 O   0  5  0  0  0  0  0  0  0  0  0  0
   16.8474   17.9262   26.7469 O   0  0  0  0  0  0  0  0  0  0  0  0
   17.7662   18.7380   24.7351 C   0  0  0  0  0  0  0  0  0  0  0  0
   17.2898   19.3134   23.9338 H   0  0  0  0  0  0  0  0  0  0  0  0
   17.7646   17.6859   24.4261 H   0  0  0  0  0  0  0  0  0  0  0  0
   19.2201   19.2239   24.9716 C   0  0  0  0  0  0  0  0  0  0  0  0
   19.2140   20.2910   25.2337 H   0  0  0  0  0  0  0  0  0  0  0  0
   19.6291   18.6935   25.8427 H   0  0  0  0  0  0  0  0  0  0  0  0
   20.1589   18.9862   23.7644 C   0  0  0  0  0  0  0  0  0  0  0  0
   20.1440   17.9232   23.4882 H   0  0  0  0  0  0  0  0  0  0  0  0
   21.1830   19.2157   24.0845 H   0  0  0  0  0  0  0  0  0  0  0  0
   19.8103   19.8544   22.5318 C   0  0  0  0  0  0  0  0  0  0  0  0
   18.7656   19.6821   22.2449 H   0  0  0  0  0  0  0  0  0  0  0  0
   19.8853   20.9166   22.8014 H   0  0  0  0  0  0  0  0  0  0  0  0
   20.6931   19.5759   21.2890 C   0  0  0  0  0  0  0  0  0  0  0  0
   20.3191   20.2063   20.4707 H   0  0  0  0  0  0  0  0  0  0  0  0
   20.5536   18.5391   20.9534 H   0  0  0  0  0  0  0  0  0  0  0  0
   22.2001   19.8798   21.4807 C   0  0  0  0  0  0  0  0  0  0  0  0
   22.5940   20.3076   20.5484 H   0  0  0  0  0  0  0  0  0  0  0  0
   22.3388   20.6499   22.2520 H   0  0  0  0  0  0  0  0  0  0  0  0
   23.0346   18.6245   21.8201 C   0  0  0  0  0  0  0  0  0  0  0  0
   22.9644   17.8806   21.0159 H   0  0  0  0  0  0  0  0  0  0  0  0
   24.0931   18.8883   21.9416 H   0  0  0  0  0  0  0  0  0  0  0  0
   22.6987   18.1499   22.7491 H   0  0  0  0  0  0  0  0  0  0  0  0
  1  2  1  0  0  0  0
  1  3  2  0  0  0  0
  1  4  1  0  0  0  0
  4  5  1  0  0  0  0
  4  6  1  0  0  0  0
  4  7  1  0  0  0  0
  7  8  1  0  0  0  0
  7  9  1  0  0  0  0
  7 10  1  0  0  0  0
 10 11  1  0  0  0  0
 10 12  1  0  0  0  0
 10 13  1  0  0  0  0
 13 14  1  0  0  0  0
 13 15  1  0  0  0  0
 13 16  1  0  0  0  0
 16 17  1  0  0  0  0
 16 18  1  0  0  0  0
 16 19  1  0  0  0  0
 19 20  1  0  0  0  0
 19 21  1  0  0  0  0
 19 22  1  0  0  0  0
 22 23  1  0  0  0  0
 22 24  1  0  0  0  0
 22 25  1  0  0  0  0
M  END
> <VConfSearch Rank>
53

> <Conf_Id>
20

> <Delta U+W>
3.224

> <U+W>
-48.406

> <U>
10.617

> <W>
-59.023

> <W(PB)>
-61.467

> <W(SA)>
2.444

> <Valence>
11.188

> <Coulomb>
-1.778

> <VdW>
1.208

> <VdW6>
-9.786

> <VdW12>
10.993

> <Bond>
0.241

> <Angle>
3.294

> <Pdih>
7.653

> <Idih>
0.001

> <Tether>
0.000

$$$$
VeraChem MOL file


 25 24  0  0  0  0  0  0  0  0999 V2000     
   20.0098   19.3880   20.3687 C   0  0  0  0  0  0  0  0  0  0  0  0
   21.1678   19.1739   20.0669 O   0  5  0  0  0  0  0  0  0  0  0  0
   19.5105   20.4961   20.3682 O   0  0  0  0  0  0  0  0  0  0  0  0
   19.1153   18.1957   20.7026 C   0  0  0  0  0  0  0  0  0  0  0  0
   19.0604   17.5874   19.7924 H   0  0  0  0  0  0  0  0  0  0  0  0
   18.0989   18.5569   20.9004 H   0  0  0  0  0  0  0  0  0  0  0  0
   19.6085   17.3048   21.8774 C   0  0  0  0  0  0  0  0  0  0  0  0
   19.1228   16.3239   21.7862 H   0  0  0  0  0  0  0  0  0  0  0  0
   20.6869   17.1180   21.7787 H   0  0  0  0  0  0  0  0  0  0  0  0
   19.2925   17.8579   23.2893 C   0  0  0  0  0  0  0  0  0  0  0  0
   19.5471   17.0827   24.0250 H   0  0  0  0  0  0  0  0  0  0  0  0
   18.2120   18.0313   23.3851 H   0  0  0  0  0  0  0  0  0  0  0  0
   20.0596   19.1515   23.6456 C   0  0  0  0  0  0  0  0  0  0  0  0
   21.1314   19.0107   23.4496 H   0  0  0  0  0  0  0  0  0  0  0  0
   19.7207   19.9745   23.0038 H   0  0  0  0  0  0  0  0  0  0  0  0
   19.8514   19.5505   25.1227 C   0  0  0  0  0  0  0  0  0  0  0  0
   20.1953   18.7367   25.7757 H   0  0  0  0  0  0  0  0  0  0  0  0
   18.7788   19.6861   25.3180 H   0  0  0  0  0  0  0  0  0  0  0  0
   20.6077   20.8483   25.4765 C   0  0  0  0  0  0  0  0  0  0  0  0
   21.6812   20.7156   25.2831 H   0  0  0  0  0  0  0  0  0  0  0  0
   20.2651   21.6653   24.8263 H   0  0  0  0  0  0  0  0  0  0  0  0
   20.3976   21.2445   26.9518 C   0  0  0  0  0  0  0  0  0  0  0  0
   20.7611   20.4575   27.6255 H   0  0  0  0  0  0  0  0  0  0  0  0
   20.9420   22.1687   27.1855 H   0  0  0  0  0  0  0  0  0  0  0  0
   19.3341   21.4144   27.1652 H   0  0  0  0  0  0  0  0  0  0  0  0
  1  2  1  0  0  0  0
  1  3  2  0  0  0  0
  1  4  1  0  0  0  0
  4  5  1  0  0  0  0
  4  6  1  0  0  0  0
  4  7  1  0  0  0  0
  7  8  1  0  0  0  0
  7  9  1  0  0  0  0
  7 10  1  0  0  0  0
 10 11  1  0  0  0  0
 10 12  1  0  0  0  0
 10 13  1  0  0  0  0
 13 14  1  0  0  0  0
 13 15  1  0  0  0  0
 13 16  1  0  0  0  0
 16 17  1  0  0  0  0
 16 18  1  0  0  0  0
 16 19  1  0  0  0  0
 19 20  1  0  0  0  0
 19 21  1  0  0  0  0
 19 22  1  0  0  0  0
 22 23  1  0  0  0  0
 22 24  1  0  0  0  0
 22 25  1  0  0  0  0
M  END
> <VConfSearch Rank>
54

> <Conf_Id>
24

> <Delta U+W>
1.784

> <U+W>
-49.846

> <U>
10.904

> <W>
-60.749

> <W(PB)>
-63.220

> <W(SA)>
2.471

> <Valence>
9.445

> <Coulomb>
0.780

> <VdW>
0.679

> <VdW6>
-10.008

> <VdW12>
10.687

> <Bond>
0.201

> <Angle>
3.198

> <Pdih>
6.039

> <Idih>
0.006

> <Tether>
0.000

$$$$
VeraChem MOL file


 25 24  0  0  0  0  0  0  0  0999 V2000     
   18.9464   20.0352   20.7932 C   0  0  0  0  0  0  0  0  0  0  0  0
   18.0215   20.7706   21.0785 O   0  5  0  0  0  0  0  0  0  0  0  0
   20.0392   20.4366   20.4442 O   0  0  0  0  0  0  0  0  0  0  0  0
   18.7049   18.5270   20.8088 C   0  0  0  0  0  0  0  0  0  0  0  0
   19.6180   18.0163   20.4801 H   0  0  0  0  0  0  0  0  0  0  0  0
   17.9430   18.3291   20.0461 H   0  0  0  0  0  0  0  0  0  0  0  0
   18.2226   17.9465   22.1681 C   0  0  0  0  0  0  0  0  0  0  0  0
   17.4402   18.5901   22.5938 H   0  0  0  0  0  0  0  0  0  0  0  0
   17.7430   16.9780   21.9721 H   0  0  0  0  0  0  0  0  0  0  0  0
   19.3447   17.7147   23.2103 C   0  0  0  0  0  0  0  0  0  0  0  0
   20.1172   17.0610   22.7827 H   0  0  0  0  0  0  0  0  0  0  0  0
   18.9141   17.1680   24.0604 H   0  0  0  0  0  0  0  0  0  0  0  0
   19.9963   19.0144   23.7345 C   0  0  0  0  0  0  0  0  0  0  0  0
   20.5454   19.5093   22.9236 H   0  0  0  0  0  0  0  0  0  0  0  0
   19.2144   19.7113   24.0661 H   0  0  0  0  0  0  0  0  0  0  0  0
   20.9696   18.7355   24.9004 C   0  0  0  0  0  0  0  0  0  0  0  0
   21.7478   18.0347   24.5684 H   0  0  0  0  0  0  0  0  0  0  0  0
   20.4287   18.2471   25.7225 H   0  0  0  0  0  0  0  0  0  0  0  0
   21.6294   20.0313   25.4170 C   0  0  0  0  0  0  0  0  0  0  0  0
   22.1731   20.5218   24.5976 H   0  0  0  0  0  0  0  0  0  0  0  0
   20.8535   20.7342   25.7506 H   0  0  0  0  0  0  0  0  0  0  0  0
   22.6010   19.7497   26.5808 C   0  0  0  0  0  0  0  0  0  0  0  0
   23.4061   19.0732   26.2654 H   0  0  0  0  0  0  0  0  0  0  0  0
   23.0606   20.6815   26.9352 H   0  0  0  0  0  0  0  0  0  0  0  0
   22.0764   19.2872   27.4272 H   0  0  0  0  0  0  0  0  0  0  0  0
  1  2  1  0  0  0  0
  1  3  2  0  0  0  0
  1  4  1  0  0  0  0
  4  5  1  0  0  0  0
  4  6  1  0  0  0  0
  4  7  1  0  0  0  0
  7  8  1  0  0  0  0
  7  9  1  0  0  0  0
  7 10  1  0  0  0  0
 10 11  1  0  0  0  0
 10 12  1  0  0  0  0
 10 13  1  0  0  0  0
 13 14  1  0  0  0  0
 13 15  1  0  0  0  0
 13 16  1  0  0  0  0
 16 17  1  0  0  0  0
 16 18  1  0  0  0  0
 16 19  1  0  0  0  0
 19 20  1  0  0  0  0
 19 21  1  0  0  0  0
 19 22  1  0  0  0  0
 22 23  1  0  0  0  0
 22 24  1  0  0  0  0
 22 25  1  0  0  0  0
M  END
> <VConfSearch Rank>
55

> <Conf_Id>
9

> <Delta U+W>
1.764

> <U+W>
-49.865

> <U>
10.902

> <W>
-60.768

> <W(PB)>
-63.223

> <W(SA)>
2.456

> <Valence>
9.445

> <Coulomb>
0.778

> <VdW>
0.679

> <VdW6>
-10.007

> <VdW12>
10.687

> <Bond>
0.201

> <Angle>
3.198

> <Pdih>
6.040

> <Idih>
0.006

> <Tether>
0.000

$$$$
VeraChem MOL file


 25 24  0  0  0  0  0  0  0  0999 V2000     
   17.4677   16.4583   23.5326 C   0  0  0  0  0  0  0  0  0  0  0  0
   17.2773   16.6453   24.7181 O   0  5  0  0  0  0  0  0  0  0  0  0
   16.7191   15.8150   22.8237 O   0  0  0  0  0  0  0  0  0  0  0  0
   18.7034   17.0824   22.8944 C   0  0  0  0  0  0  0  0  0  0  0  0
   19.0444   16.4145   22.0945 H   0  0  0  0  0  0  0  0  0  0  0  0
   19.4947   17.1052   23.6499 H   0  0  0  0  0  0  0  0  0  0  0  0
   18.4325   18.4999   22.3242 C   0  0  0  0  0  0  0  0  0  0  0  0
   17.6384   18.4140   21.5696 H   0  0  0  0  0  0  0  0  0  0  0  0
   18.0356   19.1552   23.1119 H   0  0  0  0  0  0  0  0  0  0  0  0
   19.6756   19.1480   21.6631 C   0  0  0  0  0  0  0  0  0  0  0  0
   19.3344   19.7430   20.8050 H   0  0  0  0  0  0  0  0  0  0  0  0
   20.3334   18.3733   21.2460 H   0  0  0  0  0  0  0  0  0  0  0  0
   20.4833   20.0907   22.5904 C   0  0  0  0  0  0  0  0  0  0  0  0
   21.2836   20.5545   21.9980 H   0  0  0  0  0  0  0  0  0  0  0  0
   19.8318   20.9089   22.9242 H   0  0  0  0  0  0  0  0  0  0  0  0
   21.1104   19.3895   23.8185 C   0  0  0  0  0  0  0  0  0  0  0  0
   21.6336   18.4826   23.4865 H   0  0  0  0  0  0  0  0  0  0  0  0
   20.3179   19.0666   24.5063 H   0  0  0  0  0  0  0  0  0  0  0  0
   22.1114   20.2826   24.5878 C   0  0  0  0  0  0  0  0  0  0  0  0
   22.5825   19.6837   25.3794 H   0  0  0  0  0  0  0  0  0  0  0  0
   22.9204   20.5984   23.9148 H   0  0  0  0  0  0  0  0  0  0  0  0
   21.4533   21.5245   25.2273 C   0  0  0  0  0  0  0  0  0  0  0  0
   20.6241   21.2343   25.8856 H   0  0  0  0  0  0  0  0  0  0  0  0
   22.1844   22.0799   25.8288 H   0  0  0  0  0  0  0  0  0  0  0  0
   21.0632   22.2084   24.4631 H   0  0  0  0  0  0  0  0  0  0  0  0
  1  2  1  0  0  0  0
  1  3  2  0  0  0  0
  1  4  1  0  0  0  0
  4  5  1  0  0  0  0
  4  6  1  0  0  0  0
  4  7  1  0  0  0  0
  7  8  1  0  0  0  0
  7  9  1  0  0  0  0
  7 10  1  0  0  0  0
 10 11  1  0  0  0  0
 10 12  1  0  0  0  0
 10 13  1  0  0  0  0
 13 14  1  0  0  0  0
 13 15  1  0  0  0  0
 13 16  1  0  0  0  0
 16 17  1  0  0  0  0
 16 18  1  0  0  0  0
 16 19  1  0  0  0  0
 19 20  1  0  0  0  0
 19 21  1  0  0  0  0
 19 22  1  0  0  0  0
 22 23  1  0  0  0  0
 22 24  1  0  0  0  0
 22 25  1  0  0  0  0
M  END
> <VConfSearch Rank>
56

> <Conf_Id>
89

> <Delta U+W>
2.903

> <U+W>
-48.726

> <U>
10.996

> <W>
-59.723

> <W(PB)>
-62.151

> <W(SA)>
2.428

> <Valence>
10.985

> <Coulomb>
-0.995

> <VdW>
1.006

> <VdW6>
-10.062

> <VdW12>
11.069

> <Bond>
0.238

> <Angle>
3.202

> <Pdih>
7.544

> <Idih>
0.001

> <Tether>
0.000

$$$$
VeraChem MOL file


 25 24  0  0  0  0  0  0  0  0999 V2000     
   22.0451   20.9031   21.3119 C   0  0  0  0  0  0  0  0  0  0  0  0
   21.6903   20.4055   20.2613 O   0  5  0  0  0  0  0  0  0  0  0  0
   21.8387   22.0640   21.6073 O   0  0  0  0  0  0  0  0  0  0  0  0
   22.8486   20.0395   22.2823 C   0  0  0  0  0  0  0  0  0  0  0  0
   23.8434   20.4952   22.3477 H   0  0  0  0  0  0  0  0  0  0  0  0
   22.9879   19.0442   21.8432 H   0  0  0  0  0  0  0  0  0  0  0  0
   22.2530   19.9189   23.7135 C   0  0  0  0  0  0  0  0  0  0  0  0
   23.0647   19.6271   24.3934 H   0  0  0  0  0  0  0  0  0  0  0  0
   21.9082   20.9029   24.0607 H   0  0  0  0  0  0  0  0  0  0  0  0
   21.1177   18.8754   23.8621 C   0  0  0  0  0  0  0  0  0  0  0  0
   20.9064   18.7648   24.9329 H   0  0  0  0  0  0  0  0  0  0  0  0
   21.4695   17.8948   23.5137 H   0  0  0  0  0  0  0  0  0  0  0  0
   19.8131   19.2537   23.1196 C   0  0  0  0  0  0  0  0  0  0  0  0
   19.4906   20.2599   23.4198 H   0  0  0  0  0  0  0  0  0  0  0  0
   20.0109   19.2982   22.0417 H   0  0  0  0  0  0  0  0  0  0  0  0
   18.6591   18.2475   23.3459 C   0  0  0  0  0  0  0  0  0  0  0  0
   18.9935   17.2365   23.0760 H   0  0  0  0  0  0  0  0  0  0  0  0
   17.8420   18.4982   22.6556 H   0  0  0  0  0  0  0  0  0  0  0  0
   18.1083   18.2489   24.7902 C   0  0  0  0  0  0  0  0  0  0  0  0
   18.8844   17.9209   25.4936 H   0  0  0  0  0  0  0  0  0  0  0  0
   17.8258   19.2710   25.0779 H   0  0  0  0  0  0  0  0  0  0  0  0
   16.8840   17.3216   24.9289 C   0  0  0  0  0  0  0  0  0  0  0  0
   17.1449   16.2863   24.6727 H   0  0  0  0  0  0  0  0  0  0  0  0
   16.5065   17.3309   25.9596 H   0  0  0  0  0  0  0  0  0  0  0  0
   16.0694   17.6438   24.2671 H   0  0  0  0  0  0  0  0  0  0  0  0
  1  2  1  0  0  0  0
  1  3  2  0  0  0  0
  1  4  1  0  0  0  0
  4  5  1  0  0  0  0
  4  6  1  0  0  0  0
  4  7  1  0  0  0  0
  7  8  1  0  0  0  0
  7  9  1  0  0  0  0
  7 10  1  0  0  0  0
 10 11  1  0  0  0  0
 10 12  1  0  0  0  0
 10 13  1  0  0  0  0
 13 14  1  0  0  0  0
 13 15  1  0  0  0  0
 13 16  1  0  0  0  0
 16 17  1  0  0  0  0
 16 18  1  0  0  0  0
 16 19  1  0  0  0  0
 19 20  1  0  0  0  0
 19 21  1  0  0  0  0
 19 22  1  0  0  0  0
 22 23  1  0  0  0  0
 22 24  1  0  0  0  0
 22 25  1  0  0  0  0
M  END
> <VConfSearch Rank>
57

> <Conf_Id>
114

> <Delta U+W>
2.758

> <U+W>
-48.871

> <U>
11.422

> <W>
-60.293

> <W(PB)>
-62.719

> <W(SA)>
2.425

> <Valence>
10.135

> <Coulomb>
0.369

> <VdW>
0.918

> <VdW6>
-10.482

> <VdW12>
11.400

> <Bond>
0.245

> <Angle>
3.539

> <Pdih>
6.346

> <Idih>
0.006

> <Tether>
0.000

$$$$
VeraChem MOL file


 25 24  0  0  0  0  0  0  0  0999 V2000     
   18.5168   19.0451   26.8237 C   0  0  0  0  0  0  0  0  0  0  0  0
   17.5266   18.3530   26.6916 O   0  5  0  0  0  0  0  0  0  0  0  0
   19.4270   18.7791   27.5838 O   0  0  0  0  0  0  0  0  0  0  0  0
   18.6152   20.3301   26.0064 C   0  0  0  0  0  0  0  0  0  0  0  0
   18.9507   21.1248   26.6831 H   0  0  0  0  0  0  0  0  0  0  0  0
   17.6098   20.6064   25.6663 H   0  0  0  0  0  0  0  0  0  0  0  0
   19.5832   20.2349   24.7986 C   0  0  0  0  0  0  0  0  0  0  0  0
   19.6918   21.2312   24.3492 H   0  0  0  0  0  0  0  0  0  0  0  0
   20.5762   19.9401   25.1624 H   0  0  0  0  0  0  0  0  0  0  0  0
   19.0890   19.2395   23.7214 C   0  0  0  0  0  0  0  0  0  0  0  0
   18.0589   19.5001   23.4426 H   0  0  0  0  0  0  0  0  0  0  0  0
   19.0479   18.2248   24.1409 H   0  0  0  0  0  0  0  0  0  0  0  0
   19.9564   19.2329   22.4399 C   0  0  0  0  0  0  0  0  0  0  0  0
   19.4475   18.6142   21.6899 H   0  0  0  0  0  0  0  0  0  0  0  0
   20.0066   20.2483   22.0239 H   0  0  0  0  0  0  0  0  0  0  0  0
   21.3886   18.6895   22.6678 C   0  0  0  0  0  0  0  0  0  0  0  0
   21.3377   17.6755   23.0872 H   0  0  0  0  0  0  0  0  0  0  0  0
   21.9003   19.3100   23.4143 H   0  0  0  0  0  0  0  0  0  0  0  0
   22.2522   18.6761   21.3846 C   0  0  0  0  0  0  0  0  0  0  0  0
   22.2957   19.6868   20.9559 H   0  0  0  0  0  0  0  0  0  0  0  0
   23.2828   18.4108   21.6578 H   0  0  0  0  0  0  0  0  0  0  0  0
   21.7512   17.6789   20.3172 C   0  0  0  0  0  0  0  0  0  0  0  0
   22.4503   17.6388   19.4719 H   0  0  0  0  0  0  0  0  0  0  0  0
   21.6667   16.6667   20.7338 H   0  0  0  0  0  0  0  0  0  0  0  0
   20.7707   17.9720   19.9221 H   0  0  0  0  0  0  0  0  0  0  0  0
  1  2  1  0  0  0  0
  1  3  2  0  0  0  0
  1  4  1  0  0  0  0
  4  5  1  0  0  0  0
  4  6  1  0  0  0  0
  4  7  1  0  0  0  0
  7  8  1  0  0  0  0
  7  9  1  0  0  0  0
  7 10  1  0  0  0  0
 10 11  1  0  0  0  0
 10 12  1  0  0  0  0
 10 13  1  0  0  0  0
 13 14  1  0  0  0  0
 13 15  1  0  0  0  0
 13 16  1  0  0  0  0
 16 17  1  0  0  0  0
 16 18  1  0  0  0  0
 16 19  1  0  0  0  0
 19 20  1  0  0  0  0
 19 21  1  0  0  0  0
 19 22  1  0  0  0  0
 22 23  1  0  0  0  0
 22 24  1  0  0  0  0
 22 25  1  0  0  0  0
M  END
> <VConfSearch Rank>
58

> <Conf_Id>
87

> <Delta U+W>
1.453

> <U+W>
-50.176

> <U>
9.763

> <W>
-59.940

> <W(PB)>
-62.392

> <W(SA)>
2.452

> <Valence>
8.883

> <Coulomb>
-0.122

> <VdW>
1.003

> <VdW6>
-9.782

> <VdW12>
10.785

> <Bond>
0.212

> <Angle>
2.940

> <Pdih>
5.730

> <Idih>
0.001

> <Tether>
0.000

$$$$
VeraChem MOL file


 25 24  0  0  0  0  0  0  0  0999 V2000     
   18.1773   17.7937   20.1116 C   0  0  0  0  0  0  0  0  0  0  0  0
   18.7257   18.4221   19.2278 O   0  5  0  0  0  0  0  0  0  0  0  0
   17.7353   16.6713   19.9650 O   0  0  0  0  0  0  0  0  0  0  0  0
   18.0531   18.4424   21.4857 C   0  0  0  0  0  0  0  0  0  0  0  0
   17.1249   18.0858   21.9480 H   0  0  0  0  0  0  0  0  0  0  0  0
   17.9500   19.5248   21.3434 H   0  0  0  0  0  0  0  0  0  0  0  0
   19.2609   18.1378   22.4057 C   0  0  0  0  0  0  0  0  0  0  0  0
   19.3567   17.0506   22.5321 H   0  0  0  0  0  0  0  0  0  0  0  0
   20.1788   18.4855   21.9134 H   0  0  0  0  0  0  0  0  0  0  0  0
   19.1129   18.8127   23.7889 C   0  0  0  0  0  0  0  0  0  0  0  0
   18.1569   18.5071   24.2352 H   0  0  0  0  0  0  0  0  0  0  0  0
   19.0573   19.9024   23.6667 H   0  0  0  0  0  0  0  0  0  0  0  0
   20.2502   18.4502   24.7766 C   0  0  0  0  0  0  0  0  0  0  0  0
   20.0398   18.9189   25.7469 H   0  0  0  0  0  0  0  0  0  0  0  0
   20.2286   17.3673   24.9594 H   0  0  0  0  0  0  0  0  0  0  0  0
   21.6785   18.8459   24.3170 C   0  0  0  0  0  0  0  0  0  0  0  0
   21.9539   18.2527   23.4353 H   0  0  0  0  0  0  0  0  0  0  0  0
   22.3907   18.5579   25.1020 H   0  0  0  0  0  0  0  0  0  0  0  0
   21.8745   20.3475   23.9928 C   0  0  0  0  0  0  0  0  0  0  0  0
   22.9092   20.5011   23.6569 H   0  0  0  0  0  0  0  0  0  0  0  0
   21.2350   20.6384   23.1489 H   0  0  0  0  0  0  0  0  0  0  0  0
   21.6006   21.2728   25.1981 C   0  0  0  0  0  0  0  0  0  0  0  0
   22.2187   20.9888   26.0597 H   0  0  0  0  0  0  0  0  0  0  0  0
   21.8328   22.3149   24.9433 H   0  0  0  0  0  0  0  0  0  0  0  0
   20.5469   21.2310   25.5012 H   0  0  0  0  0  0  0  0  0  0  0  0
  1  2  1  0  0  0  0
  1  3  2  0  0  0  0
  1  4  1  0  0  0  0
  4  5  1  0  0  0  0
  4  6  1  0  0  0  0
  4  7  1  0  0  0  0
  7  8  1  0  0  0  0
  7  9  1  0  0  0  0
  7 10  1  0  0  0  0
 10 11  1  0  0  0  0
 10 12  1  0  0  0  0
 10 13  1  0  0  0  0
 13 14  1  0  0  0  0
 13 15  1  0  0  0  0
 13 16  1  0  0  0  0
 16 17  1  0  0  0  0
 16 18  1  0  0  0  0
 16 19  1  0  0  0  0
 19 20  1  0  0  0  0
 19 21  1  0  0  0  0
 19 22  1  0  0  0  0
 22 23  1  0  0  0  0
 22 24  1  0  0  0  0
 22 25  1  0  0  0  0
M  END
> <VConfSearch Rank>
59

> <Conf_Id>
29

> <Delta U+W>
0.850

> <U+W>
-50.780

> <U>
8.646

> <W>
-59.426

> <W(PB)>
-61.868

> <W(SA)>
2.442

> <Valence>
8.924

> <Coulomb>
-1.171

> <VdW>
0.894

> <VdW6>
-10.223

> <VdW12>
11.117

> <Bond>
0.231

> <Angle>
3.232

> <Pdih>
5.461

> <Idih>
0.001

> <Tether>
0.000

$$$$
VeraChem MOL file


 25 24  0  0  0  0  0  0  0  0999 V2000     
   16.1163   19.8586   22.9016 C   0  0  0  0  0  0  0  0  0  0  0  0
   15.7846   18.9564   22.1583 O   0  5  0  0  0  0  0  0  0  0  0  0
   15.5936   20.9556   22.9041 O   0  0  0  0  0  0  0  0  0  0  0  0
   17.2647   19.6065   23.8721 C   0  0  0  0  0  0  0  0  0  0  0  0
   17.2427   18.5481   24.1585 H   0  0  0  0  0  0  0  0  0  0  0  0
   17.0783   20.1924   24.7800 H   0  0  0  0  0  0  0  0  0  0  0  0
   18.6469   19.9690   23.2753 C   0  0  0  0  0  0  0  0  0  0  0  0
   18.8018   19.3853   22.3582 H   0  0  0  0  0  0  0  0  0  0  0  0
   18.6514   21.0288   22.9856 H   0  0  0  0  0  0  0  0  0  0  0  0
   19.7933   19.6970   24.2766 C   0  0  0  0  0  0  0  0  0  0  0  0
   19.8149   18.6304   24.5360 H   0  0  0  0  0  0  0  0  0  0  0  0
   19.5854   20.2338   25.2121 H   0  0  0  0  0  0  0  0  0  0  0  0
   21.1837   20.1418   23.7577 C   0  0  0  0  0  0  0  0  0  0  0  0
   21.1699   21.2279   23.5944 H   0  0  0  0  0  0  0  0  0  0  0  0
   21.9280   19.9699   24.5462 H   0  0  0  0  0  0  0  0  0  0  0  0
   21.6553   19.4511   22.4506 C   0  0  0  0  0  0  0  0  0  0  0  0
   22.6541   19.8304   22.1955 H   0  0  0  0  0  0  0  0  0  0  0  0
   21.0025   19.7562   21.6224 H   0  0  0  0  0  0  0  0  0  0  0  0
   21.7084   17.9044   22.5041 C   0  0  0  0  0  0  0  0  0  0  0  0
   20.7021   17.4973   22.6701 H   0  0  0  0  0  0  0  0  0  0  0  0
   22.0290   17.5307   21.5220 H   0  0  0  0  0  0  0  0  0  0  0  0
   22.6739   17.3639   23.5811 C   0  0  0  0  0  0  0  0  0  0  0  0
   22.3314   17.6248   24.5903 H   0  0  0  0  0  0  0  0  0  0  0  0
   22.7395   16.2697   23.5241 H   0  0  0  0  0  0  0  0  0  0  0  0
   23.6837   17.7716   23.4435 H   0  0  0  0  0  0  0  0  0  0  0  0
  1  2  1  0  0  0  0
  1  3  2  0  0  0  0
  1  4  1  0  0  0  0
  4  5  1  0  0  0  0
  4  6  1  0  0  0  0
  4  7  1  0  0  0  0
  7  8  1  0  0  0  0
  7  9  1  0  0  0  0
  7 10  1  0  0  0  0
 10 11  1  0  0  0  0
 10 12  1  0  0  0  0
 10 13  1  0  0  0  0
 13 14  1  0  0  0  0
 13 15  1  0  0  0  0
 13 16  1  0  0  0  0
 16 17  1  0  0  0  0
 16 18  1  0  0  0  0
 16 19  1  0  0  0  0
 19 20  1  0  0  0  0
 19 21  1  0  0  0  0
 19 22  1  0  0  0  0
 22 23  1  0  0  0  0
 22 24  1  0  0  0  0
 22 25  1  0  0  0  0
M  END
> <VConfSearch Rank>
60

> <Conf_Id>
30

> <Delta U+W>
0.843

> <U+W>
-50.787

> <U>
8.647

> <W>
-59.434

> <W(PB)>
-61.861

> <W(SA)>
2.428

> <Valence>
8.924

> <Coulomb>
-1.170

> <VdW>
0.894

> <VdW6>
-10.224

> <VdW12>
11.118

> <Bond>
0.231

> <Angle>
3.232

> <Pdih>
5.460

> <Idih>
0.000

> <Tether>
0.000

$$$$
VeraChem MOL file


 25 24  0  0  0  0  0  0  0  0999 V2000     
   17.6625   16.1763   20.4223 C   0  0  0  0  0  0  0  0  0  0  0  0
   16.9275   15.8299   21.3269 O   0  5  0  0  0  0  0  0  0  0  0  0
   17.5804   15.7336   19.2938 O   0  0  0  0  0  0  0  0  0  0  0  0
   18.7522   17.2166   20.6863 C   0  0  0  0  0  0  0  0  0  0  0  0
   18.5848   18.0486   19.9923 H   0  0  0  0  0  0  0  0  0  0  0  0
   19.7118   16.7608   20.4156 H   0  0  0  0  0  0  0  0  0  0  0  0
   18.8177   17.7522   22.1414 C   0  0  0  0  0  0  0  0  0  0  0  0
   17.8511   18.2018   22.4082 H   0  0  0  0  0  0  0  0  0  0  0  0
   18.9791   16.9128   22.8319 H   0  0  0  0  0  0  0  0  0  0  0  0
   19.9425   18.7951   22.3195 C   0  0  0  0  0  0  0  0  0  0  0  0
   19.7791   19.6333   21.6282 H   0  0  0  0  0  0  0  0  0  0  0  0
   20.9078   18.3435   22.0522 H   0  0  0  0  0  0  0  0  0  0  0  0
   20.0059   19.3266   23.7676 C   0  0  0  0  0  0  0  0  0  0  0  0
   19.0407   19.7783   24.0351 H   0  0  0  0  0  0  0  0  0  0  0  0
   20.1694   18.4887   24.4591 H   0  0  0  0  0  0  0  0  0  0  0  0
   21.1303   20.3695   23.9463 C   0  0  0  0  0  0  0  0  0  0  0  0
   20.9670   21.2076   23.2549 H   0  0  0  0  0  0  0  0  0  0  0  0
   22.0956   19.9179   23.6789 H   0  0  0  0  0  0  0  0  0  0  0  0
   21.1937   20.9008   25.3937 C   0  0  0  0  0  0  0  0  0  0  0  0
   20.2303   21.3550   25.6641 H   0  0  0  0  0  0  0  0  0  0  0  0
   21.3589   20.0654   26.0881 H   0  0  0  0  0  0  0  0  0  0  0  0
   22.3178   21.9418   25.5681 C   0  0  0  0  0  0  0  0  0  0  0  0
   22.1604   22.8043   24.9071 H   0  0  0  0  0  0  0  0  0  0  0  0
   22.3483   22.3087   26.6023 H   0  0  0  0  0  0  0  0  0  0  0  0
   23.2975   21.5050   25.3343 H   0  0  0  0  0  0  0  0  0  0  0  0
  1  2  1  0  0  0  0
  1  3  2  0  0  0  0
  1  4  1  0  0  0  0
  4  5  1  0  0  0  0
  4  6  1  0  0  0  0
  4  7  1  0  0  0  0
  7  8  1  0  0  0  0
  7  9  1  0  0  0  0
  7 10  1  0  0  0  0
 10 11  1  0  0  0  0
 10 12  1  0  0  0  0
 10 13  1  0  0  0  0
 13 14  1  0  0  0  0
 13 15  1  0  0  0  0
 13 16  1  0  0  0  0
 16 17  1  0  0  0  0
 16 18  1  0  0  0  0
 16 19  1  0  0  0  0
 19 20  1  0  0  0  0
 19 21  1  0  0  0  0
 19 22  1  0  0  0  0
 22 23  1  0  0  0  0
 22 24  1  0  0  0  0
 22 25  1  0  0  0  0
M  END
> <VConfSearch Rank>
61

> <Conf_Id>
0

> <Delta U+W>
0.000

> <U+W>
-51.629

> <U>
6.586

> <W>
-58.216

> <W(PB)>
-60.757

> <W(SA)>
2.541

> <Valence>
8.027

> <Coulomb>
-2.892

> <VdW>
1.451

> <VdW6>
-7.931

> <VdW12>
9.383

> <Bond>
0.149

> <Angle>
2.726

> <Pdih>
5.152

> <Idih>
0.000

> <Tether>
0.000

$$$$
VeraChem MOL file


 25 24  0  0  0  0  0  0  0  0999 V2000     
   16.2137   17.4640   25.0739 C   0  0  0  0  0  0  0  0  0  0  0  0
   15.3657   17.1197   24.2745 O   0  5  0  0  0  0  0  0  0  0  0  0
   16.3769   16.9314   26.1538 O   0  0  0  0  0  0  0  0  0  0  0  0
   17.1394   18.6131   24.6909 C   0  0  0  0  0  0  0  0  0  0  0  0
   17.4088   19.1531   25.6066 H   0  0  0  0  0  0  0  0  0  0  0  0
   16.5751   19.3087   24.0583 H   0  0  0  0  0  0  0  0  0  0  0  0
   18.4164   18.1371   23.9555 C   0  0  0  0  0  0  0  0  0  0  0  0
   18.9628   17.4316   24.5968 H   0  0  0  0  0  0  0  0  0  0  0  0
   18.1291   17.5870   23.0486 H   0  0  0  0  0  0  0  0  0  0  0  0
   19.3367   19.3182   23.5785 C   0  0  0  0  0  0  0  0  0  0  0  0
   19.6212   19.8666   24.4871 H   0  0  0  0  0  0  0  0  0  0  0  0
   18.7871   20.0222   22.9386 H   0  0  0  0  0  0  0  0  0  0  0  0
   20.6087   18.8406   22.8453 C   0  0  0  0  0  0  0  0  0  0  0  0
   21.1585   18.1366   23.4851 H   0  0  0  0  0  0  0  0  0  0  0  0
   20.3244   18.2922   21.9367 H   0  0  0  0  0  0  0  0  0  0  0  0
   21.5295   20.0211   22.4680 C   0  0  0  0  0  0  0  0  0  0  0  0
   21.8140   20.5697   23.3764 H   0  0  0  0  0  0  0  0  0  0  0  0
   20.9800   20.7253   21.8282 H   0  0  0  0  0  0  0  0  0  0  0  0
   22.8009   19.5440   21.7351 C   0  0  0  0  0  0  0  0  0  0  0  0
   23.3543   18.8407   22.3728 H   0  0  0  0  0  0  0  0  0  0  0  0
   22.5203   18.9964   20.8246 H   0  0  0  0  0  0  0  0  0  0  0  0
   23.7177   20.7257   21.3600 C   0  0  0  0  0  0  0  0  0  0  0  0
   24.6162   20.3685   20.8401 H   0  0  0  0  0  0  0  0  0  0  0  0
   23.1993   21.4297   20.6959 H   0  0  0  0  0  0  0  0  0  0  0  0
   24.0396   21.2729   22.2557 H   0  0  0  0  0  0  0  0  0  0  0  0
  1  2  1  0  0  0  0
  1  3  2  0  0  0  0
  1  4  1  0  0  0  0
  4  5  1  0  0  0  0
  4  6  1  0  0  0  0
  4  7  1  0  0  0  0
  7  8  1  0  0  0  0
  7  9  1  0  0  0  0
  7 10  1  0  0  0  0
 10 11  1  0  0  0  0
 10 12  1  0  0  0  0
 10 13  1  0  0  0  0
 13 14  1  0  0  0  0
 13 15  1  0  0  0  0
 13 16  1  0  0  0  0
 16 17  1  0  0  0  0
 16 18  1  0  0  0  0
 16 19  1  0  0  0  0
 19 20  1  0  0  0  0
 19 21  1  0  0  0  0
 19 22  1  0  0  0  0
 22 23  1  0  0  0  0
 22 24  1  0  0  0  0
 22 25  1  0  0  0  0
M  END
> <VConfSearch Rank>
62

> <Conf_Id>
27

> <Delta U+W>
-1.297

> <U+W>
-52.926

> <U>
5.617

> <W>
-58.543

> <W(PB)>
-61.065

> <W(SA)>
2.522

> <Valence>
7.531

> <Coulomb>
-2.818

> <VdW>
0.904

> <VdW6>
-7.640

> <VdW12>
8.544

> <Bond>
0.115

> <Angle>
2.271

> <Pdih>
5.144

> <Idih>
0.001

> <Tether>
0.000

$$$$
VeraChem MOL file


 25 24  0  0  0  0  0  0  0  0999 V2000     
   16.8064   18.1073   25.2288 C   0  0  0  0  0  0  0  0  0  0  0  0
   16.7961   18.4093   26.4059 O   0  5  0  0  0  0  0  0  0  0  0  0
   16.0829   18.6184   24.3967 O   0  0  0  0  0  0  0  0  0  0  0  0
   17.7700   17.0140   24.7758 C   0  0  0  0  0  0  0  0  0  0  0  0
   17.4290   16.6256   23.8084 H   0  0  0  0  0  0  0  0  0  0  0  0
   17.6915   16.1896   25.4943 H   0  0  0  0  0  0  0  0  0  0  0  0
   19.2468   17.4766   24.6770 C   0  0  0  0  0  0  0  0  0  0  0  0
   19.5648   17.8881   25.6451 H   0  0  0  0  0  0  0  0  0  0  0  0
   19.8820   16.6020   24.4814 H   0  0  0  0  0  0  0  0  0  0  0  0
   19.4678   18.5258   23.5644 C   0  0  0  0  0  0  0  0  0  0  0  0
   18.8485   19.4117   23.7625 H   0  0  0  0  0  0  0  0  0  0  0  0
   19.1359   18.1147   22.6011 H   0  0  0  0  0  0  0  0  0  0  0  0
   20.9493   18.9482   23.4627 C   0  0  0  0  0  0  0  0  0  0  0  0
   21.2802   19.3592   24.4264 H   0  0  0  0  0  0  0  0  0  0  0  0
   21.5701   18.0644   23.2615 H   0  0  0  0  0  0  0  0  0  0  0  0
   21.1706   19.9972   22.3516 C   0  0  0  0  0  0  0  0  0  0  0  0
   20.5498   20.8811   22.5526 H   0  0  0  0  0  0  0  0  0  0  0  0
   20.8395   19.5865   21.3879 H   0  0  0  0  0  0  0  0  0  0  0  0
   22.6513   20.4200   22.2500 C   0  0  0  0  0  0  0  0  0  0  0  0
   22.9854   20.8331   23.2119 H   0  0  0  0  0  0  0  0  0  0  0  0
   23.2752   19.5385   22.0470 H   0  0  0  0  0  0  0  0  0  0  0  0
   22.8680   21.4677   21.1396 C   0  0  0  0  0  0  0  0  0  0  0  0
   22.2792   22.3737   21.3341 H   0  0  0  0  0  0  0  0  0  0  0  0
   23.9254   21.7567   21.0813 H   0  0  0  0  0  0  0  0  0  0  0  0
   22.5710   21.0695   20.1604 H   0  0  0  0  0  0  0  0  0  0  0  0
  1  2  1  0  0  0  0
  1  3  2  0  0  0  0
  1  4  1  0  0  0  0
  4  5  1  0  0  0  0
  4  6  1  0  0  0  0
  4  7  1  0  0  0  0
  7  8  1  0  0  0  0
  7  9  1  0  0  0  0
  7 10  1  0  0  0  0
 10 11  1  0  0  0  0
 10 12  1  0  0  0  0
 10 13  1  0  0  0  0
 13 14  1  0  0  0  0
 13 15  1  0  0  0  0
 13 16  1  0  0  0  0
 16 17  1  0  0  0  0
 16 18  1  0  0  0  0
 16 19  1  0  0  0  0
 19 20  1  0  0  0  0
 19 21  1  0  0  0  0
 19 22  1  0  0  0  0
 22 23  1  0  0  0  0
 22 24  1  0  0  0  0
 22 25  1  0  0  0  0
M  END
> <VConfSearch Rank>
63

> <Conf_Id>
37

> <Delta U+W>
-0.230

> <U+W>
-51.860

> <U>
7.816

> <W>
-59.675

> <W(PB)>
-62.180

> <W(SA)>
2.505

> <Valence>
7.785

> <Coulomb>
-0.713

> <VdW>
0.744

> <VdW6>
-8.514

> <VdW12>
9.259

> <Bond>
0.136

> <Angle>
2.433

> <Pdih>
5.216

> <Idih>
0.000

> <Tether>
0.000

$$$$
VeraChem MOL file


 25 24  0  0  0  0  0  0  0  0999 V2000     
   22.9260   17.4078   25.3053 C   0  0  0  0  0  0  0  0  0  0  0  0
   23.5634   16.6461   24.6048 O   0  5  0  0  0  0  0  0  0  0  0  0
   22.2105   17.0436   26.2176 O   0  0  0  0  0  0  0  0  0  0  0  0
   23.0448   18.9046   25.0326 C   0  0  0  0  0  0  0  0  0  0  0  0
   24.1097   19.1307   24.9030 H   0  0  0  0  0  0  0  0  0  0  0  0
   22.7104   19.4503   25.9232 H   0  0  0  0  0  0  0  0  0  0  0  0
   22.2579   19.3824   23.7846 C   0  0  0  0  0  0  0  0  0  0  0  0
   22.5090   20.4331   23.5857 H   0  0  0  0  0  0  0  0  0  0  0  0
   22.5842   18.8076   22.9066 H   0  0  0  0  0  0  0  0  0  0  0  0
   20.7285   19.2483   23.9591 C   0  0  0  0  0  0  0  0  0  0  0  0
   20.4092   19.8135   24.8455 H   0  0  0  0  0  0  0  0  0  0  0  0
   20.4674   18.1966   24.1413 H   0  0  0  0  0  0  0  0  0  0  0  0
   19.9644   19.7588   22.7184 C   0  0  0  0  0  0  0  0  0  0  0  0
   20.2217   20.8112   22.5360 H   0  0  0  0  0  0  0  0  0  0  0  0
   20.2842   19.1929   21.8326 H   0  0  0  0  0  0  0  0  0  0  0  0
   18.4361   19.6244   22.8918 C   0  0  0  0  0  0  0  0  0  0  0  0
   18.1162   20.1900   23.7778 H   0  0  0  0  0  0  0  0  0  0  0  0
   18.1787   18.5720   23.0744 H   0  0  0  0  0  0  0  0  0  0  0  0
   17.6720   20.1340   21.6517 C   0  0  0  0  0  0  0  0  0  0  0  0
   17.9258   21.1871   21.4671 H   0  0  0  0  0  0  0  0  0  0  0  0
   17.9882   19.5690   20.7638 H   0  0  0  0  0  0  0  0  0  0  0  0
   16.1464   19.9980   21.8289 C   0  0  0  0  0  0  0  0  0  0  0  0
   15.7979   20.5795   22.6925 H   0  0  0  0  0  0  0  0  0  0  0  0
   15.6192   20.3646   20.9385 H   0  0  0  0  0  0  0  0  0  0  0  0
   15.8608   18.9493   21.9840 H   0  0  0  0  0  0  0  0  0  0  0  0
  1  2  1  0  0  0  0
  1  3  2  0  0  0  0
  1  4  1  0  0  0  0
  4  5  1  0  0  0  0
  4  6  1  0  0  0  0
  4  7  1  0  0  0  0
  7  8  1  0  0  0  0
  7  9  1  0  0  0  0
  7 10  1  0  0  0  0
 10 11  1  0  0  0  0
 10 12  1  0  0  0  0
 10 13  1  0  0  0  0
 13 14  1  0  0  0  0
 13 15  1  0  0  0  0
 13 16  1  0  0  0  0
 16 17  1  0  0  0  0
 16 18  1  0  0  0  0
 16 19  1  0  0  0  0
 19 20  1  0  0  0  0
 19 21  1  0  0  0  0
 19 22  1  0  0  0  0
 22 23  1  0  0  0  0
 22 24  1  0  0  0  0
 22 25  1  0  0  0  0
M  END
> <VConfSearch Rank>
64

> <Conf_Id>
54

> <Delta U+W>
-0.224

> <U+W>
-51.854

> <U>
7.816

> <W>
-59.670

> <W(PB)>
-62.157

> <W(SA)>
2.487

> <Valence>
7.785

> <Coulomb>
-0.713

> <VdW>
0.744

> <VdW6>
-8.515

> <VdW12>
9.259

> <Bond>
0.136

> <Angle>
2.433

> <Pdih>
5.215

> <Idih>
0.000

> <Tether>
0.000

$$$$
VeraChem MOL file


 25 24  0  0  0  0  0  0  0  0999 V2000     
   23.6858   19.3238   21.3641 C   0  0  0  0  0  0  0  0  0  0  0  0
   24.4052   19.9770   22.0941 O   0  5  0  0  0  0  0  0  0  0  0  0
   24.0049   18.2516   20.8893 O   0  0  0  0  0  0  0  0  0  0  0  0
   22.3131   19.8879   21.0080 C   0  0  0  0  0  0  0  0  0  0  0  0
   22.1833   19.7726   19.9255 H   0  0  0  0  0  0  0  0  0  0  0  0
   22.3122   20.9649   21.2149 H   0  0  0  0  0  0  0  0  0  0  0  0
   21.1356   19.1997   21.7466 C   0  0  0  0  0  0  0  0  0  0  0  0
   20.1953   19.5616   21.3122 H   0  0  0  0  0  0  0  0  0  0  0  0
   21.1744   18.1170   21.5633 H   0  0  0  0  0  0  0  0  0  0  0  0
   21.1481   19.4750   23.2698 C   0  0  0  0  0  0  0  0  0  0  0  0
   21.0632   20.5548   23.4529 H   0  0  0  0  0  0  0  0  0  0  0  0
   22.1189   19.1675   23.6822 H   0  0  0  0  0  0  0  0  0  0  0  0
   20.0351   18.7285   24.0437 C   0  0  0  0  0  0  0  0  0  0  0  0
   20.1088   17.6506   23.8453 H   0  0  0  0  0  0  0  0  0  0  0  0
   20.2228   18.8606   25.1168 H   0  0  0  0  0  0  0  0  0  0  0  0
   18.6074   19.2262   23.7078 C   0  0  0  0  0  0  0  0  0  0  0  0
   18.4146   19.0883   22.6365 H   0  0  0  0  0  0  0  0  0  0  0  0
   18.5358   20.3050   23.9015 H   0  0  0  0  0  0  0  0  0  0  0  0
   17.4985   18.4854   24.4913 C   0  0  0  0  0  0  0  0  0  0  0  0
   16.5216   18.7976   24.0971 H   0  0  0  0  0  0  0  0  0  0  0  0
   17.5746   17.4044   24.3098 H   0  0  0  0  0  0  0  0  0  0  0  0
   17.5298   18.7618   26.0104 C   0  0  0  0  0  0  0  0  0  0  0  0
   18.4376   18.3564   26.4740 H   0  0  0  0  0  0  0  0  0  0  0  0
   17.4899   19.8397   26.2146 H   0  0  0  0  0  0  0  0  0  0  0  0
   16.6685   18.2927   26.5032 H   0  0  0  0  0  0  0  0  0  0  0  0
  1  2  1  0  0  0  0
  1  3  2  0  0  0  0
  1  4  1  0  0  0  0
  4  5  1  0  0  0  0
  4  6  1  0  0  0  0
  4  7  1  0  0  0  0
  7  8  1  0  0  0  0
  7  9  1  0  0  0  0
  7 10  1  0  0  0  0
 10 11  1  0  0  0  0
 10 12  1  0  0  0  0
 10 13  1  0  0  0  0
 13 14  1  0  0  0  0
 13 15  1  0  0  0  0
 13 16  1  0  0  0  0
 16 17  1  0  0  0  0
 16 18  1  0  0  0  0
 16 19  1  0  0  0  0
 19 20  1  0  0  0  0
 19 21  1  0  0  0  0
 19 22  1  0  0  0  0
 22 23  1  0  0  0  0
 22 24  1  0  0  0  0
 22 25  1  0  0  0  0
M  END
> <VConfSearch Rank>
65

> <Conf_Id>
101

> <Delta U+W>
1.534

> <U+W>
-50.095

> <U>
9.416

> <W>
-59.512

> <W(PB)>
-61.988

> <W(SA)>
2.476

> <Valence>
8.939

> <Coulomb>
-0.615

> <VdW>
1.092

> <VdW6>
-9.710

> <VdW12>
10.802

> <Bond>
0.216

> <Angle>
2.979

> <Pdih>
5.743

> <Idih>
0.000

> <Tether>
0.000

$$$$
VeraChem MOL file


 25 24  0  0  0  0  0  0  0  0999 V2000     
   23.1095   20.4652   25.8856 C   0  0  0  0  0  0  0  0  0  0  0  0
   22.6543   20.4286   27.0117 O   0  5  0  0  0  0  0  0  0  0  0  0
   24.2997   20.4611   25.6402 O   0  0  0  0  0  0  0  0  0  0  0  0
   22.1334   20.4951   24.7149 C   0  0  0  0  0  0  0  0  0  0  0  0
   22.5982   21.0616   23.8992 H   0  0  0  0  0  0  0  0  0  0  0  0
   21.2470   21.0536   25.0356 H   0  0  0  0  0  0  0  0  0  0  0  0
   21.7409   19.0766   24.2256 C   0  0  0  0  0  0  0  0  0  0  0  0
   22.6593   18.5143   24.0069 H   0  0  0  0  0  0  0  0  0  0  0  0
   21.2322   18.5358   25.0356 H   0  0  0  0  0  0  0  0  0  0  0  0
   20.8509   19.0802   22.9597 C   0  0  0  0  0  0  0  0  0  0  0  0
   20.7494   18.0434   22.6145 H   0  0  0  0  0  0  0  0  0  0  0  0
   21.3572   19.6297   22.1545 H   0  0  0  0  0  0  0  0  0  0  0  0
   19.4435   19.6803   23.1984 C   0  0  0  0  0  0  0  0  0  0  0  0
   18.9373   19.1307   24.0025 H   0  0  0  0  0  0  0  0  0  0  0  0
   19.5424   20.7142   23.5518 H   0  0  0  0  0  0  0  0  0  0  0  0
   18.5550   19.6977   21.9285 C   0  0  0  0  0  0  0  0  0  0  0  0
   19.0375   20.3239   21.1658 H   0  0  0  0  0  0  0  0  0  0  0  0
   17.6061   20.1948   22.1717 H   0  0  0  0  0  0  0  0  0  0  0  0
   18.2456   18.3107   21.3119 C   0  0  0  0  0  0  0  0  0  0  0  0
   17.6168   18.4567   20.4229 H   0  0  0  0  0  0  0  0  0  0  0  0
   19.1702   17.8395   20.9535 H   0  0  0  0  0  0  0  0  0  0  0  0
   17.5173   17.3570   22.2835 C   0  0  0  0  0  0  0  0  0  0  0  0
   16.6007   17.8182   22.6736 H   0  0  0  0  0  0  0  0  0  0  0  0
   17.2373   16.4273   21.7717 H   0  0  0  0  0  0  0  0  0  0  0  0
   18.1575   17.0888   23.1333 H   0  0  0  0  0  0  0  0  0  0  0  0
  1  2  1  0  0  0  0
  1  3  2  0  0  0  0
  1  4  1  0  0  0  0
  4  5  1  0  0  0  0
  4  6  1  0  0  0  0
  4  7  1  0  0  0  0
  7  8  1  0  0  0  0
  7  9  1  0  0  0  0
  7 10  1  0  0  0  0
 10 11  1  0  0  0  0
 10 12  1  0  0  0  0
 10 13  1  0  0  0  0
 13 14  1  0  0  0  0
 13 15  1  0  0  0  0
 13 16  1  0  0  0  0
 16 17  1  0  0  0  0
 16 18  1  0  0  0  0
 16 19  1  0  0  0  0
 19 20  1  0  0  0  0
 19 21  1  0  0  0  0
 19 22  1  0  0  0  0
 22 23  1  0  0  0  0
 22 24  1  0  0  0  0
 22 25  1  0  0  0  0
M  END
> <VConfSearch Rank>
66

> <Conf_Id>
75

> <Delta U+W>
1.014

> <U+W>
-50.615

> <U>
8.474

> <W>
-59.089

> <W(PB)>
-61.530

> <W(SA)>
2.441

> <Valence>
9.080

> <Coulomb>
-1.772

> <VdW>
1.165

> <VdW6>
-9.830

> <VdW12>
10.996

> <Bond>
0.240

> <Angle>
3.225

> <Pdih>
5.615

> <Idih>
0.001

> <Tether>
0.000

$$$$
VeraChem MOL file


 25 24  0  0  0  0  0  0  0  0999 V2000     
   17.7238   22.2478   21.5800 C   0  0  0  0  0  0  0  0  0  0  0  0
   16.5558   21.9922   21.7967 O   0  5  0  0  0  0  0  0  0  0  0  0
   18.1440   23.3731   21.3962 O   0  0  0  0  0  0  0  0  0  0  0  0
   18.7210   21.0948   21.5586 C   0  0  0  0  0  0  0  0  0  0  0  0
   19.5139   21.3434   20.8430 H   0  0  0  0  0  0  0  0  0  0  0  0
   18.2056   20.2058   21.1757 H   0  0  0  0  0  0  0  0  0  0  0  0
   19.3306   20.8009   22.9515 C   0  0  0  0  0  0  0  0  0  0  0  0
   19.8316   21.7041   23.3265 H   0  0  0  0  0  0  0  0  0  0  0  0
   18.5229   20.5669   23.6588 H   0  0  0  0  0  0  0  0  0  0  0  0
   20.3351   19.6292   22.9038 C   0  0  0  0  0  0  0  0  0  0  0  0
   21.1402   19.8673   22.1953 H   0  0  0  0  0  0  0  0  0  0  0  0
   19.8311   18.7352   22.5180 H   0  0  0  0  0  0  0  0  0  0  0  0
   20.9456   19.3435   24.2960 C   0  0  0  0  0  0  0  0  0  0  0  0
   21.4669   20.2499   24.6332 H   0  0  0  0  0  0  0  0  0  0  0  0
   20.1510   19.1561   25.0311 H   0  0  0  0  0  0  0  0  0  0  0  0
   21.9557   18.1679   24.2944 C   0  0  0  0  0  0  0  0  0  0  0  0
   22.7610   18.4089   25.0018 H   0  0  0  0  0  0  0  0  0  0  0  0
   22.4385   18.0815   23.3114 H   0  0  0  0  0  0  0  0  0  0  0  0
   21.3592   16.8022   24.7160 C   0  0  0  0  0  0  0  0  0  0  0  0
   22.1727   16.0649   24.7587 H   0  0  0  0  0  0  0  0  0  0  0  0
   20.9572   16.8752   25.7360 H   0  0  0  0  0  0  0  0  0  0  0  0
   20.2614   16.2724   23.7702 C   0  0  0  0  0  0  0  0  0  0  0  0
   20.6133   16.2511   22.7307 H   0  0  0  0  0  0  0  0  0  0  0  0
   19.9725   15.2515   24.0512 H   0  0  0  0  0  0  0  0  0  0  0  0
   19.3605   16.8963   23.8215 H   0  0  0  0  0  0  0  0  0  0  0  0
  1  2  1  0  0  0  0
  1  3  2  0  0  0  0
  1  4  1  0  0  0  0
  4  5  1  0  0  0  0
  4  6  1  0  0  0  0
  4  7  1  0  0  0  0
  7  8  1  0  0  0  0
  7  9  1  0  0  0  0
  7 10  1  0  0  0  0
 10 11  1  0  0  0  0
 10 12  1  0  0  0  0
 10 13  1  0  0  0  0
 13 14  1  0  0  0  0
 13 15  1  0  0  0  0
 13 16  1  0  0  0  0
 16 17  1  0  0  0  0
 16 18  1  0  0  0  0
 16 19  1  0  0  0  0
 19 20  1  0  0  0  0
 19 21  1  0  0  0  0
 19 22  1  0  0  0  0
 22 23  1  0  0  0  0
 22 24  1  0  0  0  0
 22 25  1  0  0  0  0
M  END
> <VConfSearch Rank>
67

> <Conf_Id>
125

> <Delta U+W>
2.314

> <U+W>
-49.315

> <U>
9.740

> <W>
-59.054

> <W(PB)>
-61.488

> <W(SA)>
2.433

> <Valence>
10.506

> <Coulomb>
-1.761

> <VdW>
0.994

> <VdW6>
-9.209

> <VdW12>
10.203

> <Bond>
0.193

> <Angle>
2.979

> <Pdih>
7.334

> <Idih>
0.001

> <Tether>
0.000

$$$$
VeraChem MOL file


 25 24  0  0  0  0  0  0  0  0999 V2000     
   16.9263   16.8282   22.1746 C   0  0  0  0  0  0  0  0  0  0  0  0
   15.9391   17.4771   22.4594 O   0  5  0  0  0  0  0  0  0  0  0  0
   16.8864   15.6781   21.7843 O   0  0  0  0  0  0  0  0  0  0  0  0
   18.2920   17.4853   22.3391 C   0  0  0  0  0  0  0  0  0  0  0  0
   18.1766   18.5525   22.1189 H   0  0  0  0  0  0  0  0  0  0  0  0
   18.9643   17.0668   21.5807 H   0  0  0  0  0  0  0  0  0  0  0  0
   18.8893   17.2802   23.7556 C   0  0  0  0  0  0  0  0  0  0  0  0
   18.2304   17.7446   24.5023 H   0  0  0  0  0  0  0  0  0  0  0  0
   18.9027   16.2047   23.9802 H   0  0  0  0  0  0  0  0  0  0  0  0
   20.3253   17.8360   23.9077 C   0  0  0  0  0  0  0  0  0  0  0  0
   20.9836   17.3628   23.1663 H   0  0  0  0  0  0  0  0  0  0  0  0
   20.7086   17.5440   24.8950 H   0  0  0  0  0  0  0  0  0  0  0  0
   20.4074   19.3741   23.7703 C   0  0  0  0  0  0  0  0  0  0  0  0
   20.0907   19.6703   22.7630 H   0  0  0  0  0  0  0  0  0  0  0  0
   19.7114   19.8435   24.4788 H   0  0  0  0  0  0  0  0  0  0  0  0
   21.8399   19.8936   24.0333 C   0  0  0  0  0  0  0  0  0  0  0  0
   22.5309   19.4620   23.2963 H   0  0  0  0  0  0  0  0  0  0  0  0
   22.1741   19.5391   25.0179 H   0  0  0  0  0  0  0  0  0  0  0  0
   21.9500   21.4359   24.0043 C   0  0  0  0  0  0  0  0  0  0  0  0
   21.2640   21.8708   24.7443 H   0  0  0  0  0  0  0  0  0  0  0  0
   22.9640   21.7226   24.3156 H   0  0  0  0  0  0  0  0  0  0  0  0
   21.6671   22.0438   22.6133 C   0  0  0  0  0  0  0  0  0  0  0  0
   20.6249   21.8833   22.3101 H   0  0  0  0  0  0  0  0  0  0  0  0
   21.8465   23.1266   22.6240 H   0  0  0  0  0  0  0  0  0  0  0  0
   22.3203   21.6005   21.8505 H   0  0  0  0  0  0  0  0  0  0  0  0
  1  2  1  0  0  0  0
  1  3  2  0  0  0  0
  1  4  1  0  0  0  0
  4  5  1  0  0  0  0
  4  6  1  0  0  0  0
  4  7  1  0  0  0  0
  7  8  1  0  0  0  0
  7  9  1  0  0  0  0
  7 10  1  0  0  0  0
 10 11  1  0  0  0  0
 10 12  1  0  0  0  0
 10 13  1  0  0  0  0
 13 14  1  0  0  0  0
 13 15  1  0  0  0  0
 13 16  1  0  0  0  0
 16 17  1  0  0  0  0
 16 18  1  0  0  0  0
 16 19  1  0  0  0  0
 19 20  1  0  0  0  0
 19 21  1  0  0  0  0
 19 22  1  0  0  0  0
 22 23  1  0  0  0  0
 22 24  1  0  0  0  0
 22 25  1  0  0  0  0
M  END
> <VConfSearch Rank>
68

> <Conf_Id>
4

> <Delta U+W>
0.189

> <U+W>
-51.441

> <U>
7.701

> <W>
-59.141

> <W(PB)>
-61.609

> <W(SA)>
2.467

> <Valence>
8.550

> <Coulomb>
-1.988

> <VdW>
1.139

> <VdW6>
-8.988

> <VdW12>
10.127

> <Bond>
0.191

> <Angle>
2.738

> <Pdih>
5.621

> <Idih>
0.001

> <Tether>
0.000

$$$$
VeraChem MOL file


 25 24  0  0  0  0  0  0  0  0999 V2000     
   20.8807   18.4356   27.2219 C   0  0  0  0  0  0  0  0  0  0  0  0
   22.0443   18.0856   27.2378 O   0  5  0  0  0  0  0  0  0  0  0  0
   20.2240   18.6346   28.2248 O   0  0  0  0  0  0  0  0  0  0  0  0
   20.2147   18.6603   25.8692 C   0  0  0  0  0  0  0  0  0  0  0  0
   19.1504   18.4161   25.9693 H   0  0  0  0  0  0  0  0  0  0  0  0
   20.6481   17.9444   25.1618 H   0  0  0  0  0  0  0  0  0  0  0  0
   20.3842   20.1123   25.3513 C   0  0  0  0  0  0  0  0  0  0  0  0
   20.0264   20.8064   26.1244 H   0  0  0  0  0  0  0  0  0  0  0  0
   21.4522   20.3292   25.2103 H   0  0  0  0  0  0  0  0  0  0  0  0
   19.6156   20.3943   24.0383 C   0  0  0  0  0  0  0  0  0  0  0  0
   19.6951   21.4664   23.8121 H   0  0  0  0  0  0  0  0  0  0  0  0
   18.5470   20.1860   24.1854 H   0  0  0  0  0  0  0  0  0  0  0  0
   20.1425   19.5844   22.8310 C   0  0  0  0  0  0  0  0  0  0  0  0
   21.2215   19.7559   22.7167 H   0  0  0  0  0  0  0  0  0  0  0  0
   20.0045   18.5129   23.0191 H   0  0  0  0  0  0  0  0  0  0  0  0
   19.4165   19.9752   21.5227 C   0  0  0  0  0  0  0  0  0  0  0  0
   19.5054   21.0600   21.3744 H   0  0  0  0  0  0  0  0  0  0  0  0
   18.3432   19.7610   21.6172 H   0  0  0  0  0  0  0  0  0  0  0  0
   19.9781   19.2617   20.2708 C   0  0  0  0  0  0  0  0  0  0  0  0
   19.4923   19.6809   19.3789 H   0  0  0  0  0  0  0  0  0  0  0  0
   21.0507   19.4781   20.1702 H   0  0  0  0  0  0  0  0  0  0  0  0
   19.7556   17.7337   20.2856 C   0  0  0  0  0  0  0  0  0  0  0  0
   18.6928   17.4926   20.4172 H   0  0  0  0  0  0  0  0  0  0  0  0
   20.0885   17.2882   19.3393 H   0  0  0  0  0  0  0  0  0  0  0  0
   20.3206   17.2542   21.0947 H   0  0  0  0  0  0  0  0  0  0  0  0
  1  2  1  0  0  0  0
  1  3  2  0  0  0  0
  1  4  1  0  0  0  0
  4  5  1  0  0  0  0
  4  6  1  0  0  0  0
  4  7  1  0  0  0  0
  7  8  1  0  0  0  0
  7  9  1  0  0  0  0
  7 10  1  0  0  0  0
 10 11  1  0  0  0  0
 10 12  1  0  0  0  0
 10 13  1  0  0  0  0
 13 14  1  0  0  0  0
 13 15  1  0  0  0  0
 13 16  1  0  0  0  0
 16 17  1  0  0  0  0
 16 18  1  0  0  0  0
 16 19  1  0  0  0  0
 19 20  1  0  0  0  0
 19 21  1  0  0  0  0
 19 22  1  0  0  0  0
 22 23  1  0  0  0  0
 22 24  1  0  0  0  0
 22 25  1  0  0  0  0
M  END
> <VConfSearch Rank>
69

> <Conf_Id>
17

> <Delta U+W>
0.219

> <U+W>
-51.411

> <U>
7.701

> <W>
-59.111

> <W(PB)>
-61.599

> <W(SA)>
2.488

> <Valence>
8.550

> <Coulomb>
-1.988

> <VdW>
1.139

> <VdW6>
-8.988

> <VdW12>
10.127

> <Bond>
0.191

> <Angle>
2.738

> <Pdih>
5.621

> <Idih>
0.001

> <Tether>
0.000

$$$$
VeraChem MOL file


 25 24  0  0  0  0  0  0  0  0999 V2000     
   19.5448   22.3456   25.6462 C   0  0  0  0  0  0  0  0  0  0  0  0
   18.3856   22.7106   25.6416 O   0  5  0  0  0  0  0  0  0  0  0  0
   20.4637   23.0186   25.2222 O   0  0  0  0  0  0  0  0  0  0  0  0
   19.8691   20.9750   26.2339 C   0  0  0  0  0  0  0  0  0  0  0  0
   19.0367   20.6641   26.8768 H   0  0  0  0  0  0  0  0  0  0  0  0
   20.7441   21.0949   26.8835 H   0  0  0  0  0  0  0  0  0  0  0  0
   20.1600   19.8865   25.1683 C   0  0  0  0  0  0  0  0  0  0  0  0
   20.9824   20.2286   24.5262 H   0  0  0  0  0  0  0  0  0  0  0  0
   20.5089   18.9762   25.6741 H   0  0  0  0  0  0  0  0  0  0  0  0
   18.9163   19.5500   24.3111 C   0  0  0  0  0  0  0  0  0  0  0  0
   18.6015   20.4379   23.7455 H   0  0  0  0  0  0  0  0  0  0  0  0
   18.0810   19.2964   24.9781 H   0  0  0  0  0  0  0  0  0  0  0  0
   19.1413   18.3707   23.3353 C   0  0  0  0  0  0  0  0  0  0  0  0
   19.4477   17.4792   23.8995 H   0  0  0  0  0  0  0  0  0  0  0  0
   18.1815   18.1237   22.8614 H   0  0  0  0  0  0  0  0  0  0  0  0
   20.1825   18.6735   22.2329 C   0  0  0  0  0  0  0  0  0  0  0  0
   21.1672   18.8488   22.6853 H   0  0  0  0  0  0  0  0  0  0  0  0
   19.9021   19.5963   21.7068 H   0  0  0  0  0  0  0  0  0  0  0  0
   20.2925   17.5155   21.2187 C   0  0  0  0  0  0  0  0  0  0  0  0
   20.5712   16.5904   21.7422 H   0  0  0  0  0  0  0  0  0  0  0  0
   19.3137   17.3363   20.7527 H   0  0  0  0  0  0  0  0  0  0  0  0
   21.3338   17.8174   20.1222 C   0  0  0  0  0  0  0  0  0  0  0  0
   22.3301   17.9693   20.5577 H   0  0  0  0  0  0  0  0  0  0  0  0
   21.3985   16.9844   19.4102 H   0  0  0  0  0  0  0  0  0  0  0  0
   21.0630   18.7220   19.5619 H   0  0  0  0  0  0  0  0  0  0  0  0
  1  2  1  0  0  0  0
  1  3  2  0  0  0  0
  1  4  1  0  0  0  0
  4  5  1  0  0  0  0
  4  6  1  0  0  0  0
  4  7  1  0  0  0  0
  7  8  1  0  0  0  0
  7  9  1  0  0  0  0
  7 10  1  0  0  0  0
 10 11  1  0  0  0  0
 10 12  1  0  0  0  0
 10 13  1  0  0  0  0
 13 14  1  0  0  0  0
 13 15  1  0  0  0  0
 13 16  1  0  0  0  0
 16 17  1  0  0  0  0
 16 18  1  0  0  0  0
 16 19  1  0  0  0  0
 19 20  1  0  0  0  0
 19 21  1  0  0  0  0
 19 22  1  0  0  0  0
 22 23  1  0  0  0  0
 22 24  1  0  0  0  0
 22 25  1  0  0  0  0
M  END
> <VConfSearch Rank>
70

> <Conf_Id>
142

> <Delta U+W>
0.593

> <U+W>
-51.037

> <U>
8.903

> <W>
-59.940

> <W(PB)>
-62.418

> <W(SA)>
2.478

> <Valence>
8.305

> <Coulomb>
-0.223

> <VdW>
0.821

> <VdW6>
-9.236

> <VdW12>
10.057

> <Bond>
0.173

> <Angle>
2.663

> <Pdih>
5.469

> <Idih>
0.001

> <Tether>
0.000

$$$$
VeraChem MOL file


 25 24  0  0  0  0  0  0  0  0999 V2000     
   19.2194   22.5223   23.7907 C   0  0  0  0  0  0  0  0  0  0  0  0
   19.2277   23.5628   23.1623 O   0  5  0  0  0  0  0  0  0  0  0  0
   18.2654   22.1347   24.4361 O   0  0  0  0  0  0  0  0  0  0  0  0
   20.4868   21.6723   23.7896 C   0  0  0  0  0  0  0  0  0  0  0  0
   20.4189   20.9391   24.6014 H   0  0  0  0  0  0  0  0  0  0  0  0
   21.3241   22.3345   24.0384 H   0  0  0  0  0  0  0  0  0  0  0  0
   20.7747   20.9651   22.4371 C   0  0  0  0  0  0  0  0  0  0  0  0
   20.9049   21.7311   21.6603 H   0  0  0  0  0  0  0  0  0  0  0  0
   21.7349   20.4372   22.5022 H   0  0  0  0  0  0  0  0  0  0  0  0
   19.6674   19.9801   21.9808 C   0  0  0  0  0  0  0  0  0  0  0  0
   19.9614   19.5406   21.0179 H   0  0  0  0  0  0  0  0  0  0  0  0
   18.7453   20.5445   21.7853 H   0  0  0  0  0  0  0  0  0  0  0  0
   19.3464   18.8375   22.9766 C   0  0  0  0  0  0  0  0  0  0  0  0
   18.9435   19.2565   23.9084 H   0  0  0  0  0  0  0  0  0  0  0  0
   18.5427   18.2228   22.5489 H   0  0  0  0  0  0  0  0  0  0  0  0
   20.5595   17.9315   23.2899 C   0  0  0  0  0  0  0  0  0  0  0  0
   21.3448   18.5173   23.7850 H   0  0  0  0  0  0  0  0  0  0  0  0
   20.9853   17.5505   22.3517 H   0  0  0  0  0  0  0  0  0  0  0  0
   20.1670   16.7465   24.1973 C   0  0  0  0  0  0  0  0  0  0  0  0
   19.7384   17.1254   25.1354 H   0  0  0  0  0  0  0  0  0  0  0  0
   19.3862   16.1477   23.7083 H   0  0  0  0  0  0  0  0  0  0  0  0
   21.3791   15.8473   24.5138 C   0  0  0  0  0  0  0  0  0  0  0  0
   22.1634   16.4138   25.0327 H   0  0  0  0  0  0  0  0  0  0  0  0
   21.0820   15.0105   25.1592 H   0  0  0  0  0  0  0  0  0  0  0  0
   21.8092   15.4299   23.5939 H   0  0  0  0  0  0  0  0  0  0  0  0
  1  2  1  0  0  0  0
  1  3  2  0  0  0  0
  1  4  1  0  0  0  0
  4  5  1  0  0  0  0
  4  6  1  0  0  0  0
  4  7  1  0  0  0  0
  7  8  1  0  0  0  0
  7  9  1  0  0  0  0
  7 10  1  0  0  0  0
 10 11  1  0  0  0  0
 10 12  1  0  0  0  0
 10 13  1  0  0  0  0
 13 14  1  0  0  0  0
 13 15  1  0  0  0  0
 13 16  1  0  0  0  0
 16 17  1  0  0  0  0
 16 18  1  0  0  0  0
 16 19  1  0  0  0  0
 19 20  1  0  0  0  0
 19 21  1  0  0  0  0
 19 22  1  0  0  0  0
 22 23  1  0  0  0  0
 22 24  1  0  0  0  0
 22 25  1  0  0  0  0
M  END
> <VConfSearch Rank>
71

> <Conf_Id>
135

> <Delta U+W>
1.314

> <U+W>
-50.316

> <U>
9.773

> <W>
-60.088

> <W(PB)>
-62.535

> <W(SA)>
2.447

> <Valence>
8.741

> <Coulomb>
0.479

> <VdW>
0.552

> <VdW6>
-10.627

> <VdW12>
11.179

> <Bond>
0.227

> <Angle>
3.155

> <Pdih>
5.358

> <Idih>
0.001

> <Tether>
0.000

$$$$
VeraChem MOL file


 25 24  0  0  0  0  0  0  0  0999 V2000     
   20.6308   22.2995   20.4562 C   0  0  0  0  0  0  0  0  0  0  0  0
   19.5909   22.8151   20.0963 O   0  5  0  0  0  0  0  0  0  0  0  0
   21.7192   22.8272   20.3397 O   0  0  0  0  0  0  0  0  0  0  0  0
   20.5639   20.9242   21.1105 C   0  0  0  0  0  0  0  0  0  0  0  0
   21.4889   20.3874   20.8682 H   0  0  0  0  0  0  0  0  0  0  0  0
   19.7377   20.3751   20.6457 H   0  0  0  0  0  0  0  0  0  0  0  0
   20.3771   21.0009   22.6484 C   0  0  0  0  0  0  0  0  0  0  0  0
   21.1683   21.6392   23.0656 H   0  0  0  0  0  0  0  0  0  0  0  0
   19.4246   21.4977   22.8795 H   0  0  0  0  0  0  0  0  0  0  0  0
   20.4335   19.6231   23.3508 C   0  0  0  0  0  0  0  0  0  0  0  0
   20.4491   19.7982   24.4339 H   0  0  0  0  0  0  0  0  0  0  0  0
   21.3754   19.1176   23.0981 H   0  0  0  0  0  0  0  0  0  0  0  0
   19.2358   18.7058   23.0064 C   0  0  0  0  0  0  0  0  0  0  0  0
   18.3020   19.1941   23.3165 H   0  0  0  0  0  0  0  0  0  0  0  0
   19.1711   18.5793   21.9186 H   0  0  0  0  0  0  0  0  0  0  0  0
   19.3138   17.2945   23.6418 C   0  0  0  0  0  0  0  0  0  0  0  0
   20.1968   16.7607   23.2647 H   0  0  0  0  0  0  0  0  0  0  0  0
   18.4458   16.7236   23.2846 H   0  0  0  0  0  0  0  0  0  0  0  0
   19.2970   17.2773   25.1908 C   0  0  0  0  0  0  0  0  0  0  0  0
   18.7804   18.1669   25.5767 H   0  0  0  0  0  0  0  0  0  0  0  0
   18.7076   16.4128   25.5265 H   0  0  0  0  0  0  0  0  0  0  0  0
   20.7070   17.1641   25.8124 C   0  0  0  0  0  0  0  0  0  0  0  0
   21.3489   18.0043   25.5239 H   0  0  0  0  0  0  0  0  0  0  0  0
   20.6438   17.1509   26.9081 H   0  0  0  0  0  0  0  0  0  0  0  0
   21.2004   16.2368   25.4935 H   0  0  0  0  0  0  0  0  0  0  0  0
  1  2  1  0  0  0  0
  1  3  2  0  0  0  0
  1  4  1  0  0  0  0
  4  5  1  0  0  0  0
  4  6  1  0  0  0  0
  4  7  1  0  0  0  0
  7  8  1  0  0  0  0
  7  9  1  0  0  0  0
  7 10  1  0  0  0  0
 10 11  1  0  0  0  0
 10 12  1  0  0  0  0
 10 13  1  0  0  0  0
 13 14  1  0  0  0  0
 13 15  1  0  0  0  0
 13 16  1  0  0  0  0
 16 17  1  0  0  0  0
 16 18  1  0  0  0  0
 16 19  1  0  0  0  0
 19 20  1  0  0  0  0
 19 21  1  0  0  0  0
 19 22  1  0  0  0  0
 22 23  1  0  0  0  0
 22 24  1  0  0  0  0
 22 25  1  0  0  0  0
M  END
> <VConfSearch Rank>
72

> <Conf_Id>
19

> <Delta U+W>
3.222

> <U+W>
-48.407

> <U>
10.617

> <W>
-59.025

> <W(PB)>
-61.462

> <W(SA)>
2.437

> <Valence>
11.188

> <Coulomb>
-1.778

> <VdW>
1.208

> <VdW6>
-9.786

> <VdW12>
10.993

> <Bond>
0.241

> <Angle>
3.294

> <Pdih>
7.653

> <Idih>
0.001

> <Tether>
0.000

$$$$
VeraChem MOL file


 25 24  0  0  0  0  0  0  0  0999 V2000     
   20.3637   16.7634   19.8292 C   0  0  0  0  0  0  0  0  0  0  0  0
   21.1670   17.1647   19.0105 O   0  5  0  0  0  0  0  0  0  0  0  0
   19.4668   15.9864   19.5672 O   0  0  0  0  0  0  0  0  0  0  0  0
   20.4727   17.2813   21.2589 C   0  0  0  0  0  0  0  0  0  0  0  0
   21.5347   17.4443   21.4730 H   0  0  0  0  0  0  0  0  0  0  0  0
   20.1217   16.4917   21.9339 H   0  0  0  0  0  0  0  0  0  0  0  0
   19.6594   18.5820   21.4885 C   0  0  0  0  0  0  0  0  0  0  0  0
   20.0504   19.3800   20.8422 H   0  0  0  0  0  0  0  0  0  0  0  0
   18.6222   18.4068   21.1710 H   0  0  0  0  0  0  0  0  0  0  0  0
   19.6505   19.0575   22.9612 C   0  0  0  0  0  0  0  0  0  0  0  0
   19.2831   18.2496   23.6083 H   0  0  0  0  0  0  0  0  0  0  0  0
   18.9307   19.8815   23.0442 H   0  0  0  0  0  0  0  0  0  0  0  0
   21.0320   19.5439   23.4606 C   0  0  0  0  0  0  0  0  0  0  0  0
   21.7744   18.7488   23.3189 H   0  0  0  0  0  0  0  0  0  0  0  0
   21.3648   20.3903   22.8445 H   0  0  0  0  0  0  0  0  0  0  0  0
   21.0588   19.9536   24.9549 C   0  0  0  0  0  0  0  0  0  0  0  0
   22.0936   20.2254   25.2039 H   0  0  0  0  0  0  0  0  0  0  0  0
   20.8184   19.0875   25.5865 H   0  0  0  0  0  0  0  0  0  0  0  0
   20.1458   21.1518   25.3168 C   0  0  0  0  0  0  0  0  0  0  0  0
   20.6583   21.7706   26.0663 H   0  0  0  0  0  0  0  0  0  0  0  0
   19.9968   21.7964   24.4396 H   0  0  0  0  0  0  0  0  0  0  0  0
   18.7830   20.7215   25.9039 C   0  0  0  0  0  0  0  0  0  0  0  0
   18.9211   20.1425   26.8262 H   0  0  0  0  0  0  0  0  0  0  0  0
   18.1749   21.6020   26.1484 H   0  0  0  0  0  0  0  0  0  0  0  0
   18.2120   20.1047   25.2006 H   0  0  0  0  0  0  0  0  0  0  0  0
  1  2  1  0  0  0  0
  1  3  2  0  0  0  0
  1  4  1  0  0  0  0
  4  5  1  0  0  0  0
  4  6  1  0  0  0  0
  4  7  1  0  0  0  0
  7  8  1  0  0  0  0
  7  9  1  0  0  0  0
  7 10  1  0  0  0  0
 10 11  1  0  0  0  0
 10 12  1  0  0  0  0
 10 13  1  0  0  0  0
 13 14  1  0  0  0  0
 13 15  1  0  0  0  0
 13 16  1  0  0  0  0
 16 17  1  0  0  0  0
 16 18  1  0  0  0  0
 16 19  1  0  0  0  0
 19 20  1  0  0  0  0
 19 21  1  0  0  0  0
 19 22  1  0  0  0  0
 22 23  1  0  0  0  0
 22 24  1  0  0  0  0
 22 25  1  0  0  0  0
M  END
> <VConfSearch Rank>
73

> <Conf_Id>
20

> <Delta U+W>
3.224

> <U+W>
-48.406

> <U>
10.617

> <W>
-59.023

> <W(PB)>
-61.467

> <W(SA)>
2.444

> <Valence>
11.188

> <Coulomb>
-1.778

> <VdW>
1.208

> <VdW6>
-9.786

> <VdW12>
10.993

> <Bond>
0.241

> <Angle>
3.294

> <Pdih>
7.653

> <Idih>
0.001

> <Tether>
0.000

$$$$
VeraChem MOL file


 25 24  0  0  0  0  0  0  0  0999 V2000     
   22.3242   19.8226   25.5689 C   0  0  0  0  0  0  0  0  0  0  0  0
   23.1534   18.9645   25.3370 O   0  5  0  0  0  0  0  0  0  0  0  0
   21.5752   19.7902   26.5255 O   0  0  0  0  0  0  0  0  0  0  0  0
   22.2633   21.0397   24.6478 C   0  0  0  0  0  0  0  0  0  0  0  0
   23.2291   21.5487   24.7459 H   0  0  0  0  0  0  0  0  0  0  0  0
   21.5028   21.7342   25.0247 H   0  0  0  0  0  0  0  0  0  0  0  0
   22.0079   20.7238   23.1471 C   0  0  0  0  0  0  0  0  0  0  0  0
   22.3443   21.5869   22.5570 H   0  0  0  0  0  0  0  0  0  0  0  0
   22.6349   19.8787   22.8303 H   0  0  0  0  0  0  0  0  0  0  0  0
   20.5271   20.4521   22.7833 C   0  0  0  0  0  0  0  0  0  0  0  0
   20.4490   20.3942   21.6890 H   0  0  0  0  0  0  0  0  0  0  0  0
   19.9079   21.3054   23.0920 H   0  0  0  0  0  0  0  0  0  0  0  0
   19.9574   19.1503   23.3911 C   0  0  0  0  0  0  0  0  0  0  0  0
   20.6336   18.3131   23.1698 H   0  0  0  0  0  0  0  0  0  0  0  0
   19.9046   19.2409   24.4834 H   0  0  0  0  0  0  0  0  0  0  0  0
   18.5474   18.8348   22.8464 C   0  0  0  0  0  0  0  0  0  0  0  0
   18.5894   18.7334   21.7532 H   0  0  0  0  0  0  0  0  0  0  0  0
   17.8740   19.6750   23.0643 H   0  0  0  0  0  0  0  0  0  0  0  0
   17.9730   17.5412   23.4613 C   0  0  0  0  0  0  0  0  0  0  0  0
   18.6440   16.6985   23.2443 H   0  0  0  0  0  0  0  0  0  0  0  0
   17.9279   17.6396   24.5549 H   0  0  0  0  0  0  0  0  0  0  0  0
   16.5648   17.2290   22.9160 C   0  0  0  0  0  0  0  0  0  0  0  0
   16.5865   17.0944   21.8266 H   0  0  0  0  0  0  0  0  0  0  0  0
   16.1723   16.3068   23.3637 H   0  0  0  0  0  0  0  0  0  0  0  0
   15.8649   18.0427   23.1471 H   0  0  0  0  0  0  0  0  0  0  0  0
  1  2  1  0  0  0  0
  1  3  2  0  0  0  0
  1  4  1  0  0  0  0
  4  5  1  0  0  0  0
  4  6  1  0  0  0  0
  4  7  1  0  0  0  0
  7  8  1  0  0  0  0
  7  9  1  0  0  0  0
  7 10  1  0  0  0  0
 10 11  1  0  0  0  0
 10 12  1  0  0  0  0
 10 13  1  0  0  0  0
 13 14  1  0  0  0  0
 13 15  1  0  0  0  0
 13 16  1  0  0  0  0
 16 17  1  0  0  0  0
 16 18  1  0  0  0  0
 16 19  1  0  0  0  0
 19 20  1  0  0  0  0
 19 21  1  0  0  0  0
 19 22  1  0  0  0  0
 22 23  1  0  0  0  0
 22 24  1  0  0  0  0
 22 25  1  0  0  0  0
M  END
> <VConfSearch Rank>
74

> <Conf_Id>
24

> <Delta U+W>
1.784

> <U+W>
-49.846

> <U>
10.904

> <W>
-60.749

> <W(PB)>
-63.220

> <W(SA)>
2.471

> <Valence>
9.445

> <Coulomb>
0.780

> <VdW>
0.679

> <VdW6>
-10.008

> <VdW12>
10.687

> <Bond>
0.201

> <Angle>
3.198

> <Pdih>
6.039

> <Idih>
0.006

> <Tether>
0.000

$$$$
VeraChem MOL file


 25 24  0  0  0  0  0  0  0  0999 V2000     
   21.8410   17.2267   21.5073 C   0  0  0  0  0  0  0  0  0  0  0  0
   22.0498   17.9382   20.5440 O   0  5  0  0  0  0  0  0  0  0  0  0
   22.6750   16.9891   22.3588 O   0  0  0  0  0  0  0  0  0  0  0  0
   20.4809   16.5407   21.6206 C   0  0  0  0  0  0  0  0  0  0  0  0
   20.4772   15.9015   22.5118 H   0  0  0  0  0  0  0  0  0  0  0  0
   20.3997   15.8729   20.7553 H   0  0  0  0  0  0  0  0  0  0  0  0
   19.2551   17.4969   21.6385 C   0  0  0  0  0  0  0  0  0  0  0  0
   19.3711   18.2691   20.8653 H   0  0  0  0  0  0  0  0  0  0  0  0
   18.3676   16.9158   21.3538 H   0  0  0  0  0  0  0  0  0  0  0  0
   18.9664   18.1575   23.0094 C   0  0  0  0  0  0  0  0  0  0  0  0
   18.8396   17.3800   23.7751 H   0  0  0  0  0  0  0  0  0  0  0  0
   18.0036   18.6821   22.9401 H   0  0  0  0  0  0  0  0  0  0  0  0
   20.0480   19.1631   23.4647 C   0  0  0  0  0  0  0  0  0  0  0  0
   20.9876   18.6337   23.6670 H   0  0  0  0  0  0  0  0  0  0  0  0
   20.2496   19.8793   22.6563 H   0  0  0  0  0  0  0  0  0  0  0  0
   19.6195   19.9259   24.7371 C   0  0  0  0  0  0  0  0  0  0  0  0
   19.4137   19.2079   25.5428 H   0  0  0  0  0  0  0  0  0  0  0  0
   18.6832   20.4672   24.5439 H   0  0  0  0  0  0  0  0  0  0  0  0
   20.7037   20.9221   25.1991 C   0  0  0  0  0  0  0  0  0  0  0  0
   21.6415   20.3838   25.3952 H   0  0  0  0  0  0  0  0  0  0  0  0
   20.9114   21.6422   24.3956 H   0  0  0  0  0  0  0  0  0  0  0  0
   20.2732   21.6819   26.4700 C   0  0  0  0  0  0  0  0  0  0  0  0
   20.0893   20.9868   27.2998 H   0  0  0  0  0  0  0  0  0  0  0  0
   21.0555   22.3851   26.7840 H   0  0  0  0  0  0  0  0  0  0  0  0
   19.3537   22.2549   26.2925 H   0  0  0  0  0  0  0  0  0  0  0  0
  1  2  1  0  0  0  0
  1  3  2  0  0  0  0
  1  4  1  0  0  0  0
  4  5  1  0  0  0  0
  4  6  1  0  0  0  0
  4  7  1  0  0  0  0
  7  8  1  0  0  0  0
  7  9  1  0  0  0  0
  7 10  1  0  0  0  0
 10 11  1  0  0  0  0
 10 12  1  0  0  0  0
 10 13  1  0  0  0  0
 13 14  1  0  0  0  0
 13 15  1  0  0  0  0
 13 16  1  0  0  0  0
 16 17  1  0  0  0  0
 16 18  1  0  0  0  0
 16 19  1  0  0  0  0
 19 20  1  0  0  0  0
 19 21  1  0  0  0  0
 19 22  1  0  0  0  0
 22 23  1  0  0  0  0
 22 24  1  0  0  0  0
 22 25  1  0  0  0  0
M  END
> <VConfSearch Rank>
75

> <Conf_Id>
9

> <Delta U+W>
1.764

> <U+W>
-49.865

> <U>
10.902

> <W>
-60.768

> <W(PB)>
-63.223

> <W(SA)>
2.456

> <Valence>
9.445

> <Coulomb>
0.778

> <VdW>
0.679

> <VdW6>
-10.007

> <VdW12>
10.687

> <Bond>
0.201

> <Angle>
3.198

> <Pdih>
6.040

> <Idih>
0.006

> <Tether>
0.000

$$$$
VeraChem MOL file


 25 24  0  0  0  0  0  0  0  0999 V2000     
   18.8741   18.8798   19.8879 C   0  0  0  0  0  0  0  0  0  0  0  0
   17.8382   19.4657   20.1333 O   0  5  0  0  0  0  0  0  0  0  0  0
   19.2966   18.7019   18.7624 O   0  0  0  0  0  0  0  0  0  0  0  0
   19.7001   18.3567   21.0574 C   0  0  0  0  0  0  0  0  0  0  0  0
   20.2018   17.4375   20.7322 H   0  0  0  0  0  0  0  0  0  0  0  0
   19.0077   18.0762   21.8570 H   0  0  0  0  0  0  0  0  0  0  0  0
   20.7478   19.3854   21.5590 C   0  0  0  0  0  0  0  0  0  0  0  0
   21.4163   19.6228   20.7199 H   0  0  0  0  0  0  0  0  0  0  0  0
   20.2526   20.3279   21.8308 H   0  0  0  0  0  0  0  0  0  0  0  0
   21.6039   18.8684   22.7431 C   0  0  0  0  0  0  0  0  0  0  0  0
   22.6190   19.2737   22.6327 H   0  0  0  0  0  0  0  0  0  0  0  0
   21.7113   17.7765   22.6879 H   0  0  0  0  0  0  0  0  0  0  0  0
   21.0877   19.2834   24.1438 C   0  0  0  0  0  0  0  0  0  0  0  0
   21.8112   18.9373   24.8944 H   0  0  0  0  0  0  0  0  0  0  0  0
   21.0737   20.3792   24.2100 H   0  0  0  0  0  0  0  0  0  0  0  0
   19.6903   18.7219   24.4978 C   0  0  0  0  0  0  0  0  0  0  0  0
   19.6698   17.6454   24.2808 H   0  0  0  0  0  0  0  0  0  0  0  0
   18.9296   19.1904   23.8598 H   0  0  0  0  0  0  0  0  0  0  0  0
   19.3036   18.9336   25.9801 C   0  0  0  0  0  0  0  0  0  0  0  0
   18.3495   18.4238   26.1722 H   0  0  0  0  0  0  0  0  0  0  0  0
   20.0481   18.4537   26.6302 H   0  0  0  0  0  0  0  0  0  0  0  0
   19.1599   20.4219   26.3658 C   0  0  0  0  0  0  0  0  0  0  0  0
   18.4384   20.9290   25.7121 H   0  0  0  0  0  0  0  0  0  0  0  0
   18.8052   20.5182   27.4001 H   0  0  0  0  0  0  0  0  0  0  0  0
   20.1198   20.9483   26.2931 H   0  0  0  0  0  0  0  0  0  0  0  0
  1  2  1  0  0  0  0
  1  3  2  0  0  0  0
  1  4  1  0  0  0  0
  4  5  1  0  0  0  0
  4  6  1  0  0  0  0
  4  7  1  0  0  0  0
  7  8  1  0  0  0  0
  7  9  1  0  0  0  0
  7 10  1  0  0  0  0
 10 11  1  0  0  0  0
 10 12  1  0  0  0  0
 10 13  1  0  0  0  0
 13 14  1  0  0  0  0
 13 15  1  0  0  0  0
 13 16  1  0  0  0  0
 16 17  1  0  0  0  0
 16 18  1  0  0  0  0
 16 19  1  0  0  0  0
 19 20  1  0  0  0  0
 19 21  1  0  0  0  0
 19 22  1  0  0  0  0
 22 23  1  0  0  0  0
 22 24  1  0  0  0  0
 22 25  1  0  0  0  0
M  END
> <VConfSearch Rank>
76

> <Conf_Id>
89

> <Delta U+W>
2.903

> <U+W>
-48.726

> <U>
10.996

> <W>
-59.723

> <W(PB)>
-62.151

> <W(SA)>
2.428

> <Valence>
10.985

> <Coulomb>
-0.995

> <VdW>
1.006

> <VdW6>
-10.062

> <VdW12>
11.069

> <Bond>
0.238

> <Angle>
3.202

> <Pdih>
7.544

> <Idih>
0.001

> <Tether>
0.000

$$$$
VeraChem MOL file


 25 24  0  0  0  0  0  0  0  0999 V2000     
   19.8150   16.1267   21.6003 C   0  0  0  0  0  0  0  0  0  0  0  0
   20.8060   15.5491   22.0024 O   0  5  0  0  0  0  0  0  0  0  0  0
   18.6830   15.7242   21.7854 O   0  0  0  0  0  0  0  0  0  0  0  0
   20.0078   17.3899   20.7636 C   0  0  0  0  0  0  0  0  0  0  0  0
   19.6239   17.1576   19.7635 H   0  0  0  0  0  0  0  0  0  0  0  0
   21.0815   17.5826   20.6502 H   0  0  0  0  0  0  0  0  0  0  0  0
   19.2860   18.6584   21.2999 C   0  0  0  0  0  0  0  0  0  0  0  0
   19.1695   19.3598   20.4627 H   0  0  0  0  0  0  0  0  0  0  0  0
   18.2672   18.4024   21.6224 H   0  0  0  0  0  0  0  0  0  0  0  0
   20.0317   19.4024   22.4358 C   0  0  0  0  0  0  0  0  0  0  0  0
   19.5154   20.3558   22.6030 H   0  0  0  0  0  0  0  0  0  0  0  0
   21.0485   19.6553   22.1063 H   0  0  0  0  0  0  0  0  0  0  0  0
   20.0972   18.6156   23.7673 C   0  0  0  0  0  0  0  0  0  0  0  0
   19.0869   18.3075   24.0695 H   0  0  0  0  0  0  0  0  0  0  0  0
   20.6716   17.6939   23.6144 H   0  0  0  0  0  0  0  0  0  0  0  0
   20.7677   19.4033   24.9185 C   0  0  0  0  0  0  0  0  0  0  0  0
   21.7651   19.7388   24.6032 H   0  0  0  0  0  0  0  0  0  0  0  0
   20.9239   18.7167   25.7617 H   0  0  0  0  0  0  0  0  0  0  0  0
   19.9390   20.6127   25.4085 C   0  0  0  0  0  0  0  0  0  0  0  0
   19.8382   21.3549   24.6062 H   0  0  0  0  0  0  0  0  0  0  0  0
   18.9239   20.2842   25.6710 H   0  0  0  0  0  0  0  0  0  0  0  0
   20.5915   21.2859   26.6329 C   0  0  0  0  0  0  0  0  0  0  0  0
   21.5991   21.6485   26.3907 H   0  0  0  0  0  0  0  0  0  0  0  0
   19.9937   22.1438   26.9670 H   0  0  0  0  0  0  0  0  0  0  0  0
   20.6726   20.5825   27.4719 H   0  0  0  0  0  0  0  0  0  0  0  0
  1  2  1  0  0  0  0
  1  3  2  0  0  0  0
  1  4  1  0  0  0  0
  4  5  1  0  0  0  0
  4  6  1  0  0  0  0
  4  7  1  0  0  0  0
  7  8  1  0  0  0  0
  7  9  1  0  0  0  0
  7 10  1  0  0  0  0
 10 11  1  0  0  0  0
 10 12  1  0  0  0  0
 10 13  1  0  0  0  0
 13 14  1  0  0  0  0
 13 15  1  0  0  0  0
 13 16  1  0  0  0  0
 16 17  1  0  0  0  0
 16 18  1  0  0  0  0
 16 19  1  0  0  0  0
 19 20  1  0  0  0  0
 19 21  1  0  0  0  0
 19 22  1  0  0  0  0
 22 23  1  0  0  0  0
 22 24  1  0  0  0  0
 22 25  1  0  0  0  0
M  END
> <VConfSearch Rank>
77

> <Conf_Id>
114

> <Delta U+W>
2.758

> <U+W>
-48.871

> <U>
11.422

> <W>
-60.293

> <W(PB)>
-62.719

> <W(SA)>
2.425

> <Valence>
10.135

> <Coulomb>
0.369

> <VdW>
0.918

> <VdW6>
-10.482

> <VdW12>
11.400

> <Bond>
0.245

> <Angle>
3.539

> <Pdih>
6.346

> <Idih>
0.006

> <Tether>
0.000

$$$$
VeraChem MOL file


 25 24  0  0  0  0  0  0  0  0999 V2000     
   23.4197   18.4966   21.4015 C   0  0  0  0  0  0  0  0  0  0  0  0
   23.5228   19.4530   20.6587 O   0  5  0  0  0  0  0  0  0  0  0  0
   24.2359   18.2190   22.2581 O   0  0  0  0  0  0  0  0  0  0  0  0
   22.2100   17.5807   21.2377 C   0  0  0  0  0  0  0  0  0  0  0  0
   22.5745   16.5471   21.2656 H   0  0  0  0  0  0  0  0  0  0  0  0
   21.7832   17.7398   20.2400 H   0  0  0  0  0  0  0  0  0  0  0  0
   21.1214   17.7759   22.3247 C   0  0  0  0  0  0  0  0  0  0  0  0
   20.3568   16.9961   22.2078 H   0  0  0  0  0  0  0  0  0  0  0  0
   21.5767   17.6293   23.3129 H   0  0  0  0  0  0  0  0  0  0  0  0
   20.4485   19.1674   22.2450 C   0  0  0  0  0  0  0  0  0  0  0  0
   20.0843   19.3279   21.2211 H   0  0  0  0  0  0  0  0  0  0  0  0
   21.1922   19.9537   22.4348 H   0  0  0  0  0  0  0  0  0  0  0  0
   19.2589   19.3368   23.2200 C   0  0  0  0  0  0  0  0  0  0  0  0
   18.7627   20.2874   22.9868 H   0  0  0  0  0  0  0  0  0  0  0  0
   18.5183   18.5461   23.0383 H   0  0  0  0  0  0  0  0  0  0  0  0
   19.6779   19.3285   24.7109 C   0  0  0  0  0  0  0  0  0  0  0  0
   20.4211   20.1170   24.8912 H   0  0  0  0  0  0  0  0  0  0  0  0
   20.1703   18.3766   24.9468 H   0  0  0  0  0  0  0  0  0  0  0  0
   18.4890   19.5056   25.6844 C   0  0  0  0  0  0  0  0  0  0  0  0
   17.7381   18.7252   25.4990 H   0  0  0  0  0  0  0  0  0  0  0  0
   18.8495   19.3510   26.7107 H   0  0  0  0  0  0  0  0  0  0  0  0
   17.8258   20.8975   25.5975 C   0  0  0  0  0  0  0  0  0  0  0  0
   17.0550   21.0039   26.3718 H   0  0  0  0  0  0  0  0  0  0  0  0
   18.5654   21.6952   25.7456 H   0  0  0  0  0  0  0  0  0  0  0  0
   17.3419   21.0521   24.6253 H   0  0  0  0  0  0  0  0  0  0  0  0
  1  2  1  0  0  0  0
  1  3  2  0  0  0  0
  1  4  1  0  0  0  0
  4  5  1  0  0  0  0
  4  6  1  0  0  0  0
  4  7  1  0  0  0  0
  7  8  1  0  0  0  0
  7  9  1  0  0  0  0
  7 10  1  0  0  0  0
 10 11  1  0  0  0  0
 10 12  1  0  0  0  0
 10 13  1  0  0  0  0
 13 14  1  0  0  0  0
 13 15  1  0  0  0  0
 13 16  1  0  0  0  0
 16 17  1  0  0  0  0
 16 18  1  0  0  0  0
 16 19  1  0  0  0  0
 19 20  1  0  0  0  0
 19 21  1  0  0  0  0
 19 22  1  0  0  0  0
 22 23  1  0  0  0  0
 22 24  1  0  0  0  0
 22 25  1  0  0  0  0
M  END
> <VConfSearch Rank>
78

> <Conf_Id>
87

> <Delta U+W>
1.453

> <U+W>
-50.176

> <U>
9.763

> <W>
-59.940

> <W(PB)>
-62.392

> <W(SA)>
2.452

> <Valence>
8.883

> <Coulomb>
-0.122

> <VdW>
1.003

> <VdW6>
-9.782

> <VdW12>
10.785

> <Bond>
0.212

> <Angle>
2.940

> <Pdih>
5.730

> <Idih>
0.001

> <Tether>
0.000

$$$$
VeraChem MOL file


 25 24  0  0  0  0  0  0  0  0999 V2000     
   16.9022   17.9368   21.2590 C   0  0  0  0  0  0  0  0  0  0  0  0
   16.4338   18.9987   20.8989 O   0  5  0  0  0  0  0  0  0  0  0  0
   16.8298   16.9135   20.6076 O   0  0  0  0  0  0  0  0  0  0  0  0
   17.6377   17.8899   22.5936 C   0  0  0  0  0  0  0  0  0  0  0  0
   17.4856   16.8961   23.0315 H   0  0  0  0  0  0  0  0  0  0  0  0
   17.1681   18.6168   23.2671 H   0  0  0  0  0  0  0  0  0  0  0  0
   19.1509   18.1890   22.4571 C   0  0  0  0  0  0  0  0  0  0  0  0
   19.6057   17.4588   21.7736 H   0  0  0  0  0  0  0  0  0  0  0  0
   19.2772   19.1789   21.9990 H   0  0  0  0  0  0  0  0  0  0  0  0
   19.8706   18.1420   23.8247 C   0  0  0  0  0  0  0  0  0  0  0  0
   19.6751   17.1702   24.2982 H   0  0  0  0  0  0  0  0  0  0  0  0
   19.4435   18.8988   24.4957 H   0  0  0  0  0  0  0  0  0  0  0  0
   21.4044   18.3343   23.7213 C   0  0  0  0  0  0  0  0  0  0  0  0
   21.8433   18.2284   24.7220 H   0  0  0  0  0  0  0  0  0  0  0  0
   21.8247   17.5134   23.1246 H   0  0  0  0  0  0  0  0  0  0  0  0
   21.8633   19.6811   23.1021 C   0  0  0  0  0  0  0  0  0  0  0  0
   21.5643   19.7163   22.0463 H   0  0  0  0  0  0  0  0  0  0  0  0
   22.9613   19.7089   23.0999 H   0  0  0  0  0  0  0  0  0  0  0  0
   21.3341   20.9494   23.8159 C   0  0  0  0  0  0  0  0  0  0  0  0
   21.7014   21.8335   23.2772 H   0  0  0  0  0  0  0  0  0  0  0  0
   20.2385   20.9890   23.7531 H   0  0  0  0  0  0  0  0  0  0  0  0
   21.7757   21.0477   25.2922 C   0  0  0  0  0  0  0  0  0  0  0  0
   22.8686   20.9936   25.3796 H   0  0  0  0  0  0  0  0  0  0  0  0
   21.4476   21.9997   25.7289 H   0  0  0  0  0  0  0  0  0  0  0  0
   21.3415   20.2386   25.8927 H   0  0  0  0  0  0  0  0  0  0  0  0
  1  2  1  0  0  0  0
  1  3  2  0  0  0  0
  1  4  1  0  0  0  0
  4  5  1  0  0  0  0
  4  6  1  0  0  0  0
  4  7  1  0  0  0  0
  7  8  1  0  0  0  0
  7  9  1  0  0  0  0
  7 10  1  0  0  0  0
 10 11  1  0  0  0  0
 10 12  1  0  0  0  0
 10 13  1  0  0  0  0
 13 14  1  0  0  0  0
 13 15  1  0  0  0  0
 13 16  1  0  0  0  0
 16 17  1  0  0  0  0
 16 18  1  0  0  0  0
 16 19  1  0  0  0  0
 19 20  1  0  0  0  0
 19 21  1  0  0  0  0
 19 22  1  0  0  0  0
 22 23  1  0  0  0  0
 22 24  1  0  0  0  0
 22 25  1  0  0  0  0
M  END
> <VConfSearch Rank>
79

> <Conf_Id>
29

> <Delta U+W>
0.850

> <U+W>
-50.780

> <U>
8.646

> <W>
-59.426

> <W(PB)>
-61.868

> <W(SA)>
2.442

> <Valence>
8.924

> <Coulomb>
-1.171

> <VdW>
0.894

> <VdW6>
-10.223

> <VdW12>
11.117

> <Bond>
0.231

> <Angle>
3.232

> <Pdih>
5.461

> <Idih>
0.001

> <Tether>
0.000

$$$$
VeraChem MOL file


 25 24  0  0  0  0  0  0  0  0999 V2000     
   18.7001   17.5838   19.9487 C   0  0  0  0  0  0  0  0  0  0  0  0
   19.1271   16.4487   20.0258 O   0  5  0  0  0  0  0  0  0  0  0  0
   18.5652   18.1826   18.8999 O   0  0  0  0  0  0  0  0  0  0  0  0
   18.3310   18.3035   21.2410 C   0  0  0  0  0  0  0  0  0  0  0  0
   17.9680   17.5554   21.9559 H   0  0  0  0  0  0  0  0  0  0  0  0
   17.4953   18.9805   21.0271 H   0  0  0  0  0  0  0  0  0  0  0  0
   19.5165   19.0921   21.8498 C   0  0  0  0  0  0  0  0  0  0  0  0
   20.3464   18.3976   22.0364 H   0  0  0  0  0  0  0  0  0  0  0  0
   19.8746   19.8313   21.1201 H   0  0  0  0  0  0  0  0  0  0  0  0
   19.1172   19.8056   23.1621 C   0  0  0  0  0  0  0  0  0  0  0  0
   18.7970   19.0641   23.9058 H   0  0  0  0  0  0  0  0  0  0  0  0
   18.2427   20.4423   22.9709 H   0  0  0  0  0  0  0  0  0  0  0  0
   20.2449   20.6899   23.7509 C   0  0  0  0  0  0  0  0  0  0  0  0
   20.4850   21.4837   23.0307 H   0  0  0  0  0  0  0  0  0  0  0  0
   19.8631   21.2042   24.6426 H   0  0  0  0  0  0  0  0  0  0  0  0
   21.5537   19.9398   24.1148 C   0  0  0  0  0  0  0  0  0  0  0  0
   22.2648   20.6624   24.5375 H   0  0  0  0  0  0  0  0  0  0  0  0
   22.0242   19.5638   23.1970 H   0  0  0  0  0  0  0  0  0  0  0  0
   21.3857   18.7654   25.1101 C   0  0  0  0  0  0  0  0  0  0  0  0
   20.7478   17.9866   24.6714 H   0  0  0  0  0  0  0  0  0  0  0  0
   22.3674   18.2991   25.2705 H   0  0  0  0  0  0  0  0  0  0  0  0
   20.8128   19.2005   26.4763 C   0  0  0  0  0  0  0  0  0  0  0  0
   19.7867   19.5760   26.3767 H   0  0  0  0  0  0  0  0  0  0  0  0
   20.7909   18.3517   27.1719 H   0  0  0  0  0  0  0  0  0  0  0  0
   21.4272   19.9913   26.9259 H   0  0  0  0  0  0  0  0  0  0  0  0
  1  2  1  0  0  0  0
  1  3  2  0  0  0  0
  1  4  1  0  0  0  0
  4  5  1  0  0  0  0
  4  6  1  0  0  0  0
  4  7  1  0  0  0  0
  7  8  1  0  0  0  0
  7  9  1  0  0  0  0
  7 10  1  0  0  0  0
 10 11  1  0  0  0  0
 10 12  1  0  0  0  0
 10 13  1  0  0  0  0
 13 14  1  0  0  0  0
 13 15  1  0  0  0  0
 13 16  1  0  0  0  0
 16 17  1  0  0  0  0
 16 18  1  0  0  0  0
 16 19  1  0  0  0  0
 19 20  1  0  0  0  0
 19 21  1  0  0  0  0
 19 22  1  0  0  0  0
 22 23  1  0  0  0  0
 22 24  1  0  0  0  0
 22 25  1  0  0  0  0
M  END
> <VConfSearch Rank>
80

> <Conf_Id>
30

> <Delta U+W>
0.843

> <U+W>
-50.787

> <U>
8.647

> <W>
-59.434

> <W(PB)>
-61.861

> <W(SA)>
2.428

> <Valence>
8.924

> <Coulomb>
-1.170

> <VdW>
0.894

> <VdW6>
-10.224

> <VdW12>
11.118

> <Bond>
0.231

> <Angle>
3.232

> <Pdih>
5.460

> <Idih>
0.000

> <Tether>
0.000

$$$$
VeraChem MOL file


 25 24  0  0  0  0  0  0  0  0999 V2000     
   21.1337   15.7024   20.1388 C   0  0  0  0  0  0  0  0  0  0  0  0
   22.2961   16.0435   20.0341 O   0  5  0  0  0  0  0  0  0  0  0  0
   20.6675   14.7453   19.5533 O   0  0  0  0  0  0  0  0  0  0  0  0
   20.1887   16.4958   21.0426 C   0  0  0  0  0  0  0  0  0  0  0  0
   19.7781   15.7964   21.7803 H   0  0  0  0  0  0  0  0  0  0  0  0
   19.3514   16.8357   20.4218 H   0  0  0  0  0  0  0  0  0  0  0  0
   20.8295   17.7083   21.7688 C   0  0  0  0  0  0  0  0  0  0  0  0
   21.6716   17.3614   22.3838 H   0  0  0  0  0  0  0  0  0  0  0  0
   21.2444   18.4016   21.0241 H   0  0  0  0  0  0  0  0  0  0  0  0
   19.8082   18.4508   22.6577 C   0  0  0  0  0  0  0  0  0  0  0  0
   19.3948   17.7557   23.4014 H   0  0  0  0  0  0  0  0  0  0  0  0
   18.9674   18.7966   22.0409 H   0  0  0  0  0  0  0  0  0  0  0  0
   20.4478   19.6566   23.3792 C   0  0  0  0  0  0  0  0  0  0  0  0
   21.2887   19.3111   23.9962 H   0  0  0  0  0  0  0  0  0  0  0  0
   20.8613   20.3519   22.6358 H   0  0  0  0  0  0  0  0  0  0  0  0
   19.4271   20.3994   24.2682 C   0  0  0  0  0  0  0  0  0  0  0  0
   19.0136   19.7043   25.0118 H   0  0  0  0  0  0  0  0  0  0  0  0
   18.5862   20.7451   23.6514 H   0  0  0  0  0  0  0  0  0  0  0  0
   20.0664   21.6046   24.9895 C   0  0  0  0  0  0  0  0  0  0  0  0
   20.9069   21.2624   25.6091 H   0  0  0  0  0  0  0  0  0  0  0  0
   20.4795   22.3032   24.2487 H   0  0  0  0  0  0  0  0  0  0  0  0
   19.0440   22.3438   25.8761 C   0  0  0  0  0  0  0  0  0  0  0  0
   18.6375   21.6761   26.6471 H   0  0  0  0  0  0  0  0  0  0  0  0
   19.5152   23.1971   26.3810 H   0  0  0  0  0  0  0  0  0  0  0  0
   18.2070   22.7248   25.2765 H   0  0  0  0  0  0  0  0  0  0  0  0
  1  2  1  0  0  0  0
  1  3  2  0  0  0  0
  1  4  1  0  0  0  0
  4  5  1  0  0  0  0
  4  6  1  0  0  0  0
  4  7  1  0  0  0  0
  7  8  1  0  0  0  0
  7  9  1  0  0  0  0
  7 10  1  0  0  0  0
 10 11  1  0  0  0  0
 10 12  1  0  0  0  0
 10 13  1  0  0  0  0
 13 14  1  0  0  0  0
 13 15  1  0  0  0  0
 13 16  1  0  0  0  0
 16 17  1  0  0  0  0
 16 18  1  0  0  0  0
 16 19  1  0  0  0  0
 19 20  1  0  0  0  0
 19 21  1  0  0  0  0
 19 22  1  0  0  0  0
 22 23  1  0  0  0  0
 22 24  1  0  0  0  0
 22 25  1  0  0  0  0
M  END
> <VConfSearch Rank>
81

> <Conf_Id>
0

> <Delta U+W>
0.000

> <U+W>
-51.629

> <U>
6.586

> <W>
-58.216

> <W(PB)>
-60.757

> <W(SA)>
2.541

> <Valence>
8.027

> <Coulomb>
-2.892

> <VdW>
1.451

> <VdW6>
-7.931

> <VdW12>
9.383

> <Bond>
0.149

> <Angle>
2.726

> <Pdih>
5.152

> <Idih>
0.000

> <Tether>
0.000

$$$$
VeraChem MOL file


 25 24  0  0  0  0  0  0  0  0999 V2000     
   20.7429   21.3009   27.2403 C   0  0  0  0  0  0  0  0  0  0  0  0
   19.8577   22.0779   27.5392 O   0  5  0  0  0  0  0  0  0  0  0  0
   21.3787   20.6593   28.0532 O   0  0  0  0  0  0  0  0  0  0  0  0
   21.0579   21.1030   25.7619 C   0  0  0  0  0  0  0  0  0  0  0  0
   22.1282   20.8832   25.6682 H   0  0  0  0  0  0  0  0  0  0  0  0
   20.8753   22.0525   25.2447 H   0  0  0  0  0  0  0  0  0  0  0  0
   20.2210   19.9720   25.1150 C   0  0  0  0  0  0  0  0  0  0  0  0
   20.4051   19.0314   25.6526 H   0  0  0  0  0  0  0  0  0  0  0  0
   19.1523   20.2007   25.2292 H   0  0  0  0  0  0  0  0  0  0  0  0
   20.5578   19.7912   23.6191 C   0  0  0  0  0  0  0  0  0  0  0  0
   21.6270   19.5639   23.5083 H   0  0  0  0  0  0  0  0  0  0  0  0
   20.3740   20.7336   23.0848 H   0  0  0  0  0  0  0  0  0  0  0  0
   19.7219   18.6633   22.9768 C   0  0  0  0  0  0  0  0  0  0  0  0
   19.9056   17.7209   23.5108 H   0  0  0  0  0  0  0  0  0  0  0  0
   18.6527   18.8905   23.0875 H   0  0  0  0  0  0  0  0  0  0  0  0
   20.0581   18.4820   21.4809 C   0  0  0  0  0  0  0  0  0  0  0  0
   21.1273   18.2547   21.3698 H   0  0  0  0  0  0  0  0  0  0  0  0
   19.8745   19.4243   20.9465 H   0  0  0  0  0  0  0  0  0  0  0  0
   19.2226   17.3547   20.8387 C   0  0  0  0  0  0  0  0  0  0  0  0
   19.4051   16.4100   21.3695 H   0  0  0  0  0  0  0  0  0  0  0  0
   18.1524   17.5796   20.9462 H   0  0  0  0  0  0  0  0  0  0  0  0
   19.5613   17.1768   19.3450 C   0  0  0  0  0  0  0  0  0  0  0  0
   18.9585   16.3718   18.9048 H   0  0  0  0  0  0  0  0  0  0  0  0
   19.3579   18.0982   18.7837 H   0  0  0  0  0  0  0  0  0  0  0  0
   20.6201   16.9198   19.2102 H   0  0  0  0  0  0  0  0  0  0  0  0
  1  2  1  0  0  0  0
  1  3  2  0  0  0  0
  1  4  1  0  0  0  0
  4  5  1  0  0  0  0
  4  6  1  0  0  0  0
  4  7  1  0  0  0  0
  7  8  1  0  0  0  0
  7  9  1  0  0  0  0
  7 10  1  0  0  0  0
 10 11  1  0  0  0  0
 10 12  1  0  0  0  0
 10 13  1  0  0  0  0
 13 14  1  0  0  0  0
 13 15  1  0  0  0  0
 13 16  1  0  0  0  0
 16 17  1  0  0  0  0
 16 18  1  0  0  0  0
 16 19  1  0  0  0  0
 19 20  1  0  0  0  0
 19 21  1  0  0  0  0
 19 22  1  0  0  0  0
 22 23  1  0  0  0  0
 22 24  1  0  0  0  0
 22 25  1  0  0  0  0
M  END
> <VConfSearch Rank>
82

> <Conf_Id>
27

> <Delta U+W>
-1.297

> <U+W>
-52.926

> <U>
5.617

> <W>
-58.543

> <W(PB)>
-61.065

> <W(SA)>
2.522

> <Valence>
7.531

> <Coulomb>
-2.818

> <VdW>
0.904

> <VdW6>
-7.640

> <VdW12>
8.544

> <Bond>
0.115

> <Angle>
2.271

> <Pdih>
5.144

> <Idih>
0.001

> <Tether>
0.000

$$$$
VeraChem MOL file


 25 24  0  0  0  0  0  0  0  0999 V2000     
   17.8925   19.3080   20.0640 C   0  0  0  0  0  0  0  0  0  0  0  0
   16.8816   19.9623   20.2286 O   0  5  0  0  0  0  0  0  0  0  0  0
   18.7953   19.6400   19.3212 O   0  0  0  0  0  0  0  0  0  0  0  0
   18.0258   17.9891   20.8201 C   0  0  0  0  0  0  0  0  0  0  0  0
   18.7870   17.3759   20.3226 H   0  0  0  0  0  0  0  0  0  0  0  0
   17.0732   17.4558   20.7196 H   0  0  0  0  0  0  0  0  0  0  0  0
   18.3704   18.1560   22.3228 C   0  0  0  0  0  0  0  0  0  0  0  0
   17.6146   18.7948   22.8007 H   0  0  0  0  0  0  0  0  0  0  0  0
   18.3108   17.1749   22.8132 H   0  0  0  0  0  0  0  0  0  0  0  0
   19.7778   18.7531   22.5471 C   0  0  0  0  0  0  0  0  0  0  0  0
   19.8397   19.7429   22.0741 H   0  0  0  0  0  0  0  0  0  0  0  0
   20.5283   18.1184   22.0562 H   0  0  0  0  0  0  0  0  0  0  0  0
   20.1122   18.8806   24.0490 C   0  0  0  0  0  0  0  0  0  0  0  0
   19.3612   19.5155   24.5390 H   0  0  0  0  0  0  0  0  0  0  0  0
   20.0538   17.8914   24.5235 H   0  0  0  0  0  0  0  0  0  0  0  0
   21.5180   19.4779   24.2738 C   0  0  0  0  0  0  0  0  0  0  0  0
   21.5766   20.4671   23.7993 H   0  0  0  0  0  0  0  0  0  0  0  0
   22.2691   18.8434   23.7836 H   0  0  0  0  0  0  0  0  0  0  0  0
   21.8525   19.6061   25.7749 C   0  0  0  0  0  0  0  0  0  0  0  0
   21.1042   20.2418   26.2682 H   0  0  0  0  0  0  0  0  0  0  0  0
   21.7968   18.6180   26.2525 H   0  0  0  0  0  0  0  0  0  0  0  0
   23.2570   20.2031   25.9950 C   0  0  0  0  0  0  0  0  0  0  0  0
   23.3311   21.2059   25.5542 H   0  0  0  0  0  0  0  0  0  0  0  0
   23.4781   20.2870   27.0670 H   0  0  0  0  0  0  0  0  0  0  0  0
   24.0290   19.5699   25.5383 H   0  0  0  0  0  0  0  0  0  0  0  0
  1  2  1  0  0  0  0
  1  3  2  0  0  0  0
  1  4  1  0  0  0  0
  4  5  1  0  0  0  0
  4  6  1  0  0  0  0
  4  7  1  0  0  0  0
  7  8  1  0  0  0  0
  7  9  1  0  0  0  0
  7 10  1  0  0  0  0
 10 11  1  0  0  0  0
 10 12  1  0  0  0  0
 10 13  1  0  0  0  0
 13 14  1  0  0  0  0
 13 15  1  0  0  0  0
 13 16  1  0  0  0  0
 16 17  1  0  0  0  0
 16 18  1  0  0  0  0
 16 19  1  0  0  0  0
 19 20  1  0  0  0  0
 19 21  1  0  0  0  0
 19 22  1  0  0  0  0
 22 23  1  0  0  0  0
 22 24  1  0  0  0  0
 22 25  1  0  0  0  0
M  END
> <VConfSearch Rank>
83

> <Conf_Id>
37

> <Delta U+W>
-0.230

> <U+W>
-51.860

> <U>
7.816

> <W>
-59.675

> <W(PB)>
-62.180

> <W(SA)>
2.505

> <Valence>
7.785

> <Coulomb>
-0.713

> <VdW>
0.744

> <VdW6>
-8.514

> <VdW12>
9.259

> <Bond>
0.136

> <Angle>
2.433

> <Pdih>
5.216

> <Idih>
0.000

> <Tether>
0.000

$$$$
VeraChem MOL file


 25 24  0  0  0  0  0  0  0  0999 V2000     
   17.8095   17.0280   25.8140 C   0  0  0  0  0  0  0  0  0  0  0  0
   16.7931   17.5640   26.2099 O   0  5  0  0  0  0  0  0  0  0  0  0
   18.7460   16.7454   26.5352 O   0  0  0  0  0  0  0  0  0  0  0  0
   17.9063   16.6766   24.3320 C   0  0  0  0  0  0  0  0  0  0  0  0
   16.9586   16.2067   24.0439 H   0  0  0  0  0  0  0  0  0  0  0  0
   18.6887   15.9191   24.2022 H   0  0  0  0  0  0  0  0  0  0  0  0
   18.1816   17.8944   23.4122 C   0  0  0  0  0  0  0  0  0  0  0  0
   18.0983   17.5756   22.3643 H   0  0  0  0  0  0  0  0  0  0  0  0
   17.4056   18.6555   23.5739 H   0  0  0  0  0  0  0  0  0  0  0  0
   19.5782   18.5128   23.6470 C   0  0  0  0  0  0  0  0  0  0  0  0
   20.3495   17.7449   23.4972 H   0  0  0  0  0  0  0  0  0  0  0  0
   19.6632   18.8502   24.6893 H   0  0  0  0  0  0  0  0  0  0  0  0
   19.8432   19.7027   22.6996 C   0  0  0  0  0  0  0  0  0  0  0  0
   19.7616   19.3670   21.6567 H   0  0  0  0  0  0  0  0  0  0  0  0
   19.0715   20.4700   22.8502 H   0  0  0  0  0  0  0  0  0  0  0  0
   21.2382   20.3215   22.9341 C   0  0  0  0  0  0  0  0  0  0  0  0
   22.0101   19.5542   22.7838 H   0  0  0  0  0  0  0  0  0  0  0  0
   21.3200   20.6571   23.9771 H   0  0  0  0  0  0  0  0  0  0  0  0
   21.5034   21.5113   21.9878 C   0  0  0  0  0  0  0  0  0  0  0  0
   21.4241   21.1788   20.9435 H   0  0  0  0  0  0  0  0  0  0  0  0
   20.7342   22.2817   22.1368 H   0  0  0  0  0  0  0  0  0  0  0  0
   22.8973   22.1263   22.2252 C   0  0  0  0  0  0  0  0  0  0  0  0
   23.6884   21.3850   22.0521 H   0  0  0  0  0  0  0  0  0  0  0  0
   23.0688   22.9703   21.5445 H   0  0  0  0  0  0  0  0  0  0  0  0
   22.9933   22.4962   23.2545 H   0  0  0  0  0  0  0  0  0  0  0  0
  1  2  1  0  0  0  0
  1  3  2  0  0  0  0
  1  4  1  0  0  0  0
  4  5  1  0  0  0  0
  4  6  1  0  0  0  0
  4  7  1  0  0  0  0
  7  8  1  0  0  0  0
  7  9  1  0  0  0  0
  7 10  1  0  0  0  0
 10 11  1  0  0  0  0
 10 12  1  0  0  0  0
 10 13  1  0  0  0  0
 13 14  1  0  0  0  0
 13 15  1  0  0  0  0
 13 16  1  0  0  0  0
 16 17  1  0  0  0  0
 16 18  1  0  0  0  0
 16 19  1  0  0  0  0
 19 20  1  0  0  0  0
 19 21  1  0  0  0  0
 19 22  1  0  0  0  0
 22 23  1  0  0  0  0
 22 24  1  0  0  0  0
 22 25  1  0  0  0  0
M  END
> <VConfSearch Rank>
84

> <Conf_Id>
54

> <Delta U+W>
-0.224

> <U+W>
-51.854

> <U>
7.816

> <W>
-59.670

> <W(PB)>
-62.157

> <W(SA)>
2.487

> <Valence>
7.785

> <Coulomb>
-0.713

> <VdW>
0.744

> <VdW6>
-8.515

> <VdW12>
9.259

> <Bond>
0.136

> <Angle>
2.433

> <Pdih>
5.215

> <Idih>
0.000

> <Tether>
0.000

$$$$
VeraChem MOL file


 25 24  0  0  0  0  0  0  0  0999 V2000     
   18.1570   21.6991   20.8868 C   0  0  0  0  0  0  0  0  0  0  0  0
   18.6903   22.7750   21.0744 O   0  5  0  0  0  0  0  0  0  0  0  0
   17.9646   21.2271   19.7835 O   0  0  0  0  0  0  0  0  0  0  0  0
   17.6855   20.9040   22.1012 C   0  0  0  0  0  0  0  0  0  0  0  0
   16.6687   20.5540   21.8878 H   0  0  0  0  0  0  0  0  0  0  0  0
   17.6138   21.5837   22.9589 H   0  0  0  0  0  0  0  0  0  0  0  0
   18.5871   19.6918   22.4523 C   0  0  0  0  0  0  0  0  0  0  0  0
   18.0860   19.1009   23.2292 H   0  0  0  0  0  0  0  0  0  0  0  0
   18.6826   19.0423   21.5712 H   0  0  0  0  0  0  0  0  0  0  0  0
   19.9912   20.1190   22.9442 C   0  0  0  0  0  0  0  0  0  0  0  0
   19.8967   20.7306   23.8518 H   0  0  0  0  0  0  0  0  0  0  0  0
   20.4569   20.7627   22.1855 H   0  0  0  0  0  0  0  0  0  0  0  0
   20.9410   18.9281   23.2177 C   0  0  0  0  0  0  0  0  0  0  0  0
   21.0202   18.3064   22.3156 H   0  0  0  0  0  0  0  0  0  0  0  0
   21.9437   19.3320   23.4061 H   0  0  0  0  0  0  0  0  0  0  0  0
   20.5063   18.0535   24.4198 C   0  0  0  0  0  0  0  0  0  0  0  0
   19.5068   17.6424   24.2306 H   0  0  0  0  0  0  0  0  0  0  0  0
   20.4223   18.6767   25.3204 H   0  0  0  0  0  0  0  0  0  0  0  0
   21.4639   16.8708   24.6969 C   0  0  0  0  0  0  0  0  0  0  0  0
   21.0146   16.2282   25.4665 H   0  0  0  0  0  0  0  0  0  0  0  0
   21.5604   16.2519   23.7942 H   0  0  0  0  0  0  0  0  0  0  0  0
   22.8636   17.3128   25.1772 C   0  0  0  0  0  0  0  0  0  0  0  0
   23.4043   17.8569   24.3930 H   0  0  0  0  0  0  0  0  0  0  0  0
   22.7895   17.9620   26.0593 H   0  0  0  0  0  0  0  0  0  0  0  0
   23.4685   16.4387   25.4510 H   0  0  0  0  0  0  0  0  0  0  0  0
  1  2  1  0  0  0  0
  1  3  2  0  0  0  0
  1  4  1  0  0  0  0
  4  5  1  0  0  0  0
  4  6  1  0  0  0  0
  4  7  1  0  0  0  0
  7  8  1  0  0  0  0
  7  9  1  0  0  0  0
  7 10  1  0  0  0  0
 10 11  1  0  0  0  0
 10 12  1  0  0  0  0
 10 13  1  0  0  0  0
 13 14  1  0  0  0  0
 13 15  1  0  0  0  0
 13 16  1  0  0  0  0
 16 17  1  0  0  0  0
 16 18  1  0  0  0  0
 16 19  1  0  0  0  0
 19 20  1  0  0  0  0
 19 21  1  0  0  0  0
 19 22  1  0  0  0  0
 22 23  1  0  0  0  0
 22 24  1  0  0  0  0
 22 25  1  0  0  0  0
M  END
> <VConfSearch Rank>
85

> <Conf_Id>
101

> <Delta U+W>
1.534

> <U+W>
-50.095

> <U>
9.416

> <W>
-59.512

> <W(PB)>
-61.988

> <W(SA)>
2.476

> <Valence>
8.939

> <Coulomb>
-0.615

> <VdW>
1.092

> <VdW6>
-9.710

> <VdW12>
10.802

> <Bond>
0.216

> <Angle>
2.979

> <Pdih>
5.743

> <Idih>
0.000

> <Tether>
0.000

$$$$
VeraChem MOL file


 25 24  0  0  0  0  0  0  0  0999 V2000     
   23.7431   17.6786   21.8821 C   0  0  0  0  0  0  0  0  0  0  0  0
   24.6245   18.1854   22.5477 O   0  5  0  0  0  0  0  0  0  0  0  0
   23.8825   16.6479   21.2536 O   0  0  0  0  0  0  0  0  0  0  0  0
   22.3804   18.3614   21.8519 C   0  0  0  0  0  0  0  0  0  0  0  0
   21.9248   18.1677   20.8734 H   0  0  0  0  0  0  0  0  0  0  0  0
   22.5483   19.4416   21.9249 H   0  0  0  0  0  0  0  0  0  0  0  0
   21.4408   17.8741   22.9856 C   0  0  0  0  0  0  0  0  0  0  0  0
   21.3751   16.7782   22.9401 H   0  0  0  0  0  0  0  0  0  0  0  0
   21.8844   18.1174   23.9610 H   0  0  0  0  0  0  0  0  0  0  0  0
   20.0104   18.4586   22.9012 C   0  0  0  0  0  0  0  0  0  0  0  0
   19.3919   17.9488   23.6509 H   0  0  0  0  0  0  0  0  0  0  0  0
   19.5727   18.2225   21.9218 H   0  0  0  0  0  0  0  0  0  0  0  0
   19.9545   19.9867   23.1450 C   0  0  0  0  0  0  0  0  0  0  0  0
   20.3912   20.2226   24.1242 H   0  0  0  0  0  0  0  0  0  0  0  0
   20.5790   20.4982   22.4020 H   0  0  0  0  0  0  0  0  0  0  0  0
   18.5245   20.5767   23.0474 C   0  0  0  0  0  0  0  0  0  0  0  0
   18.1385   20.4068   22.0331 H   0  0  0  0  0  0  0  0  0  0  0  0
   18.5863   21.6668   23.1686 H   0  0  0  0  0  0  0  0  0  0  0  0
   17.5022   20.0203   24.0695 C   0  0  0  0  0  0  0  0  0  0  0  0
   16.5341   20.5100   23.8964 H   0  0  0  0  0  0  0  0  0  0  0  0
   17.3343   18.9495   23.8944 H   0  0  0  0  0  0  0  0  0  0  0  0
   17.9182   20.2492   25.5387 C   0  0  0  0  0  0  0  0  0  0  0  0
   18.1150   21.3120   25.7304 H   0  0  0  0  0  0  0  0  0  0  0  0
   17.1205   19.9242   26.2190 H   0  0  0  0  0  0  0  0  0  0  0  0
   18.8219   19.6799   25.7902 H   0  0  0  0  0  0  0  0  0  0  0  0
  1  2  1  0  0  0  0
  1  3  2  0  0  0  0
  1  4  1  0  0  0  0
  4  5  1  0  0  0  0
  4  6  1  0  0  0  0
  4  7  1  0  0  0  0
  7  8  1  0  0  0  0
  7  9  1  0  0  0  0
  7 10  1  0  0  0  0
 10 11  1  0  0  0  0
 10 12  1  0  0  0  0
 10 13  1  0  0  0  0
 13 14  1  0  0  0  0
 13 15  1  0  0  0  0
 13 16  1  0  0  0  0
 16 17  1  0  0  0  0
 16 18  1  0  0  0  0
 16 19  1  0  0  0  0
 19 20  1  0  0  0  0
 19 21  1  0  0  0  0
 19 22  1  0  0  0  0
 22 23  1  0  0  0  0
 22 24  1  0  0  0  0
 22 25  1  0  0  0  0
M  END
> <VConfSearch Rank>
86

> <Conf_Id>
75

> <Delta U+W>
1.014

> <U+W>
-50.615

> <U>
8.474

> <W>
-59.089

> <W(PB)>
-61.530

> <W(SA)>
2.441

> <Valence>
9.080

> <Coulomb>
-1.772

> <VdW>
1.165

> <VdW6>
-9.830

> <VdW12>
10.996

> <Bond>
0.240

> <Angle>
3.225

> <Pdih>
5.615

> <Idih>
0.001

> <Tether>
0.000

$$$$
VeraChem MOL file


 25 24  0  0  0  0  0  0  0  0999 V2000     
   19.2038   21.2952   19.7242 C   0  0  0  0  0  0  0  0  0  0  0  0
   18.7120   22.3634   20.0306 O   0  5  0  0  0  0  0  0  0  0  0  0
   19.7954   21.1009   18.6807 O   0  0  0  0  0  0  0  0  0  0  0  0
   19.0906   20.1406   20.7132 C   0  0  0  0  0  0  0  0  0  0  0  0
   19.0335   19.2066   20.1415 H   0  0  0  0  0  0  0  0  0  0  0  0
   18.1432   20.2478   21.2550 H   0  0  0  0  0  0  0  0  0  0  0  0
   20.2736   20.0853   21.7111 C   0  0  0  0  0  0  0  0  0  0  0  0
   21.2154   19.9910   21.1529 H   0  0  0  0  0  0  0  0  0  0  0  0
   20.3247   21.0324   22.2659 H   0  0  0  0  0  0  0  0  0  0  0  0
   20.1351   18.9095   22.7023 C   0  0  0  0  0  0  0  0  0  0  0  0
   20.0838   17.9651   22.1434 H   0  0  0  0  0  0  0  0  0  0  0  0
   19.1882   19.0042   23.2470 H   0  0  0  0  0  0  0  0  0  0  0  0
   21.3219   18.8549   23.6928 C   0  0  0  0  0  0  0  0  0  0  0  0
   22.2460   18.7283   23.1124 H   0  0  0  0  0  0  0  0  0  0  0  0
   21.4221   19.8119   24.2229 H   0  0  0  0  0  0  0  0  0  0  0  0
   21.2187   17.6915   24.7118 C   0  0  0  0  0  0  0  0  0  0  0  0
   22.2319   17.3099   24.8979 H   0  0  0  0  0  0  0  0  0  0  0  0
   20.6592   16.8522   24.2767 H   0  0  0  0  0  0  0  0  0  0  0  0
   20.6103   18.0834   26.0812 C   0  0  0  0  0  0  0  0  0  0  0  0
   20.6603   17.2110   26.7472 H   0  0  0  0  0  0  0  0  0  0  0  0
   21.2279   18.8625   26.5489 H   0  0  0  0  0  0  0  0  0  0  0  0
   19.1466   18.5659   26.0082 C   0  0  0  0  0  0  0  0  0  0  0  0
   18.5163   17.8351   25.4852 H   0  0  0  0  0  0  0  0  0  0  0  0
   18.7377   18.7054   27.0172 H   0  0  0  0  0  0  0  0  0  0  0  0
   19.0730   19.5280   25.4862 H   0  0  0  0  0  0  0  0  0  0  0  0
  1  2  1  0  0  0  0
  1  3  2  0  0  0  0
  1  4  1  0  0  0  0
  4  5  1  0  0  0  0
  4  6  1  0  0  0  0
  4  7  1  0  0  0  0
  7  8  1  0  0  0  0
  7  9  1  0  0  0  0
  7 10  1  0  0  0  0
 10 11  1  0  0  0  0
 10 12  1  0  0  0  0
 10 13  1  0  0  0  0
 13 14  1  0  0  0  0
 13 15  1  0  0  0  0
 13 16  1  0  0  0  0
 16 17  1  0  0  0  0
 16 18  1  0  0  0  0
 16 19  1  0  0  0  0
 19 20  1  0  0  0  0
 19 21  1  0  0  0  0
 19 22  1  0  0  0  0
 22 23  1  0  0  0  0
 22 24  1  0  0  0  0
 22 25  1  0  0  0  0
M  END
> <VConfSearch Rank>
87

> <Conf_Id>
125

> <Delta U+W>
2.314

> <U+W>
-49.315

> <U>
9.740

> <W>
-59.054

> <W(PB)>
-61.488

> <W(SA)>
2.433

> <Valence>
10.506

> <Coulomb>
-1.761

> <VdW>
0.994

> <VdW6>
-9.209

> <VdW12>
10.203

> <Bond>
0.193

> <Angle>
2.979

> <Pdih>
7.334

> <Idih>
0.001

> <Tether>
0.000

$$$$
VeraChem MOL file


 25 24  0  0  0  0  0  0  0  0999 V2000     
   23.0633   18.1655   25.9473 C   0  0  0  0  0  0  0  0  0  0  0  0
   23.5953   19.2186   26.2381 O   0  5  0  0  0  0  0  0  0  0  0  0
   23.4844   17.0800   26.2951 O   0  0  0  0  0  0  0  0  0  0  0  0
   21.8118   18.2069   25.0777 C   0  0  0  0  0  0  0  0  0  0  0  0
   21.2626   19.1214   25.3283 H   0  0  0  0  0  0  0  0  0  0  0  0
   21.1759   17.3581   25.3562 H   0  0  0  0  0  0  0  0  0  0  0  0
   22.1336   18.1599   23.5613 C   0  0  0  0  0  0  0  0  0  0  0  0
   22.7313   19.0397   23.2857 H   0  0  0  0  0  0  0  0  0  0  0  0
   22.7637   17.2821   23.3618 H   0  0  0  0  0  0  0  0  0  0  0  0
   20.8753   18.0807   22.6643 C   0  0  0  0  0  0  0  0  0  0  0  0
   20.2849   17.1949   22.9358 H   0  0  0  0  0  0  0  0  0  0  0  0
   21.1980   17.9324   21.6247 H   0  0  0  0  0  0  0  0  0  0  0  0
   19.9852   19.3429   22.7403 C   0  0  0  0  0  0  0  0  0  0  0  0
   19.6023   19.4615   23.7610 H   0  0  0  0  0  0  0  0  0  0  0  0
   20.5899   20.2323   22.5167 H   0  0  0  0  0  0  0  0  0  0  0  0
   18.7990   19.2635   21.7514 C   0  0  0  0  0  0  0  0  0  0  0  0
   18.1659   18.4013   22.0017 H   0  0  0  0  0  0  0  0  0  0  0  0
   19.1876   19.0810   20.7402 H   0  0  0  0  0  0  0  0  0  0  0  0
   17.9366   20.5469   21.7208 C   0  0  0  0  0  0  0  0  0  0  0  0
   18.5658   21.4107   21.4654 H   0  0  0  0  0  0  0  0  0  0  0  0
   17.1954   20.4540   20.9150 H   0  0  0  0  0  0  0  0  0  0  0  0
   17.1957   20.8182   23.0482 C   0  0  0  0  0  0  0  0  0  0  0  0
   17.8985   21.0345   23.8626 H   0  0  0  0  0  0  0  0  0  0  0  0
   16.5298   21.6848   22.9458 H   0  0  0  0  0  0  0  0  0  0  0  0
   16.5841   19.9548   23.3406 H   0  0  0  0  0  0  0  0  0  0  0  0
  1  2  1  0  0  0  0
  1  3  2  0  0  0  0
  1  4  1  0  0  0  0
  4  5  1  0  0  0  0
  4  6  1  0  0  0  0
  4  7  1  0  0  0  0
  7  8  1  0  0  0  0
  7  9  1  0  0  0  0
  7 10  1  0  0  0  0
 10 11  1  0  0  0  0
 10 12  1  0  0  0  0
 10 13  1  0  0  0  0
 13 14  1  0  0  0  0
 13 15  1  0  0  0  0
 13 16  1  0  0  0  0
 16 17  1  0  0  0  0
 16 18  1  0  0  0  0
 16 19  1  0  0  0  0
 19 20  1  0  0  0  0
 19 21  1  0  0  0  0
 19 22  1  0  0  0  0
 22 23  1  0  0  0  0
 22 24  1  0  0  0  0
 22 25  1  0  0  0  0
M  END
> <VConfSearch Rank>
88

> <Conf_Id>
4

> <Delta U+W>
0.189

> <U+W>
-51.441

> <U>
7.701

> <W>
-59.141

> <W(PB)>
-61.609

> <W(SA)>
2.467

> <Valence>
8.550

> <Coulomb>
-1.988

> <VdW>
1.139

> <VdW6>
-8.988

> <VdW12>
10.127

> <Bond>
0.191

> <Angle>
2.738

> <Pdih>
5.621

> <Idih>
0.001

> <Tether>
0.000

$$$$
VeraChem MOL file


 25 24  0  0  0  0  0  0  0  0999 V2000     
   23.5483   17.2588   24.0473 C   0  0  0  0  0  0  0  0  0  0  0  0
   23.6378   17.2101   25.2582 O   0  5  0  0  0  0  0  0  0  0  0  0
   24.3093   16.6862   23.2925 O   0  0  0  0  0  0  0  0  0  0  0  0
   22.4040   18.0636   23.4416 C   0  0  0  0  0  0  0  0  0  0  0  0
   22.7448   18.4702   22.4820 H   0  0  0  0  0  0  0  0  0  0  0  0
   22.2078   18.9138   24.1044 H   0  0  0  0  0  0  0  0  0  0  0  0
   21.1188   17.2195   23.2391 C   0  0  0  0  0  0  0  0  0  0  0  0
   21.3724   16.3271   22.6502 H   0  0  0  0  0  0  0  0  0  0  0  0
   20.7609   16.8569   24.2127 H   0  0  0  0  0  0  0  0  0  0  0  0
   19.9842   17.9841   22.5165 C   0  0  0  0  0  0  0  0  0  0  0  0
   19.1657   17.2804   22.3122 H   0  0  0  0  0  0  0  0  0  0  0  0
   20.3421   18.3366   21.5395 H   0  0  0  0  0  0  0  0  0  0  0  0
   19.4313   19.1773   23.3300 C   0  0  0  0  0  0  0  0  0  0  0  0
   19.1202   18.8306   24.3247 H   0  0  0  0  0  0  0  0  0  0  0  0
   20.2254   19.9186   23.4806 H   0  0  0  0  0  0  0  0  0  0  0  0
   18.2321   19.8450   22.6178 C   0  0  0  0  0  0  0  0  0  0  0  0
   17.4676   19.0830   22.4136 H   0  0  0  0  0  0  0  0  0  0  0  0
   18.5517   20.2345   21.6416 H   0  0  0  0  0  0  0  0  0  0  0  0
   17.5830   20.9821   23.4410 C   0  0  0  0  0  0  0  0  0  0  0  0
   16.6749   21.3185   22.9220 H   0  0  0  0  0  0  0  0  0  0  0  0
   17.2573   20.5948   24.4163 H   0  0  0  0  0  0  0  0  0  0  0  0
   18.5147   22.1958   23.6490 C   0  0  0  0  0  0  0  0  0  0  0  0
   18.8788   22.5811   22.6877 H   0  0  0  0  0  0  0  0  0  0  0  0
   17.9792   23.0080   24.1575 H   0  0  0  0  0  0  0  0  0  0  0  0
   19.3829   21.9336   24.2663 H   0  0  0  0  0  0  0  0  0  0  0  0
  1  2  1  0  0  0  0
  1  3  2  0  0  0  0
  1  4  1  0  0  0  0
  4  5  1  0  0  0  0
  4  6  1  0  0  0  0
  4  7  1  0  0  0  0
  7  8  1  0  0  0  0
  7  9  1  0  0  0  0
  7 10  1  0  0  0  0
 10 11  1  0  0  0  0
 10 12  1  0  0  0  0
 10 13  1  0  0  0  0
 13 14  1  0  0  0  0
 13 15  1  0  0  0  0
 13 16  1  0  0  0  0
 16 17  1  0  0  0  0
 16 18  1  0  0  0  0
 16 19  1  0  0  0  0
 19 20  1  0  0  0  0
 19 21  1  0  0  0  0
 19 22  1  0  0  0  0
 22 23  1  0  0  0  0
 22 24  1  0  0  0  0
 22 25  1  0  0  0  0
M  END
> <VConfSearch Rank>
89

> <Conf_Id>
17

> <Delta U+W>
0.219

> <U+W>
-51.411

> <U>
7.701

> <W>
-59.111

> <W(PB)>
-61.599

> <W(SA)>
2.488

> <Valence>
8.550

> <Coulomb>
-1.988

> <VdW>
1.139

> <VdW6>
-8.988

> <VdW12>
10.127

> <Bond>
0.191

> <Angle>
2.738

> <Pdih>
5.621

> <Idih>
0.001

> <Tether>
0.000

$$$$
VeraChem MOL file


 25 24  0  0  0  0  0  0  0  0999 V2000     
   21.1302   22.9368   23.2956 C   0  0  0  0  0  0  0  0  0  0  0  0
   20.5508   23.5390   22.4131 O   0  5  0  0  0  0  0  0  0  0  0  0
   22.3299   22.7429   23.3023 O   0  0  0  0  0  0  0  0  0  0  0  0
   20.3106   22.4112   24.4708 C   0  0  0  0  0  0  0  0  0  0  0  0
   19.3594   22.9559   24.5055 H   0  0  0  0  0  0  0  0  0  0  0  0
   20.8541   22.6632   25.3890 H   0  0  0  0  0  0  0  0  0  0  0  0
   20.0526   20.8828   24.4242 C   0  0  0  0  0  0  0  0  0  0  0  0
   21.0173   20.3610   24.3705 H   0  0  0  0  0  0  0  0  0  0  0  0
   19.5751   20.5727   25.3634 H   0  0  0  0  0  0  0  0  0  0  0  0
   19.1541   20.4703   23.2337 C   0  0  0  0  0  0  0  0  0  0  0  0
   19.6553   20.7125   22.2863 H   0  0  0  0  0  0  0  0  0  0  0  0
   18.2330   21.0684   23.2576 H   0  0  0  0  0  0  0  0  0  0  0  0
   18.7676   18.9722   23.2436 C   0  0  0  0  0  0  0  0  0  0  0  0
   18.2583   18.7296   24.1863 H   0  0  0  0  0  0  0  0  0  0  0  0
   18.0374   18.7963   22.4419 H   0  0  0  0  0  0  0  0  0  0  0  0
   19.9723   18.0239   23.0425 C   0  0  0  0  0  0  0  0  0  0  0  0
   20.6778   18.1322   23.8764 H   0  0  0  0  0  0  0  0  0  0  0  0
   20.5115   18.3046   22.1274 H   0  0  0  0  0  0  0  0  0  0  0  0
   19.5275   16.5492   22.9465 C   0  0  0  0  0  0  0  0  0  0  0  0
   18.9862   16.2658   23.8598 H   0  0  0  0  0  0  0  0  0  0  0  0
   18.8268   16.4269   22.1090 H   0  0  0  0  0  0  0  0  0  0  0  0
   20.7303   15.6046   22.7497 C   0  0  0  0  0  0  0  0  0  0  0  0
   21.4326   15.6825   23.5899 H   0  0  0  0  0  0  0  0  0  0  0  0
   20.3959   14.5611   22.6831 H   0  0  0  0  0  0  0  0  0  0  0  0
   21.2725   15.8464   21.8261 H   0  0  0  0  0  0  0  0  0  0  0  0
  1  2  1  0  0  0  0
  1  3  2  0  0  0  0
  1  4  1  0  0  0  0
  4  5  1  0  0  0  0
  4  6  1  0  0  0  0
  4  7  1  0  0  0  0
  7  8  1  0  0  0  0
  7  9  1  0  0  0  0
  7 10  1  0  0  0  0
 10 11  1  0  0  0  0
 10 12  1  0  0  0  0
 10 13  1  0  0  0  0
 13 14  1  0  0  0  0
 13 15  1  0  0  0  0
 13 16  1  0  0  0  0
 16 17  1  0  0  0  0
 16 18  1  0  0  0  0
 16 19  1  0  0  0  0
 19 20  1  0  0  0  0
 19 21  1  0  0  0  0
 19 22  1  0  0  0  0
 22 23  1  0  0  0  0
 22 24  1  0  0  0  0
 22 25  1  0  0  0  0
M  END
> <VConfSearch Rank>
90

> <Conf_Id>
142

> <Delta U+W>
0.593

> <U+W>
-51.037

> <U>
8.903

> <W>
-59.940

> <W(PB)>
-62.418

> <W(SA)>
2.478

> <Valence>
8.305

> <Coulomb>
-0.223

> <VdW>
0.821

> <VdW6>
-9.236

> <VdW12>
10.057

> <Bond>
0.173

> <Angle>
2.663

> <Pdih>
5.469

> <Idih>
0.001

> <Tether>
0.000

$$$$
VeraChem MOL file


 25 24  0  0  0  0  0  0  0  0999 V2000     
   17.7508   21.4453   24.4225 C   0  0  0  0  0  0  0  0  0  0  0  0
   17.5816   22.3187   25.2509 O   0  5  0  0  0  0  0  0  0  0  0  0
   17.4016   21.5426   23.2625 O   0  0  0  0  0  0  0  0  0  0  0  0
   18.4131   20.1464   24.8731 C   0  0  0  0  0  0  0  0  0  0  0  0
   18.2416   19.3806   24.1079 H   0  0  0  0  0  0  0  0  0  0  0  0
   17.8884   19.8080   25.7741 H   0  0  0  0  0  0  0  0  0  0  0  0
   19.9294   20.2815   25.1810 C   0  0  0  0  0  0  0  0  0  0  0  0
   20.0595   21.0047   25.9978 H   0  0  0  0  0  0  0  0  0  0  0  0
   20.3073   19.3247   25.5640 H   0  0  0  0  0  0  0  0  0  0  0  0
   20.7900   20.7371   23.9742 C   0  0  0  0  0  0  0  0  0  0  0  0
   21.8381   20.8076   24.2952 H   0  0  0  0  0  0  0  0  0  0  0  0
   20.4935   21.7555   23.6878 H   0  0  0  0  0  0  0  0  0  0  0  0
   20.7089   19.8278   22.7224 C   0  0  0  0  0  0  0  0  0  0  0  0
   19.6866   19.8354   22.3210 H   0  0  0  0  0  0  0  0  0  0  0  0
   21.3448   20.2618   21.9390 H   0  0  0  0  0  0  0  0  0  0  0  0
   21.1585   18.3720   22.9855 C   0  0  0  0  0  0  0  0  0  0  0  0
   20.4869   17.8999   23.7144 H   0  0  0  0  0  0  0  0  0  0  0  0
   22.1640   18.3726   23.4278 H   0  0  0  0  0  0  0  0  0  0  0  0
   21.1651   17.5341   21.6897 C   0  0  0  0  0  0  0  0  0  0  0  0
   20.1606   17.5344   21.2442 H   0  0  0  0  0  0  0  0  0  0  0  0
   21.8407   17.9931   20.9546 H   0  0  0  0  0  0  0  0  0  0  0  0
   21.6079   16.0810   21.9548 C   0  0  0  0  0  0  0  0  0  0  0  0
   20.9300   15.5869   22.6630 H   0  0  0  0  0  0  0  0  0  0  0  0
   21.6069   15.5002   21.0233 H   0  0  0  0  0  0  0  0  0  0  0  0
   22.6226   16.0498   22.3727 H   0  0  0  0  0  0  0  0  0  0  0  0
  1  2  1  0  0  0  0
  1  3  2  0  0  0  0
  1  4  1  0  0  0  0
  4  5  1  0  0  0  0
  4  6  1  0  0  0  0
  4  7  1  0  0  0  0
  7  8  1  0  0  0  0
  7  9  1  0  0  0  0
  7 10  1  0  0  0  0
 10 11  1  0  0  0  0
 10 12  1  0  0  0  0
 10 13  1  0  0  0  0
 13 14  1  0  0  0  0
 13 15  1  0  0  0  0
 13 16  1  0  0  0  0
 16 17  1  0  0  0  0
 16 18  1  0  0  0  0
 16 19  1  0  0  0  0
 19 20  1  0  0  0  0
 19 21  1  0  0  0  0
 19 22  1  0  0  0  0
 22 23  1  0  0  0  0
 22 24  1  0  0  0  0
 22 25  1  0  0  0  0
M  END
> <VConfSearch Rank>
91

> <Conf_Id>
135

> <Delta U+W>
1.314

> <U+W>
-50.316

> <U>
9.773

> <W>
-60.088

> <W(PB)>
-62.535

> <W(SA)>
2.447

> <Valence>
8.741

> <Coulomb>
0.479

> <VdW>
0.552

> <VdW6>
-10.627

> <VdW12>
11.179

> <Bond>
0.227

> <Angle>
3.155

> <Pdih>
5.358

> <Idih>
0.001

> <Tether>
0.000

$$$$
VeraChem MOL file


 25 24  0  0  0  0  0  0  0  0999 V2000     
   22.7122   18.4616   20.0416 C   0  0  0  0  0  0  0  0  0  0  0  0
   22.1614   18.4538   18.9584 O   0  5  0  0  0  0  0  0  0  0  0  0
   23.9083   18.6193   20.1873 O   0  0  0  0  0  0  0  0  0  0  0  0
   21.8521   18.2864   21.2881 C   0  0  0  0  0  0  0  0  0  0  0  0
   22.4553   17.7755   22.0480 H   0  0  0  0  0  0  0  0  0  0  0  0
   21.0228   17.6193   21.0282 H   0  0  0  0  0  0  0  0  0  0  0  0
   21.3209   19.6337   21.8435 C   0  0  0  0  0  0  0  0  0  0  0  0
   22.1739   20.3086   21.9993 H   0  0  0  0  0  0  0  0  0  0  0  0
   20.6789   20.1144   21.0924 H   0  0  0  0  0  0  0  0  0  0  0  0
   20.5515   19.4952   23.1791 C   0  0  0  0  0  0  0  0  0  0  0  0
   20.3577   20.5051   23.5619 H   0  0  0  0  0  0  0  0  0  0  0  0
   21.1862   18.9917   23.9209 H   0  0  0  0  0  0  0  0  0  0  0  0
   19.2065   18.7426   23.0408 C   0  0  0  0  0  0  0  0  0  0  0  0
   18.5556   19.2853   22.3420 H   0  0  0  0  0  0  0  0  0  0  0  0
   19.3821   17.7556   22.5953 H   0  0  0  0  0  0  0  0  0  0  0  0
   18.4578   18.5290   24.3807 C   0  0  0  0  0  0  0  0  0  0  0  0
   19.0626   17.9065   25.0543 H   0  0  0  0  0  0  0  0  0  0  0  0
   17.5546   17.9424   24.1641 H   0  0  0  0  0  0  0  0  0  0  0  0
   18.0249   19.8321   25.0983 C   0  0  0  0  0  0  0  0  0  0  0  0
   17.8916   20.6430   24.3690 H   0  0  0  0  0  0  0  0  0  0  0  0
   17.0399   19.6701   25.5574 H   0  0  0  0  0  0  0  0  0  0  0  0
   19.0047   20.2671   26.2109 C   0  0  0  0  0  0  0  0  0  0  0  0
   20.0106   20.4550   25.8186 H   0  0  0  0  0  0  0  0  0  0  0  0
   18.6544   21.1894   26.6921 H   0  0  0  0  0  0  0  0  0  0  0  0
   19.0832   19.4934   26.9857 H   0  0  0  0  0  0  0  0  0  0  0  0
  1  2  1  0  0  0  0
  1  3  2  0  0  0  0
  1  4  1  0  0  0  0
  4  5  1  0  0  0  0
  4  6  1  0  0  0  0
  4  7  1  0  0  0  0
  7  8  1  0  0  0  0
  7  9  1  0  0  0  0
  7 10  1  0  0  0  0
 10 11  1  0  0  0  0
 10 12  1  0  0  0  0
 10 13  1  0  0  0  0
 13 14  1  0  0  0  0
 13 15  1  0  0  0  0
 13 16  1  0  0  0  0
 16 17  1  0  0  0  0
 16 18  1  0  0  0  0
 16 19  1  0  0  0  0
 19 20  1  0  0  0  0
 19 21  1  0  0  0  0
 19 22  1  0  0  0  0
 22 23  1  0  0  0  0
 22 24  1  0  0  0  0
 22 25  1  0  0  0  0
M  END
> <VConfSearch Rank>
92

> <Conf_Id>
19

> <Delta U+W>
3.222

> <U+W>
-48.407

> <U>
10.617

> <W>
-59.025

> <W(PB)>
-61.462

> <W(SA)>
2.437

> <Valence>
11.188

> <Coulomb>
-1.778

> <VdW>
1.208

> <VdW6>
-9.786

> <VdW12>
10.993

> <Bond>
0.241

> <Angle>
3.294

> <Pdih>
7.653

> <Idih>
0.001

> <Tether>
0.000

$$$$
VeraChem MOL file


 25 24  0  0  0  0  0  0  0  0999 V2000     
   16.3407   18.3749   21.5295 C   0  0  0  0  0  0  0  0  0  0  0  0
   15.9150   17.2683   21.7958 O   0  5  0  0  0  0  0  0  0  0  0  0
   15.9498   19.0380   20.5891 O   0  0  0  0  0  0  0  0  0  0  0  0
   17.4424   18.9538   22.4099 C   0  0  0  0  0  0  0  0  0  0  0  0
   17.2768   18.5915   23.4304 H   0  0  0  0  0  0  0  0  0  0  0  0
   17.3251   20.0439   22.4281 H   0  0  0  0  0  0  0  0  0  0  0  0
   18.8638   18.5768   21.9164 C   0  0  0  0  0  0  0  0  0  0  0  0
   18.9873   17.4855   21.9477 H   0  0  0  0  0  0  0  0  0  0  0  0
   18.9566   18.8688   20.8611 H   0  0  0  0  0  0  0  0  0  0  0  0
   20.0003   19.2560   22.7176 C   0  0  0  0  0  0  0  0  0  0  0  0
   19.8607   20.3455   22.7062 H   0  0  0  0  0  0  0  0  0  0  0  0
   20.9455   19.0527   22.1988 H   0  0  0  0  0  0  0  0  0  0  0  0
   20.1098   18.7555   24.1777 C   0  0  0  0  0  0  0  0  0  0  0  0
   19.1474   18.8926   24.6861 H   0  0  0  0  0  0  0  0  0  0  0  0
   20.3082   17.6751   24.1786 H   0  0  0  0  0  0  0  0  0  0  0  0
   21.1938   19.4780   25.0170 C   0  0  0  0  0  0  0  0  0  0  0  0
   21.1399   19.0792   26.0392 H   0  0  0  0  0  0  0  0  0  0  0  0
   20.9536   20.5467   25.1014 H   0  0  0  0  0  0  0  0  0  0  0  0
   22.6438   19.2927   24.5038 C   0  0  0  0  0  0  0  0  0  0  0  0
   23.3143   19.2013   25.3695 H   0  0  0  0  0  0  0  0  0  0  0  0
   22.7340   18.3496   23.9474 H   0  0  0  0  0  0  0  0  0  0  0  0
   23.1381   20.4744   23.6398 C   0  0  0  0  0  0  0  0  0  0  0  0
   23.1258   21.4096   24.2146 H   0  0  0  0  0  0  0  0  0  0  0  0
   24.1686   20.3003   23.3044 H   0  0  0  0  0  0  0  0  0  0  0  0
   22.5155   20.6175   22.7493 H   0  0  0  0  0  0  0  0  0  0  0  0
  1  2  1  0  0  0  0
  1  3  2  0  0  0  0
  1  4  1  0  0  0  0
  4  5  1  0  0  0  0
  4  6  1  0  0  0  0
  4  7  1  0  0  0  0
  7  8  1  0  0  0  0
  7  9  1  0  0  0  0
  7 10  1  0  0  0  0
 10 11  1  0  0  0  0
 10 12  1  0  0  0  0
 10 13  1  0  0  0  0
 13 14  1  0  0  0  0
 13 15  1  0  0  0  0
 13 16  1  0  0  0  0
 16 17  1  0  0  0  0
 16 18  1  0  0  0  0
 16 19  1  0  0  0  0
 19 20  1  0  0  0  0
 19 21  1  0  0  0  0
 19 22  1  0  0  0  0
 22 23  1  0  0  0  0
 22 24  1  0  0  0  0
 22 25  1  0  0  0  0
M  END
> <VConfSearch Rank>
93

> <Conf_Id>
20

> <Delta U+W>
3.224

> <U+W>
-48.406

> <U>
10.617

> <W>
-59.023

> <W(PB)>
-61.467

> <W(SA)>
2.444

> <Valence>
11.188

> <Coulomb>
-1.778

> <VdW>
1.208

> <VdW6>
-9.786

> <VdW12>
10.993

> <Bond>
0.241

> <Angle>
3.294

> <Pdih>
7.653

> <Idih>
0.001

> <Tether>
0.000

$$$$
VeraChem MOL file


 25 24  0  0  0  0  0  0  0  0999 V2000     
   22.3787   20.9954   22.5338 C   0  0  0  0  0  0  0  0  0  0  0  0
   23.1722   20.1995   22.0706 O   0  5  0  0  0  0  0  0  0  0  0  0
   22.5053   21.5089   23.6281 O   0  0  0  0  0  0  0  0  0  0  0  0
   21.1942   21.4245   21.6701 C   0  0  0  0  0  0  0  0  0  0  0  0
   21.6184   21.9285   20.7940 H   0  0  0  0  0  0  0  0  0  0  0  0
   20.6109   22.1776   22.2136 H   0  0  0  0  0  0  0  0  0  0  0  0
   20.2698   20.2699   21.1910 C   0  0  0  0  0  0  0  0  0  0  0  0
   19.7075   20.6260   20.3173 H   0  0  0  0  0  0  0  0  0  0  0  0
   20.8777   19.4263   20.8354 H   0  0  0  0  0  0  0  0  0  0  0  0
   19.2447   19.7792   22.2435 C   0  0  0  0  0  0  0  0  0  0  0  0
   18.5560   19.0800   21.7497 H   0  0  0  0  0  0  0  0  0  0  0  0
   18.6328   20.6248   22.5859 H   0  0  0  0  0  0  0  0  0  0  0  0
   19.8814   19.0721   23.4614 C   0  0  0  0  0  0  0  0  0  0  0  0
   20.5748   18.2934   23.1150 H   0  0  0  0  0  0  0  0  0  0  0  0
   20.4705   19.7914   24.0440 H   0  0  0  0  0  0  0  0  0  0  0  0
   18.8116   18.4415   24.3793 C   0  0  0  0  0  0  0  0  0  0  0  0
   18.2203   17.7125   23.8085 H   0  0  0  0  0  0  0  0  0  0  0  0
   18.1164   19.2207   24.7207 H   0  0  0  0  0  0  0  0  0  0  0  0
   19.4457   17.7450   25.6017 C   0  0  0  0  0  0  0  0  0  0  0  0
   20.1411   16.9644   25.2636 H   0  0  0  0  0  0  0  0  0  0  0  0
   20.0368   18.4717   26.1763 H   0  0  0  0  0  0  0  0  0  0  0  0
   18.3752   17.1168   26.5167 C   0  0  0  0  0  0  0  0  0  0  0  0
   17.7892   16.3627   25.9753 H   0  0  0  0  0  0  0  0  0  0  0  0
   18.8436   16.6265   27.3800 H   0  0  0  0  0  0  0  0  0  0  0  0
   17.6841   17.8815   26.8950 H   0  0  0  0  0  0  0  0  0  0  0  0
  1  2  1  0  0  0  0
  1  3  2  0  0  0  0
  1  4  1  0  0  0  0
  4  5  1  0  0  0  0
  4  6  1  0  0  0  0
  4  7  1  0  0  0  0
  7  8  1  0  0  0  0
  7  9  1  0  0  0  0
  7 10  1  0  0  0  0
 10 11  1  0  0  0  0
 10 12  1  0  0  0  0
 10 13  1  0  0  0  0
 13 14  1  0  0  0  0
 13 15  1  0  0  0  0
 13 16  1  0  0  0  0
 16 17  1  0  0  0  0
 16 18  1  0  0  0  0
 16 19  1  0  0  0  0
 19 20  1  0  0  0  0
 19 21  1  0  0  0  0
 19 22  1  0  0  0  0
 22 23  1  0  0  0  0
 22 24  1  0  0  0  0
 22 25  1  0  0  0  0
M  END
> <VConfSearch Rank>
94

> <Conf_Id>
24

> <Delta U+W>
1.784

> <U+W>
-49.846

> <U>
10.904

> <W>
-60.749

> <W(PB)>
-63.220

> <W(SA)>
2.471

> <Valence>
9.445

> <Coulomb>
0.780

> <VdW>
0.679

> <VdW6>
-10.008

> <VdW12>
10.687

> <Bond>
0.201

> <Angle>
3.198

> <Pdih>
6.039

> <Idih>
0.006

> <Tether>
0.000

$$$$
VeraChem MOL file


 25 24  0  0  0  0  0  0  0  0999 V2000     
   20.8980   21.8930   24.7161 C   0  0  0  0  0  0  0  0  0  0  0  0
   21.6204   22.4086   23.8854 O   0  5  0  0  0  0  0  0  0  0  0  0
   19.7217   22.1699   24.8463 O   0  0  0  0  0  0  0  0  0  0  0  0
   21.5144   20.8930   25.6925 C   0  0  0  0  0  0  0  0  0  0  0  0
   20.7440   20.5652   26.4008 H   0  0  0  0  0  0  0  0  0  0  0  0
   22.2588   21.4492   26.2739 H   0  0  0  0  0  0  0  0  0  0  0  0
   22.2015   19.6625   25.0362 C   0  0  0  0  0  0  0  0  0  0  0  0
   22.8171   19.9866   24.1856 H   0  0  0  0  0  0  0  0  0  0  0  0
   22.8995   19.2336   25.7678 H   0  0  0  0  0  0  0  0  0  0  0  0
   21.2333   18.5377   24.5927 C   0  0  0  0  0  0  0  0  0  0  0  0
   20.6297   18.2101   25.4501 H   0  0  0  0  0  0  0  0  0  0  0  0
   21.8342   17.6696   24.2888 H   0  0  0  0  0  0  0  0  0  0  0  0
   20.3032   18.9316   23.4230 C   0  0  0  0  0  0  0  0  0  0  0  0
   19.6031   19.7109   23.7497 H   0  0  0  0  0  0  0  0  0  0  0  0
   20.8998   19.3572   22.6045 H   0  0  0  0  0  0  0  0  0  0  0  0
   19.4975   17.7219   22.9015 C   0  0  0  0  0  0  0  0  0  0  0  0
   18.9054   17.2947   23.7225 H   0  0  0  0  0  0  0  0  0  0  0  0
   20.1886   16.9376   22.5634 H   0  0  0  0  0  0  0  0  0  0  0  0
   18.5599   18.1165   21.7411 C   0  0  0  0  0  0  0  0  0  0  0  0
   17.8658   18.8998   22.0762 H   0  0  0  0  0  0  0  0  0  0  0  0
   19.1493   18.5436   20.9179 H   0  0  0  0  0  0  0  0  0  0  0  0
   17.7565   16.9068   21.2227 C   0  0  0  0  0  0  0  0  0  0  0  0
   17.1332   16.4790   22.0189 H   0  0  0  0  0  0  0  0  0  0  0  0
   17.0957   17.2056   20.3987 H   0  0  0  0  0  0  0  0  0  0  0  0
   18.4265   16.1201   20.8518 H   0  0  0  0  0  0  0  0  0  0  0  0
  1  2  1  0  0  0  0
  1  3  2  0  0  0  0
  1  4  1  0  0  0  0
  4  5  1  0  0  0  0
  4  6  1  0  0  0  0
  4  7  1  0  0  0  0
  7  8  1  0  0  0  0
  7  9  1  0  0  0  0
  7 10  1  0  0  0  0
 10 11  1  0  0  0  0
 10 12  1  0  0  0  0
 10 13  1  0  0  0  0
 13 14  1  0  0  0  0
 13 15  1  0  0  0  0
 13 16  1  0  0  0  0
 16 17  1  0  0  0  0
 16 18  1  0  0  0  0
 16 19  1  0  0  0  0
 19 20  1  0  0  0  0
 19 21  1  0  0  0  0
 19 22  1  0  0  0  0
 22 23  1  0  0  0  0
 22 24  1  0  0  0  0
 22 25  1  0  0  0  0
M  END
> <VConfSearch Rank>
95

> <Conf_Id>
9

> <Delta U+W>
1.764

> <U+W>
-49.865

> <U>
10.902

> <W>
-60.768

> <W(PB)>
-63.223

> <W(SA)>
2.456

> <Valence>
9.445

> <Coulomb>
0.778

> <VdW>
0.679

> <VdW6>
-10.007

> <VdW12>
10.687

> <Bond>
0.201

> <Angle>
3.198

> <Pdih>
6.040

> <Idih>
0.006

> <Tether>
0.000

$$$$
VeraChem MOL file


 25 24  0  0  0  0  0  0  0  0999 V2000     
   19.8010   21.2531   26.4426 C   0  0  0  0  0  0  0  0  0  0  0  0
   19.3606   20.3278   27.0956 O   0  5  0  0  0  0  0  0  0  0  0  0
   20.2551   22.2677   26.9337 O   0  0  0  0  0  0  0  0  0  0  0  0
   19.8027   21.1261   24.9235 C   0  0  0  0  0  0  0  0  0  0  0  0
   19.6565   22.1271   24.5006 H   0  0  0  0  0  0  0  0  0  0  0  0
   18.9320   20.5285   24.6368 H   0  0  0  0  0  0  0  0  0  0  0  0
   21.1141   20.5037   24.3755 C   0  0  0  0  0  0  0  0  0  0  0  0
   21.9488   21.1469   24.6869 H   0  0  0  0  0  0  0  0  0  0  0  0
   21.2924   19.5249   24.8421 H   0  0  0  0  0  0  0  0  0  0  0  0
   21.1385   20.3740   22.8312 C   0  0  0  0  0  0  0  0  0  0  0  0
   22.1674   20.5526   22.4900 H   0  0  0  0  0  0  0  0  0  0  0  0
   20.5306   21.1657   22.3722 H   0  0  0  0  0  0  0  0  0  0  0  0
   20.7042   18.9879   22.2919 C   0  0  0  0  0  0  0  0  0  0  0  0
   20.8404   18.9839   21.2019 H   0  0  0  0  0  0  0  0  0  0  0  0
   21.3805   18.2206   22.6908 H   0  0  0  0  0  0  0  0  0  0  0  0
   19.2392   18.6108   22.6157 C   0  0  0  0  0  0  0  0  0  0  0  0
   18.5846   19.4525   22.3520 H   0  0  0  0  0  0  0  0  0  0  0  0
   19.1282   18.4467   23.6955 H   0  0  0  0  0  0  0  0  0  0  0  0
   18.7509   17.3516   21.8624 C   0  0  0  0  0  0  0  0  0  0  0  0
   17.6810   17.2099   22.0684 H   0  0  0  0  0  0  0  0  0  0  0  0
   18.8398   17.5094   20.7787 H   0  0  0  0  0  0  0  0  0  0  0  0
   19.5101   16.0685   22.2643 C   0  0  0  0  0  0  0  0  0  0  0  0
   19.4562   15.9037   23.3483 H   0  0  0  0  0  0  0  0  0  0  0  0
   19.0742   15.1924   21.7669 H   0  0  0  0  0  0  0  0  0  0  0  0
   20.5674   16.1226   21.9763 H   0  0  0  0  0  0  0  0  0  0  0  0
  1  2  1  0  0  0  0
  1  3  2  0  0  0  0
  1  4  1  0  0  0  0
  4  5  1  0  0  0  0
  4  6  1  0  0  0  0
  4  7  1  0  0  0  0
  7  8  1  0  0  0  0
  7  9  1  0  0  0  0
  7 10  1  0  0  0  0
 10 11  1  0  0  0  0
 10 12  1  0  0  0  0
 10 13  1  0  0  0  0
 13 14  1  0  0  0  0
 13 15  1  0  0  0  0
 13 16  1  0  0  0  0
 16 17  1  0  0  0  0
 16 18  1  0  0  0  0
 16 19  1  0  0  0  0
 19 20  1  0  0  0  0
 19 21  1  0  0  0  0
 19 22  1  0  0  0  0
 22 23  1  0  0  0  0
 22 24  1  0  0  0  0
 22 25  1  0  0  0  0
M  END
> <VConfSearch Rank>
96

> <Conf_Id>
89

> <Delta U+W>
2.903

> <U+W>
-48.726

> <U>
10.996

> <W>
-59.723

> <W(PB)>
-62.151

> <W(SA)>
2.428

> <Valence>
10.985

> <Coulomb>
-0.995

> <VdW>
1.006

> <VdW6>
-10.062

> <VdW12>
11.069

> <Bond>
0.238

> <Angle>
3.202

> <Pdih>
7.544

> <Idih>
0.001

> <Tether>
0.000

$$$$
VeraChem MOL file


 25 24  0  0  0  0  0  0  0  0999 V2000     
   20.8384   15.8192   22.4014 C   0  0  0  0  0  0  0  0  0  0  0  0
   20.9329   16.0386   21.2097 O   0  5  0  0  0  0  0  0  0  0  0  0
   21.7697   15.4531   23.0916 O   0  0  0  0  0  0  0  0  0  0  0  0
   19.4617   15.9488   23.0503 C   0  0  0  0  0  0  0  0  0  0  0  0
   19.1850   14.9431   23.3873 H   0  0  0  0  0  0  0  0  0  0  0  0
   18.7312   16.2346   22.2838 H   0  0  0  0  0  0  0  0  0  0  0  0
   19.3861   16.9251   24.2581 C   0  0  0  0  0  0  0  0  0  0  0  0
   18.5069   16.6529   24.8576 H   0  0  0  0  0  0  0  0  0  0  0  0
   20.2553   16.7784   24.9143 H   0  0  0  0  0  0  0  0  0  0  0  0
   19.2521   18.4214   23.8803 C   0  0  0  0  0  0  0  0  0  0  0  0
   19.0376   18.9784   24.8008 H   0  0  0  0  0  0  0  0  0  0  0  0
   18.3816   18.5604   23.2250 H   0  0  0  0  0  0  0  0  0  0  0  0
   20.5117   19.0158   23.2045 C   0  0  0  0  0  0  0  0  0  0  0  0
   21.3956   18.8252   23.8283 H   0  0  0  0  0  0  0  0  0  0  0  0
   20.6863   18.5026   22.2511 H   0  0  0  0  0  0  0  0  0  0  0  0
   20.3986   20.5310   22.9104 C   0  0  0  0  0  0  0  0  0  0  0  0
   19.4965   20.7243   22.3139 H   0  0  0  0  0  0  0  0  0  0  0  0
   21.2525   20.8262   22.2852 H   0  0  0  0  0  0  0  0  0  0  0  0
   20.3847   21.4110   24.1811 C   0  0  0  0  0  0  0  0  0  0  0  0
   19.4942   21.1935   24.7847 H   0  0  0  0  0  0  0  0  0  0  0  0
   21.2592   21.1765   24.8036 H   0  0  0  0  0  0  0  0  0  0  0  0
   20.3952   22.9123   23.8289 C   0  0  0  0  0  0  0  0  0  0  0  0
   19.5162   23.1805   23.2283 H   0  0  0  0  0  0  0  0  0  0  0  0
   20.3820   23.5236   24.7407 H   0  0  0  0  0  0  0  0  0  0  0  0
   21.2947   23.1761   23.2574 H   0  0  0  0  0  0  0  0  0  0  0  0
  1  2  1  0  0  0  0
  1  3  2  0  0  0  0
  1  4  1  0  0  0  0
  4  5  1  0  0  0  0
  4  6  1  0  0  0  0
  4  7  1  0  0  0  0
  7  8  1  0  0  0  0
  7  9  1  0  0  0  0
  7 10  1  0  0  0  0
 10 11  1  0  0  0  0
 10 12  1  0  0  0  0
 10 13  1  0  0  0  0
 13 14  1  0  0  0  0
 13 15  1  0  0  0  0
 13 16  1  0  0  0  0
 16 17  1  0  0  0  0
 16 18  1  0  0  0  0
 16 19  1  0  0  0  0
 19 20  1  0  0  0  0
 19 21  1  0  0  0  0
 19 22  1  0  0  0  0
 22 23  1  0  0  0  0
 22 24  1  0  0  0  0
 22 25  1  0  0  0  0
M  END
> <VConfSearch Rank>
97

> <Conf_Id>
114

> <Delta U+W>
2.758

> <U+W>
-48.871

> <U>
11.422

> <W>
-60.293

> <W(PB)>
-62.719

> <W(SA)>
2.425

> <Valence>
10.135

> <Coulomb>
0.369

> <VdW>
0.918

> <VdW6>
-10.482

> <VdW12>
11.400

> <Bond>
0.245

> <Angle>
3.539

> <Pdih>
6.346

> <Idih>
0.006

> <Tether>
0.000

$$$$
VeraChem MOL file


 25 24  0  0  0  0  0  0  0  0999 V2000     
   18.6590   21.4224   20.7929 C   0  0  0  0  0  0  0  0  0  0  0  0
   18.6347   22.5200   21.3141 O   0  5  0  0  0  0  0  0  0  0  0  0
   19.2837   21.1718   19.7809 O   0  0  0  0  0  0  0  0  0  0  0  0
   17.8445   20.3006   21.4310 C   0  0  0  0  0  0  0  0  0  0  0  0
   17.3074   19.7858   20.6258 H   0  0  0  0  0  0  0  0  0  0  0  0
   17.0851   20.7474   22.0840 H   0  0  0  0  0  0  0  0  0  0  0  0
   18.6975   19.2757   22.2228 C   0  0  0  0  0  0  0  0  0  0  0  0
   18.0546   18.4415   22.5342 H   0  0  0  0  0  0  0  0  0  0  0  0
   19.4602   18.8568   21.5533 H   0  0  0  0  0  0  0  0  0  0  0  0
   19.3646   19.9007   23.4717 C   0  0  0  0  0  0  0  0  0  0  0  0
   18.5926   20.3946   24.0774 H   0  0  0  0  0  0  0  0  0  0  0  0
   20.0673   20.6880   23.1657 H   0  0  0  0  0  0  0  0  0  0  0  0
   20.1004   18.8705   24.3616 C   0  0  0  0  0  0  0  0  0  0  0  0
   20.4083   19.3787   25.2841 H   0  0  0  0  0  0  0  0  0  0  0  0
   19.4021   18.0773   24.6611 H   0  0  0  0  0  0  0  0  0  0  0  0
   21.3427   18.2442   23.6812 C   0  0  0  0  0  0  0  0  0  0  0  0
   22.0390   19.0381   23.3786 H   0  0  0  0  0  0  0  0  0  0  0  0
   21.0358   17.7317   22.7607 H   0  0  0  0  0  0  0  0  0  0  0  0
   22.0819   17.2204   24.5744 C   0  0  0  0  0  0  0  0  0  0  0  0
   21.3853   16.4308   24.8885 H   0  0  0  0  0  0  0  0  0  0  0  0
   22.8589   16.7272   23.9742 H   0  0  0  0  0  0  0  0  0  0  0  0
   22.7447   17.8544   25.8168 C   0  0  0  0  0  0  0  0  0  0  0  0
   23.3337   17.1052   26.3614 H   0  0  0  0  0  0  0  0  0  0  0  0
   23.4200   18.6705   25.5286 H   0  0  0  0  0  0  0  0  0  0  0  0
   21.9960   18.2554   26.5111 H   0  0  0  0  0  0  0  0  0  0  0  0
  1  2  1  0  0  0  0
  1  3  2  0  0  0  0
  1  4  1  0  0  0  0
  4  5  1  0  0  0  0
  4  6  1  0  0  0  0
  4  7  1  0  0  0  0
  7  8  1  0  0  0  0
  7  9  1  0  0  0  0
  7 10  1  0  0  0  0
 10 11  1  0  0  0  0
 10 12  1  0  0  0  0
 10 13  1  0  0  0  0
 13 14  1  0  0  0  0
 13 15  1  0  0  0  0
 13 16  1  0  0  0  0
 16 17  1  0  0  0  0
 16 18  1  0  0  0  0
 16 19  1  0  0  0  0
 19 20  1  0  0  0  0
 19 21  1  0  0  0  0
 19 22  1  0  0  0  0
 22 23  1  0  0  0  0
 22 24  1  0  0  0  0
 22 25  1  0  0  0  0
M  END
> <VConfSearch Rank>
98

> <Conf_Id>
87

> <Delta U+W>
1.453

> <U+W>
-50.176

> <U>
9.763

> <W>
-59.940

> <W(PB)>
-62.392

> <W(SA)>
2.452

> <Valence>
8.883

> <Coulomb>
-0.122

> <VdW>
1.003

> <VdW6>
-9.782

> <VdW12>
10.785

> <Bond>
0.212

> <Angle>
2.940

> <Pdih>
5.730

> <Idih>
0.001

> <Tether>
0.000

$$$$
VeraChem MOL file


 25 24  0  0  0  0  0  0  0  0999 V2000     
   22.3107   16.1780   21.8872 C   0  0  0  0  0  0  0  0  0  0  0  0
   23.2371   16.7927   21.3967 O   0  5  0  0  0  0  0  0  0  0  0  0
   22.4209   15.0707   22.3756 O   0  0  0  0  0  0  0  0  0  0  0  0
   20.9377   16.8403   21.9075 C   0  0  0  0  0  0  0  0  0  0  0  0
   20.1789   16.0539   21.8165 H   0  0  0  0  0  0  0  0  0  0  0  0
   20.8534   17.4772   21.0189 H   0  0  0  0  0  0  0  0  0  0  0  0
   20.6920   17.6757   23.1880 C   0  0  0  0  0  0  0  0  0  0  0  0
   20.7879   17.0269   24.0695 H   0  0  0  0  0  0  0  0  0  0  0  0
   21.4743   18.4422   23.2674 H   0  0  0  0  0  0  0  0  0  0  0  0
   19.2965   18.3414   23.1797 C   0  0  0  0  0  0  0  0  0  0  0  0
   18.5320   17.5669   23.0298 H   0  0  0  0  0  0  0  0  0  0  0  0
   19.2139   19.0207   22.3212 H   0  0  0  0  0  0  0  0  0  0  0  0
   18.9689   19.1032   24.4883 C   0  0  0  0  0  0  0  0  0  0  0  0
   17.9444   19.4928   24.4248 H   0  0  0  0  0  0  0  0  0  0  0  0
   18.9632   18.3883   25.3222 H   0  0  0  0  0  0  0  0  0  0  0  0
   19.9364   20.2646   24.8391 C   0  0  0  0  0  0  0  0  0  0  0  0
   20.9296   19.8547   25.0646 H   0  0  0  0  0  0  0  0  0  0  0  0
   19.5929   20.7370   25.7693 H   0  0  0  0  0  0  0  0  0  0  0  0
   20.0794   21.3557   23.7495 C   0  0  0  0  0  0  0  0  0  0  0  0
   20.8032   22.1053   24.0973 H   0  0  0  0  0  0  0  0  0  0  0  0
   20.5063   20.9227   22.8351 H   0  0  0  0  0  0  0  0  0  0  0  0
   18.7488   22.0656   23.4185 C   0  0  0  0  0  0  0  0  0  0  0  0
   18.2958   22.4922   24.3228 H   0  0  0  0  0  0  0  0  0  0  0  0
   18.9162   22.8830   22.7054 H   0  0  0  0  0  0  0  0  0  0  0  0
   18.0287   21.3718   22.9668 H   0  0  0  0  0  0  0  0  0  0  0  0
  1  2  1  0  0  0  0
  1  3  2  0  0  0  0
  1  4  1  0  0  0  0
  4  5  1  0  0  0  0
  4  6  1  0  0  0  0
  4  7  1  0  0  0  0
  7  8  1  0  0  0  0
  7  9  1  0  0  0  0
  7 10  1  0  0  0  0
 10 11  1  0  0  0  0
 10 12  1  0  0  0  0
 10 13  1  0  0  0  0
 13 14  1  0  0  0  0
 13 15  1  0  0  0  0
 13 16  1  0  0  0  0
 16 17  1  0  0  0  0
 16 18  1  0  0  0  0
 16 19  1  0  0  0  0
 19 20  1  0  0  0  0
 19 21  1  0  0  0  0
 19 22  1  0  0  0  0
 22 23  1  0  0  0  0
 22 24  1  0  0  0  0
 22 25  1  0  0  0  0
M  END
> <VConfSearch Rank>
99

> <Conf_Id>
29

> <Delta U+W>
0.850

> <U+W>
-50.780

> <U>
8.646

> <W>
-59.426

> <W(PB)>
-61.868

> <W(SA)>
2.442

> <Valence>
8.924

> <Coulomb>
-1.171

> <VdW>
0.894

> <VdW6>
-10.223

> <VdW12>
11.117

> <Bond>
0.231

> <Angle>
3.232

> <Pdih>
5.461

> <Idih>
0.001

> <Tether>
0.000

$$$$
VeraChem MOL file


 25 24  0  0  0  0  0  0  0  0999 V2000     
   16.1914   18.0701   23.4288 C   0  0  0  0  0  0  0  0  0  0  0  0
   16.2705   16.8801   23.1952 O   0  5  0  0  0  0  0  0  0  0  0  0
   15.2521   18.7620   23.0886 O   0  0  0  0  0  0  0  0  0  0  0  0
   17.3432   18.7357   24.1734 C   0  0  0  0  0  0  0  0  0  0  0  0
   17.7743   17.9994   24.8623 H   0  0  0  0  0  0  0  0  0  0  0  0
   16.9302   19.5480   24.7833 H   0  0  0  0  0  0  0  0  0  0  0  0
   18.4373   19.2823   23.2236 C   0  0  0  0  0  0  0  0  0  0  0  0
   18.8206   18.4557   22.6107 H   0  0  0  0  0  0  0  0  0  0  0  0
   17.9896   20.0116   22.5346 H   0  0  0  0  0  0  0  0  0  0  0  0
   19.5958   19.9449   24.0042 C   0  0  0  0  0  0  0  0  0  0  0  0
   20.0699   19.2063   24.6638 H   0  0  0  0  0  0  0  0  0  0  0  0
   19.1845   20.7218   24.6629 H   0  0  0  0  0  0  0  0  0  0  0  0
   20.6629   20.5962   23.0889 C   0  0  0  0  0  0  0  0  0  0  0  0
   20.1881   21.3968   22.5058 H   0  0  0  0  0  0  0  0  0  0  0  0
   21.4138   21.0926   23.7176 H   0  0  0  0  0  0  0  0  0  0  0  0
   21.3764   19.6272   22.1093 C   0  0  0  0  0  0  0  0  0  0  0  0
   22.1181   20.1964   21.5327 H   0  0  0  0  0  0  0  0  0  0  0  0
   20.6514   19.2554   21.3735 H   0  0  0  0  0  0  0  0  0  0  0  0
   22.0818   18.4191   22.7734 C   0  0  0  0  0  0  0  0  0  0  0  0
   21.3447   17.7846   23.2831 H   0  0  0  0  0  0  0  0  0  0  0  0
   22.5257   17.7959   21.9851 H   0  0  0  0  0  0  0  0  0  0  0  0
   23.1911   18.8302   23.7657 C   0  0  0  0  0  0  0  0  0  0  0  0
   22.7755   19.3662   24.6283 H   0  0  0  0  0  0  0  0  0  0  0  0
   23.7150   17.9436   24.1454 H   0  0  0  0  0  0  0  0  0  0  0  0
   23.9313   19.4794   23.2804 H   0  0  0  0  0  0  0  0  0  0  0  0
  1  2  1  0  0  0  0
  1  3  2  0  0  0  0
  1  4  1  0  0  0  0
  4  5  1  0  0  0  0
  4  6  1  0  0  0  0
  4  7  1  0  0  0  0
  7  8  1  0  0  0  0
  7  9  1  0  0  0  0
  7 10  1  0  0  0  0
 10 11  1  0  0  0  0
 10 12  1  0  0  0  0
 10 13  1  0  0  0  0
 13 14  1  0  0  0  0
 13 15  1  0  0  0  0
 13 16  1  0  0  0  0
 16 17  1  0  0  0  0
 16 18  1  0  0  0  0
 16 19  1  0  0  0  0
 19 20  1  0  0  0  0
 19 21  1  0  0  0  0
 19 22  1  0  0  0  0
 22 23  1  0  0  0  0
 22 24  1  0  0  0  0
 22 25  1  0  0  0  0
M  END
> <VConfSearch Rank>
100

> <Conf_Id>
30

> <Delta U+W>
0.843

> <U+W>
-50.787

> <U>
8.647

> <W>
-59.434

> <W(PB)>
-61.861

> <W(SA)>
2.428

> <Valence>
8.924

> <Coulomb>
-1.170

> <VdW>
0.894

> <VdW6>
-10.224

> <VdW12>
11.118

> <Bond>
0.231

> <Angle>
3.232

> <Pdih>
5.460

> <Idih>
0.000

> <Tether>
0.000

$$$$
VeraChem MOL file


 25 24  0  0  0  0  0  0  0  0999 V2000     
   20.2486   16.5059   19.2596 C   0  0  0  0  0  0  0  0  0  0  0  0
   19.7431   17.3584   18.5551 O   0  5  0  0  0  0  0  0  0  0  0  0
   20.5895   15.4168   18.8429 O   0  0  0  0  0  0  0  0  0  0  0  0
   20.4789   16.7882   20.7451 C   0  0  0  0  0  0  0  0  0  0  0  0
   21.5493   16.6546   20.9411 H   0  0  0  0  0  0  0  0  0  0  0  0
   19.9497   16.0126   21.3111 H   0  0  0  0  0  0  0  0  0  0  0  0
   20.0279   18.1916   21.2302 C   0  0  0  0  0  0  0  0  0  0  0  0
   20.5572   18.9637   20.6546 H   0  0  0  0  0  0  0  0  0  0  0  0
   18.9561   18.3211   21.0250 H   0  0  0  0  0  0  0  0  0  0  0  0
   20.2962   18.3920   22.7376 C   0  0  0  0  0  0  0  0  0  0  0  0
   21.3682   18.2620   22.9404 H   0  0  0  0  0  0  0  0  0  0  0  0
   19.7662   17.6190   23.3110 H   0  0  0  0  0  0  0  0  0  0  0  0
   19.8468   19.7887   23.2180 C   0  0  0  0  0  0  0  0  0  0  0  0
   20.3768   20.5618   22.6448 H   0  0  0  0  0  0  0  0  0  0  0  0
   18.7749   19.9189   23.0154 H   0  0  0  0  0  0  0  0  0  0  0  0
   20.1149   19.9897   24.7252 C   0  0  0  0  0  0  0  0  0  0  0  0
   21.1868   19.8595   24.9280 H   0  0  0  0  0  0  0  0  0  0  0  0
   19.5849   19.2167   25.2986 H   0  0  0  0  0  0  0  0  0  0  0  0
   19.6657   21.3858   25.2054 C   0  0  0  0  0  0  0  0  0  0  0  0
   20.1952   22.1617   24.6353 H   0  0  0  0  0  0  0  0  0  0  0  0
   18.5934   21.5189   25.0059 H   0  0  0  0  0  0  0  0  0  0  0  0
   19.9350   21.5826   26.7109 C   0  0  0  0  0  0  0  0  0  0  0  0
   21.0056   21.4859   26.9343 H   0  0  0  0  0  0  0  0  0  0  0  0
   19.6099   22.5797   27.0350 H   0  0  0  0  0  0  0  0  0  0  0  0
   19.3917   20.8383   27.3077 H   0  0  0  0  0  0  0  0  0  0  0  0
  1  2  1  0  0  0  0
  1  3  2  0  0  0  0
  1  4  1  0  0  0  0
  4  5  1  0  0  0  0
  4  6  1  0  0  0  0
  4  7  1  0  0  0  0
  7  8  1  0  0  0  0
  7  9  1  0  0  0  0
  7 10  1  0  0  0  0
 10 11  1  0  0  0  0
 10 12  1  0  0  0  0
 10 13  1  0  0  0  0
 13 14  1  0  0  0  0
 13 15  1  0  0  0  0
 13 16  1  0  0  0  0
 16 17  1  0  0  0  0
 16 18  1  0  0  0  0
 16 19  1  0  0  0  0
 19 20  1  0  0  0  0
 19 21  1  0  0  0  0
 19 22  1  0  0  0  0
 22 23  1  0  0  0  0
 22 24  1  0  0  0  0
 22 25  1  0  0  0  0
M  END
> <VConfSearch Rank>
101

> <Conf_Id>
0

> <Delta U+W>
0.000

> <U+W>
-51.629

> <U>
6.586

> <W>
-58.216

> <W(PB)>
-60.757

> <W(SA)>
2.541

> <Valence>
8.027

> <Coulomb>
-2.892

> <VdW>
1.451

> <VdW6>
-7.931

> <VdW12>
9.383

> <Bond>
0.149

> <Angle>
2.726

> <Pdih>
5.152

> <Idih>
0.000

> <Tether>
0.000

$$$$
VeraChem MOL file


 25 24  0  0  0  0  0  0  0  0999 V2000     
   24.2222   21.3347   23.6184 C   0  0  0  0  0  0  0  0  0  0  0  0
   24.9674   20.8305   24.4352 O   0  5  0  0  0  0  0  0  0  0  0  0
   24.6076   21.9053   22.6172 O   0  0  0  0  0  0  0  0  0  0  0  0
   22.7196   21.2251   23.8511 C   0  0  0  0  0  0  0  0  0  0  0  0
   22.2442   22.1213   23.4346 H   0  0  0  0  0  0  0  0  0  0  0  0
   22.5407   21.2361   24.9330 H   0  0  0  0  0  0  0  0  0  0  0  0
   22.1048   19.9514   23.2204 C   0  0  0  0  0  0  0  0  0  0  0  0
   22.3040   19.9492   22.1397 H   0  0  0  0  0  0  0  0  0  0  0  0
   22.6006   19.0641   23.6379 H   0  0  0  0  0  0  0  0  0  0  0  0
   20.5835   19.8633   23.4696 C   0  0  0  0  0  0  0  0  0  0  0  0
   20.0909   20.7523   23.0520 H   0  0  0  0  0  0  0  0  0  0  0  0
   20.3877   19.8672   24.5507 H   0  0  0  0  0  0  0  0  0  0  0  0
   19.9735   18.5926   22.8399 C   0  0  0  0  0  0  0  0  0  0  0  0
   20.1691   18.5886   21.7588 H   0  0  0  0  0  0  0  0  0  0  0  0
   20.4659   17.7036   23.2574 H   0  0  0  0  0  0  0  0  0  0  0  0
   18.4523   18.5038   23.0888 C   0  0  0  0  0  0  0  0  0  0  0  0
   17.9595   19.3926   22.6713 H   0  0  0  0  0  0  0  0  0  0  0  0
   18.2563   18.5078   24.1698 H   0  0  0  0  0  0  0  0  0  0  0  0
   17.8423   17.2336   22.4595 C   0  0  0  0  0  0  0  0  0  0  0  0
   18.0347   17.2271   21.3777 H   0  0  0  0  0  0  0  0  0  0  0  0
   18.3315   16.3422   22.8762 H   0  0  0  0  0  0  0  0  0  0  0  0
   16.3233   17.1487   22.7102 C   0  0  0  0  0  0  0  0  0  0  0  0
   15.9064   16.2402   22.2563 H   0  0  0  0  0  0  0  0  0  0  0  0
   16.1035   17.1217   23.7855 H   0  0  0  0  0  0  0  0  0  0  0  0
   15.8045   18.0132   22.2758 H   0  0  0  0  0  0  0  0  0  0  0  0
  1  2  1  0  0  0  0
  1  3  2  0  0  0  0
  1  4  1  0  0  0  0
  4  5  1  0  0  0  0
  4  6  1  0  0  0  0
  4  7  1  0  0  0  0
  7  8  1  0  0  0  0
  7  9  1  0  0  0  0
  7 10  1  0  0  0  0
 10 11  1  0  0  0  0
 10 12  1  0  0  0  0
 10 13  1  0  0  0  0
 13 14  1  0  0  0  0
 13 15  1  0  0  0  0
 13 16  1  0  0  0  0
 16 17  1  0  0  0  0
 16 18  1  0  0  0  0
 16 19  1  0  0  0  0
 19 20  1  0  0  0  0
 19 21  1  0  0  0  0
 19 22  1  0  0  0  0
 22 23  1  0  0  0  0
 22 24  1  0  0  0  0
 22 25  1  0  0  0  0
M  END
> <VConfSearch Rank>
102

> <Conf_Id>
27

> <Delta U+W>
-1.297

> <U+W>
-52.926

> <U>
5.617

> <W>
-58.543

> <W(PB)>
-61.065

> <W(SA)>
2.522

> <Valence>
7.531

> <Coulomb>
-2.818

> <VdW>
0.904

> <VdW6>
-7.640

> <VdW12>
8.544

> <Bond>
0.115

> <Angle>
2.271

> <Pdih>
5.144

> <Idih>
0.001

> <Tether>
0.000

$$$$
VeraChem MOL file


 25 24  0  0  0  0  0  0  0  0999 V2000     
   21.5553   21.5131   20.4095 C   0  0  0  0  0  0  0  0  0  0  0  0
   21.3765   21.0691   19.2923 O   0  5  0  0  0  0  0  0  0  0  0  0
   20.9955   22.5033   20.8375 O   0  0  0  0  0  0  0  0  0  0  0  0
   22.5505   20.7957   21.3171 C   0  0  0  0  0  0  0  0  0  0  0  0
   22.8528   21.4825   22.1170 H   0  0  0  0  0  0  0  0  0  0  0  0
   23.4471   20.5882   20.7212 H   0  0  0  0  0  0  0  0  0  0  0  0
   22.0123   19.4729   21.9216 C   0  0  0  0  0  0  0  0  0  0  0  0
   21.6881   18.8071   21.1097 H   0  0  0  0  0  0  0  0  0  0  0  0
   22.8318   18.9598   22.4429 H   0  0  0  0  0  0  0  0  0  0  0  0
   20.8453   19.7019   22.9082 C   0  0  0  0  0  0  0  0  0  0  0  0
   20.0141   20.1994   22.3894 H   0  0  0  0  0  0  0  0  0  0  0  0
   21.1702   20.3786   23.7104 H   0  0  0  0  0  0  0  0  0  0  0  0
   20.3466   18.3758   23.5217 C   0  0  0  0  0  0  0  0  0  0  0  0
   20.0218   17.6998   22.7188 H   0  0  0  0  0  0  0  0  0  0  0  0
   21.1754   17.8780   24.0436 H   0  0  0  0  0  0  0  0  0  0  0  0
   19.1799   18.6037   24.5070 C   0  0  0  0  0  0  0  0  0  0  0  0
   18.3510   19.1016   23.9852 H   0  0  0  0  0  0  0  0  0  0  0  0
   19.5043   19.2800   25.3098 H   0  0  0  0  0  0  0  0  0  0  0  0
   18.6808   17.2785   25.1200 C   0  0  0  0  0  0  0  0  0  0  0  0
   18.3537   16.6001   24.3198 H   0  0  0  0  0  0  0  0  0  0  0  0
   19.5069   16.7785   25.6445 H   0  0  0  0  0  0  0  0  0  0  0  0
   17.5157   17.5105   26.1031 C   0  0  0  0  0  0  0  0  0  0  0  0
   16.6627   17.9813   25.5971 H   0  0  0  0  0  0  0  0  0  0  0  0
   17.1736   16.5584   26.5292 H   0  0  0  0  0  0  0  0  0  0  0  0
   17.8246   18.1611   26.9317 H   0  0  0  0  0  0  0  0  0  0  0  0
  1  2  1  0  0  0  0
  1  3  2  0  0  0  0
  1  4  1  0  0  0  0
  4  5  1  0  0  0  0
  4  6  1  0  0  0  0
  4  7  1  0  0  0  0
  7  8  1  0  0  0  0
  7  9  1  0  0  0  0
  7 10  1  0  0  0  0
 10 11  1  0  0  0  0
 10 12  1  0  0  0  0
 10 13  1  0  0  0  0
 13 14  1  0  0  0  0
 13 15  1  0  0  0  0
 13 16  1  0  0  0  0
 16 17  1  0  0  0  0
 16 18  1  0  0  0  0
 16 19  1  0  0  0  0
 19 20  1  0  0  0  0
 19 21  1  0  0  0  0
 19 22  1  0  0  0  0
 22 23  1  0  0  0  0
 22 24  1  0  0  0  0
 22 25  1  0  0  0  0
M  END
> <VConfSearch Rank>
103

> <Conf_Id>
37

> <Delta U+W>
-0.230

> <U+W>
-51.860

> <U>
7.816

> <W>
-59.675

> <W(PB)>
-62.180

> <W(SA)>
2.505

> <Valence>
7.785

> <Coulomb>
-0.713

> <VdW>
0.744

> <VdW6>
-8.514

> <VdW12>
9.259

> <Bond>
0.136

> <Angle>
2.433

> <Pdih>
5.216

> <Idih>
0.000

> <Tether>
0.000

$$$$
VeraChem MOL file


 25 24  0  0  0  0  0  0  0  0999 V2000     
   23.9318   20.0561   23.7382 C   0  0  0  0  0  0  0  0  0  0  0  0
   24.5226   20.1369   22.6792 O   0  5  0  0  0  0  0  0  0  0  0  0
   24.1134   19.1643   24.5437 O   0  0  0  0  0  0  0  0  0  0  0  0
   22.9181   21.1443   24.0805 C   0  0  0  0  0  0  0  0  0  0  0  0
   23.3832   22.1099   23.8496 H   0  0  0  0  0  0  0  0  0  0  0  0
   22.7394   21.1286   25.1625 H   0  0  0  0  0  0  0  0  0  0  0  0
   21.5759   21.0192   23.3139 C   0  0  0  0  0  0  0  0  0  0  0  0
   20.9662   21.9105   23.5148 H   0  0  0  0  0  0  0  0  0  0  0  0
   21.7737   21.0085   22.2330 H   0  0  0  0  0  0  0  0  0  0  0  0
   20.7793   19.7566   23.7127 C   0  0  0  0  0  0  0  0  0  0  0  0
   20.5956   19.7654   24.7958 H   0  0  0  0  0  0  0  0  0  0  0  0
   21.3761   18.8592   23.4984 H   0  0  0  0  0  0  0  0  0  0  0  0
   19.4333   19.6687   22.9615 C   0  0  0  0  0  0  0  0  0  0  0  0
   18.8335   20.5637   23.1766 H   0  0  0  0  0  0  0  0  0  0  0  0
   19.6180   19.6599   21.8785 H   0  0  0  0  0  0  0  0  0  0  0  0
   18.6371   18.4070   23.3589 C   0  0  0  0  0  0  0  0  0  0  0  0
   18.4526   18.4155   24.4419 H   0  0  0  0  0  0  0  0  0  0  0  0
   19.2368   17.5119   23.1440 H   0  0  0  0  0  0  0  0  0  0  0  0
   17.2919   18.3185   22.6078 C   0  0  0  0  0  0  0  0  0  0  0  0
   16.6886   19.2115   22.8220 H   0  0  0  0  0  0  0  0  0  0  0  0
   17.4728   18.3078   21.5240 H   0  0  0  0  0  0  0  0  0  0  0  0
   16.5000   17.0572   23.0075 C   0  0  0  0  0  0  0  0  0  0  0  0
   16.2776   17.0573   24.0827 H   0  0  0  0  0  0  0  0  0  0  0  0
   15.5472   17.0103   22.4644 H   0  0  0  0  0  0  0  0  0  0  0  0
   17.0679   16.1468   22.7750 H   0  0  0  0  0  0  0  0  0  0  0  0
  1  2  1  0  0  0  0
  1  3  2  0  0  0  0
  1  4  1  0  0  0  0
  4  5  1  0  0  0  0
  4  6  1  0  0  0  0
  4  7  1  0  0  0  0
  7  8  1  0  0  0  0
  7  9  1  0  0  0  0
  7 10  1  0  0  0  0
 10 11  1  0  0  0  0
 10 12  1  0  0  0  0
 10 13  1  0  0  0  0
 13 14  1  0  0  0  0
 13 15  1  0  0  0  0
 13 16  1  0  0  0  0
 16 17  1  0  0  0  0
 16 18  1  0  0  0  0
 16 19  1  0  0  0  0
 19 20  1  0  0  0  0
 19 21  1  0  0  0  0
 19 22  1  0  0  0  0
 22 23  1  0  0  0  0
 22 24  1  0  0  0  0
 22 25  1  0  0  0  0
M  END
> <VConfSearch Rank>
104

> <Conf_Id>
54

> <Delta U+W>
-0.224

> <U+W>
-51.854

> <U>
7.816

> <W>
-59.670

> <W(PB)>
-62.157

> <W(SA)>
2.487

> <Valence>
7.785

> <Coulomb>
-0.713

> <VdW>
0.744

> <VdW6>
-8.515

> <VdW12>
9.259

> <Bond>
0.136

> <Angle>
2.433

> <Pdih>
5.215

> <Idih>
0.000

> <Tether>
0.000

$$$$
VeraChem MOL file


 25 24  0  0  0  0  0  0  0  0999 V2000     
   20.7179   15.3393   21.9721 C   0  0  0  0  0  0  0  0  0  0  0  0
   19.6647   15.0283   21.4515 O   0  5  0  0  0  0  0  0  0  0  0  0
   21.7990   15.2103   21.4320 O   0  0  0  0  0  0  0  0  0  0  0  0
   20.6851   15.9059   23.3888 C   0  0  0  0  0  0  0  0  0  0  0  0
   21.4629   15.3909   23.9648 H   0  0  0  0  0  0  0  0  0  0  0  0
   19.7242   15.6448   23.8486 H   0  0  0  0  0  0  0  0  0  0  0  0
   20.9153   17.4379   23.4627 C   0  0  0  0  0  0  0  0  0  0  0  0
   21.0299   17.7206   24.5166 H   0  0  0  0  0  0  0  0  0  0  0  0
   21.8609   17.6881   22.9620 H   0  0  0  0  0  0  0  0  0  0  0  0
   19.7561   18.2438   22.8281 C   0  0  0  0  0  0  0  0  0  0  0  0
   18.8190   18.0275   23.3590 H   0  0  0  0  0  0  0  0  0  0  0  0
   19.6091   17.9067   21.7929 H   0  0  0  0  0  0  0  0  0  0  0  0
   20.0010   19.7718   22.8093 C   0  0  0  0  0  0  0  0  0  0  0  0
   20.9475   19.9862   22.2949 H   0  0  0  0  0  0  0  0  0  0  0  0
   19.2083   20.2337   22.2073 H   0  0  0  0  0  0  0  0  0  0  0  0
   20.0142   20.4136   24.2189 C   0  0  0  0  0  0  0  0  0  0  0  0
   20.8109   19.9585   24.8206 H   0  0  0  0  0  0  0  0  0  0  0  0
   19.0695   20.1946   24.7347 H   0  0  0  0  0  0  0  0  0  0  0  0
   20.2482   21.9424   24.1955 C   0  0  0  0  0  0  0  0  0  0  0  0
   20.3811   22.2931   25.2282 H   0  0  0  0  0  0  0  0  0  0  0  0
   21.1863   22.1664   23.6691 H   0  0  0  0  0  0  0  0  0  0  0  0
   19.0881   22.7319   23.5506 C   0  0  0  0  0  0  0  0  0  0  0  0
   18.9934   22.5056   22.4814 H   0  0  0  0  0  0  0  0  0  0  0  0
   18.1334   22.4968   24.0389 H   0  0  0  0  0  0  0  0  0  0  0  0
   19.2594   23.8119   23.6466 H   0  0  0  0  0  0  0  0  0  0  0  0
  1  2  1  0  0  0  0
  1  3  2  0  0  0  0
  1  4  1  0  0  0  0
  4  5  1  0  0  0  0
  4  6  1  0  0  0  0
  4  7  1  0  0  0  0
  7  8  1  0  0  0  0
  7  9  1  0  0  0  0
  7 10  1  0  0  0  0
 10 11  1  0  0  0  0
 10 12  1  0  0  0  0
 10 13  1  0  0  0  0
 13 14  1  0  0  0  0
 13 15  1  0  0  0  0
 13 16  1  0  0  0  0
 16 17  1  0  0  0  0
 16 18  1  0  0  0  0
 16 19  1  0  0  0  0
 19 20  1  0  0  0  0
 19 21  1  0  0  0  0
 19 22  1  0  0  0  0
 22 23  1  0  0  0  0
 22 24  1  0  0  0  0
 22 25  1  0  0  0  0
M  END
> <VConfSearch Rank>
105

> <Conf_Id>
101

> <Delta U+W>
1.534

> <U+W>
-50.095

> <U>
9.416

> <W>
-59.512

> <W(PB)>
-61.988

> <W(SA)>
2.476

> <Valence>
8.939

> <Coulomb>
-0.615

> <VdW>
1.092

> <VdW6>
-9.710

> <VdW12>
10.802

> <Bond>
0.216

> <Angle>
2.979

> <Pdih>
5.743

> <Idih>
0.000

> <Tether>
0.000

$$$$
VeraChem MOL file


 25 24  0  0  0  0  0  0  0  0999 V2000     
   20.5471   17.5146   27.0815 C   0  0  0  0  0  0  0  0  0  0  0  0
   19.7144   16.6367   27.1940 O   0  5  0  0  0  0  0  0  0  0  0  0
   21.5501   17.5824   27.7641 O   0  0  0  0  0  0  0  0  0  0  0  0
   20.3329   18.5772   26.0094 C   0  0  0  0  0  0  0  0  0  0  0  0
   20.7750   19.5148   26.3671 H   0  0  0  0  0  0  0  0  0  0  0  0
   19.2538   18.7411   25.9149 H   0  0  0  0  0  0  0  0  0  0  0  0
   20.9498   18.1819   24.6424 C   0  0  0  0  0  0  0  0  0  0  0  0
   22.0086   17.9304   24.7948 H   0  0  0  0  0  0  0  0  0  0  0  0
   20.4651   17.2687   24.2704 H   0  0  0  0  0  0  0  0  0  0  0  0
   20.8560   19.2964   23.5729 C   0  0  0  0  0  0  0  0  0  0  0  0
   21.4398   18.9777   22.7000 H   0  0  0  0  0  0  0  0  0  0  0  0
   21.3325   20.2112   23.9507 H   0  0  0  0  0  0  0  0  0  0  0  0
   19.4042   19.6061   23.1323 C   0  0  0  0  0  0  0  0  0  0  0  0
   18.9282   18.6922   22.7540 H   0  0  0  0  0  0  0  0  0  0  0  0
   18.8161   19.9169   24.0048 H   0  0  0  0  0  0  0  0  0  0  0  0
   19.3066   20.7318   22.0713 C   0  0  0  0  0  0  0  0  0  0  0  0
   19.7089   21.6598   22.4997 H   0  0  0  0  0  0  0  0  0  0  0  0
   18.2456   20.9286   21.8660 H   0  0  0  0  0  0  0  0  0  0  0  0
   20.0279   20.4484   20.7300 C   0  0  0  0  0  0  0  0  0  0  0  0
   19.8895   21.3154   20.0696 H   0  0  0  0  0  0  0  0  0  0  0  0
   21.1104   20.3619   20.8916 H   0  0  0  0  0  0  0  0  0  0  0  0
   19.5062   19.1870   20.0084 C   0  0  0  0  0  0  0  0  0  0  0  0
   18.4202   19.2413   19.8577 H   0  0  0  0  0  0  0  0  0  0  0  0
   19.9801   19.0839   19.0237 H   0  0  0  0  0  0  0  0  0  0  0  0
   19.7302   18.2787   20.5818 H   0  0  0  0  0  0  0  0  0  0  0  0
  1  2  1  0  0  0  0
  1  3  2  0  0  0  0
  1  4  1  0  0  0  0
  4  5  1  0  0  0  0
  4  6  1  0  0  0  0
  4  7  1  0  0  0  0
  7  8  1  0  0  0  0
  7  9  1  0  0  0  0
  7 10  1  0  0  0  0
 10 11  1  0  0  0  0
 10 12  1  0  0  0  0
 10 13  1  0  0  0  0
 13 14  1  0  0  0  0
 13 15  1  0  0  0  0
 13 16  1  0  0  0  0
 16 17  1  0  0  0  0
 16 18  1  0  0  0  0
 16 19  1  0  0  0  0
 19 20  1  0  0  0  0
 19 21  1  0  0  0  0
 19 22  1  0  0  0  0
 22 23  1  0  0  0  0
 22 24  1  0  0  0  0
 22 25  1  0  0  0  0
M  END
> <VConfSearch Rank>
106

> <Conf_Id>
75

> <Delta U+W>
1.014

> <U+W>
-50.615

> <U>
8.474

> <W>
-59.089

> <W(PB)>
-61.530

> <W(SA)>
2.441

> <Valence>
9.080

> <Coulomb>
-1.772

> <VdW>
1.165

> <VdW6>
-9.830

> <VdW12>
10.996

> <Bond>
0.240

> <Angle>
3.225

> <Pdih>
5.615

> <Idih>
0.001

> <Tether>
0.000

$$$$
VeraChem MOL file


 25 24  0  0  0  0  0  0  0  0999 V2000     
   23.9733   19.8839   24.8201 C   0  0  0  0  0  0  0  0  0  0  0  0
   24.6211   18.8625   24.7025 O   0  5  0  0  0  0  0  0  0  0  0  0
   24.4675   20.9931   24.8666 O   0  0  0  0  0  0  0  0  0  0  0  0
   22.4549   19.7689   24.8920 C   0  0  0  0  0  0  0  0  0  0  0  0
   22.0816   20.5796   25.5291 H   0  0  0  0  0  0  0  0  0  0  0  0
   22.2081   18.8242   25.3912 H   0  0  0  0  0  0  0  0  0  0  0  0
   21.7805   19.8296   23.4993 C   0  0  0  0  0  0  0  0  0  0  0  0
   22.0477   20.7751   23.0073 H   0  0  0  0  0  0  0  0  0  0  0  0
   22.1747   19.0197   22.8698 H   0  0  0  0  0  0  0  0  0  0  0  0
   20.2443   19.7095   23.5986 C   0  0  0  0  0  0  0  0  0  0  0  0
   19.8548   20.5205   24.2290 H   0  0  0  0  0  0  0  0  0  0  0  0
   19.9859   18.7695   24.1005 H   0  0  0  0  0  0  0  0  0  0  0  0
   19.5751   19.7767   22.2057 C   0  0  0  0  0  0  0  0  0  0  0  0
   19.8309   20.7429   21.7498 H   0  0  0  0  0  0  0  0  0  0  0  0
   19.9920   19.0057   21.5433 H   0  0  0  0  0  0  0  0  0  0  0  0
   18.0310   19.6525   22.2593 C   0  0  0  0  0  0  0  0  0  0  0  0
   17.6090   20.3053   21.4830 H   0  0  0  0  0  0  0  0  0  0  0  0
   17.6503   20.0401   23.2141 H   0  0  0  0  0  0  0  0  0  0  0  0
   17.4882   18.2233   22.0111 C   0  0  0  0  0  0  0  0  0  0  0  0
   16.3905   18.2662   21.9901 H   0  0  0  0  0  0  0  0  0  0  0  0
   17.8010   17.8784   21.0159 H   0  0  0  0  0  0  0  0  0  0  0  0
   17.9220   17.1890   23.0706 C   0  0  0  0  0  0  0  0  0  0  0  0
   17.6816   17.5376   24.0834 H   0  0  0  0  0  0  0  0  0  0  0  0
   17.4051   16.2343   22.9092 H   0  0  0  0  0  0  0  0  0  0  0  0
   19.0002   16.9943   23.0148 H   0  0  0  0  0  0  0  0  0  0  0  0
  1  2  1  0  0  0  0
  1  3  2  0  0  0  0
  1  4  1  0  0  0  0
  4  5  1  0  0  0  0
  4  6  1  0  0  0  0
  4  7  1  0  0  0  0
  7  8  1  0  0  0  0
  7  9  1  0  0  0  0
  7 10  1  0  0  0  0
 10 11  1  0  0  0  0
 10 12  1  0  0  0  0
 10 13  1  0  0  0  0
 13 14  1  0  0  0  0
 13 15  1  0  0  0  0
 13 16  1  0  0  0  0
 16 17  1  0  0  0  0
 16 18  1  0  0  0  0
 16 19  1  0  0  0  0
 19 20  1  0  0  0  0
 19 21  1  0  0  0  0
 19 22  1  0  0  0  0
 22 23  1  0  0  0  0
 22 24  1  0  0  0  0
 22 25  1  0  0  0  0
M  END
> <VConfSearch Rank>
107

> <Conf_Id>
125

> <Delta U+W>
2.314

> <U+W>
-49.315

> <U>
9.740

> <W>
-59.054

> <W(PB)>
-61.488

> <W(SA)>
2.433

> <Valence>
10.506

> <Coulomb>
-1.761

> <VdW>
0.994

> <VdW6>
-9.209

> <VdW12>
10.203

> <Bond>
0.193

> <Angle>
2.979

> <Pdih>
7.334

> <Idih>
0.001

> <Tether>
0.000

$$$$
VeraChem MOL file


 25 24  0  0  0  0  0  0  0  0999 V2000     
   22.3916   17.5613   20.3010 C   0  0  0  0  0  0  0  0  0  0  0  0
   22.1026   18.1971   19.3065 O   0  5  0  0  0  0  0  0  0  0  0  0
   23.1046   16.5774   20.2873 O   0  0  0  0  0  0  0  0  0  0  0  0
   21.8079   18.0085   21.6364 C   0  0  0  0  0  0  0  0  0  0  0  0
   21.7199   19.1005   21.6122 H   0  0  0  0  0  0  0  0  0  0  0  0
   22.5284   17.7570   22.4238 H   0  0  0  0  0  0  0  0  0  0  0  0
   20.4342   17.3553   21.9392 C   0  0  0  0  0  0  0  0  0  0  0  0
   19.7090   17.6527   21.1692 H   0  0  0  0  0  0  0  0  0  0  0  0
   20.5382   16.2641   21.8622 H   0  0  0  0  0  0  0  0  0  0  0  0
   19.8800   17.7025   23.3415 C   0  0  0  0  0  0  0  0  0  0  0  0
   20.6031   17.3952   24.1094 H   0  0  0  0  0  0  0  0  0  0  0  0
   18.9723   17.1081   23.5137 H   0  0  0  0  0  0  0  0  0  0  0  0
   19.5412   19.2012   23.5153 C   0  0  0  0  0  0  0  0  0  0  0  0
   20.4550   19.7987   23.4125 H   0  0  0  0  0  0  0  0  0  0  0  0
   18.8567   19.5177   22.7166 H   0  0  0  0  0  0  0  0  0  0  0  0
   18.8941   19.4828   24.8912 C   0  0  0  0  0  0  0  0  0  0  0  0
   19.5950   19.2109   25.6922 H   0  0  0  0  0  0  0  0  0  0  0  0
   18.0157   18.8344   25.0130 H   0  0  0  0  0  0  0  0  0  0  0  0
   18.4472   20.9523   25.0717 C   0  0  0  0  0  0  0  0  0  0  0  0
   17.7417   21.2261   24.2751 H   0  0  0  0  0  0  0  0  0  0  0  0
   17.8954   21.0390   26.0179 H   0  0  0  0  0  0  0  0  0  0  0  0
   19.6239   21.9521   25.0896 C   0  0  0  0  0  0  0  0  0  0  0  0
   20.1357   21.9863   24.1198 H   0  0  0  0  0  0  0  0  0  0  0  0
   19.2635   22.9651   25.3105 H   0  0  0  0  0  0  0  0  0  0  0  0
   20.3591   21.6800   25.8581 H   0  0  0  0  0  0  0  0  0  0  0  0
  1  2  1  0  0  0  0
  1  3  2  0  0  0  0
  1  4  1  0  0  0  0
  4  5  1  0  0  0  0
  4  6  1  0  0  0  0
  4  7  1  0  0  0  0
  7  8  1  0  0  0  0
  7  9  1  0  0  0  0
  7 10  1  0  0  0  0
 10 11  1  0  0  0  0
 10 12  1  0  0  0  0
 10 13  1  0  0  0  0
 13 14  1  0  0  0  0
 13 15  1  0  0  0  0
 13 16  1  0  0  0  0
 16 17  1  0  0  0  0
 16 18  1  0  0  0  0
 16 19  1  0  0  0  0
 19 20  1  0  0  0  0
 19 21  1  0  0  0  0
 19 22  1  0  0  0  0
 22 23  1  0  0  0  0
 22 24  1  0  0  0  0
 22 25  1  0  0  0  0
M  END
> <VConfSearch Rank>
108

> <Conf_Id>
4

> <Delta U+W>
0.189

> <U+W>
-51.441

> <U>
7.701

> <W>
-59.141

> <W(PB)>
-61.609

> <W(SA)>
2.467

> <Valence>
8.550

> <Coulomb>
-1.988

> <VdW>
1.139

> <VdW6>
-8.988

> <VdW12>
10.127

> <Bond>
0.191

> <Angle>
2.738

> <Pdih>
5.621

> <Idih>
0.001

> <Tether>
0.000

$$$$
VeraChem MOL file


 25 24  0  0  0  0  0  0  0  0999 V2000     
   18.8488   19.6656   27.1839 C   0  0  0  0  0  0  0  0  0  0  0  0
   18.1485   18.7013   27.4214 O   0  5  0  0  0  0  0  0  0  0  0  0
   19.1980   20.4680   28.0271 O   0  0  0  0  0  0  0  0  0  0  0  0
   19.3357   19.8672   25.7534 C   0  0  0  0  0  0  0  0  0  0  0  0
   19.4360   20.9448   25.5769 H   0  0  0  0  0  0  0  0  0  0  0  0
   18.5534   19.4983   25.0805 H   0  0  0  0  0  0  0  0  0  0  0  0
   20.6822   19.1510   25.4718 C   0  0  0  0  0  0  0  0  0  0  0  0
   21.4167   19.4736   26.2228 H   0  0  0  0  0  0  0  0  0  0  0  0
   20.5566   18.0677   25.6063 H   0  0  0  0  0  0  0  0  0  0  0  0
   21.2539   19.4403   24.0634 C   0  0  0  0  0  0  0  0  0  0  0  0
   22.2552   18.9935   23.9959 H   0  0  0  0  0  0  0  0  0  0  0  0
   21.3875   20.5233   23.9357 H   0  0  0  0  0  0  0  0  0  0  0  0
   20.3764   18.8853   22.9174 C   0  0  0  0  0  0  0  0  0  0  0  0
   20.2032   17.8121   23.0747 H   0  0  0  0  0  0  0  0  0  0  0  0
   19.3959   19.3762   22.9348 H   0  0  0  0  0  0  0  0  0  0  0  0
   21.0375   19.1045   21.5368 C   0  0  0  0  0  0  0  0  0  0  0  0
   22.0443   18.6652   21.5483 H   0  0  0  0  0  0  0  0  0  0  0  0
   21.1694   20.1801   21.3565 H   0  0  0  0  0  0  0  0  0  0  0  0
   20.2426   18.4777   20.3676 C   0  0  0  0  0  0  0  0  0  0  0  0
   20.8352   18.5738   19.4473 H   0  0  0  0  0  0  0  0  0  0  0  0
   20.1133   17.4006   20.5421 H   0  0  0  0  0  0  0  0  0  0  0  0
   18.8644   19.1365   20.1418 C   0  0  0  0  0  0  0  0  0  0  0  0
   18.9658   20.2199   19.9964 H   0  0  0  0  0  0  0  0  0  0  0  0
   18.3814   18.7195   19.2487 H   0  0  0  0  0  0  0  0  0  0  0  0
   18.1935   18.9642   20.9927 H   0  0  0  0  0  0  0  0  0  0  0  0
  1  2  1  0  0  0  0
  1  3  2  0  0  0  0
  1  4  1  0  0  0  0
  4  5  1  0  0  0  0
  4  6  1  0  0  0  0
  4  7  1  0  0  0  0
  7  8  1  0  0  0  0
  7  9  1  0  0  0  0
  7 10  1  0  0  0  0
 10 11  1  0  0  0  0
 10 12  1  0  0  0  0
 10 13  1  0  0  0  0
 13 14  1  0  0  0  0
 13 15  1  0  0  0  0
 13 16  1  0  0  0  0
 16 17  1  0  0  0  0
 16 18  1  0  0  0  0
 16 19  1  0  0  0  0
 19 20  1  0  0  0  0
 19 21  1  0  0  0  0
 19 22  1  0  0  0  0
 22 23  1  0  0  0  0
 22 24  1  0  0  0  0
 22 25  1  0  0  0  0
M  END
> <VConfSearch Rank>
109

> <Conf_Id>
17

> <Delta U+W>
0.219

> <U+W>
-51.411

> <U>
7.701

> <W>
-59.111

> <W(PB)>
-61.599

> <W(SA)>
2.488

> <Valence>
8.550

> <Coulomb>
-1.988

> <VdW>
1.139

> <VdW6>
-8.988

> <VdW12>
10.127

> <Bond>
0.191

> <Angle>
2.738

> <Pdih>
5.621

> <Idih>
0.001

> <Tether>
0.000

$$$$
VeraChem MOL file


 25 24  0  0  0  0  0  0  0  0999 V2000     
   16.2982   18.5558   23.7936 C   0  0  0  0  0  0  0  0  0  0  0  0
   16.0998   17.9612   24.8349 O   0  5  0  0  0  0  0  0  0  0  0  0
   16.0990   18.0745   22.6955 O   0  0  0  0  0  0  0  0  0  0  0  0
   16.8072   19.9926   23.8670 C   0  0  0  0  0  0  0  0  0  0  0  0
   16.5945   20.3886   24.8674 H   0  0  0  0  0  0  0  0  0  0  0  0
   16.2175   20.5865   23.1588 H   0  0  0  0  0  0  0  0  0  0  0  0
   18.3155   20.1432   23.5397 C   0  0  0  0  0  0  0  0  0  0  0  0
   18.5065   19.7232   22.5433 H   0  0  0  0  0  0  0  0  0  0  0  0
   18.5644   21.2117   23.4874 H   0  0  0  0  0  0  0  0  0  0  0  0
   19.2207   19.4585   24.5916 C   0  0  0  0  0  0  0  0  0  0  0  0
   19.0289   18.3766   24.6015 H   0  0  0  0  0  0  0  0  0  0  0  0
   18.9511   19.8292   25.5900 H   0  0  0  0  0  0  0  0  0  0  0  0
   20.7299   19.7121   24.3644 C   0  0  0  0  0  0  0  0  0  0  0  0
   20.9255   20.7932   24.3629 H   0  0  0  0  0  0  0  0  0  0  0  0
   21.2843   19.2973   25.2173 H   0  0  0  0  0  0  0  0  0  0  0  0
   21.2707   19.0825   23.0597 C   0  0  0  0  0  0  0  0  0  0  0  0
   20.7802   19.5406   22.1911 H   0  0  0  0  0  0  0  0  0  0  0  0
   21.0248   18.0119   23.0396 H   0  0  0  0  0  0  0  0  0  0  0  0
   22.7979   19.2628   22.9298 C   0  0  0  0  0  0  0  0  0  0  0  0
   23.0473   20.3327   22.9515 H   0  0  0  0  0  0  0  0  0  0  0  0
   23.3006   18.8001   23.7904 H   0  0  0  0  0  0  0  0  0  0  0  0
   23.3350   18.6376   21.6266 C   0  0  0  0  0  0  0  0  0  0  0  0
   22.8724   19.1045   20.7471 H   0  0  0  0  0  0  0  0  0  0  0  0
   24.4215   18.7746   21.5508 H   0  0  0  0  0  0  0  0  0  0  0  0
   23.1260   17.5603   21.5925 H   0  0  0  0  0  0  0  0  0  0  0  0
  1  2  1  0  0  0  0
  1  3  2  0  0  0  0
  1  4  1  0  0  0  0
  4  5  1  0  0  0  0
  4  6  1  0  0  0  0
  4  7  1  0  0  0  0
  7  8  1  0  0  0  0
  7  9  1  0  0  0  0
  7 10  1  0  0  0  0
 10 11  1  0  0  0  0
 10 12  1  0  0  0  0
 10 13  1  0  0  0  0
 13 14  1  0  0  0  0
 13 15  1  0  0  0  0
 13 16  1  0  0  0  0
 16 17  1  0  0  0  0
 16 18  1  0  0  0  0
 16 19  1  0  0  0  0
 19 20  1  0  0  0  0
 19 21  1  0  0  0  0
 19 22  1  0  0  0  0
 22 23  1  0  0  0  0
 22 24  1  0  0  0  0
 22 25  1  0  0  0  0
M  END
> <VConfSearch Rank>
110

> <Conf_Id>
142

> <Delta U+W>
0.593

> <U+W>
-51.037

> <U>
8.903

> <W>
-59.940

> <W(PB)>
-62.418

> <W(SA)>
2.478

> <Valence>
8.305

> <Coulomb>
-0.223

> <VdW>
0.821

> <VdW6>
-9.236

> <VdW12>
10.057

> <Bond>
0.173

> <Angle>
2.663

> <Pdih>
5.469

> <Idih>
0.001

> <Tether>
0.000

$$$$
VeraChem MOL file


 25 24  0  0  0  0  0  0  0  0999 V2000     
   21.9187   22.2331   23.9209 C   0  0  0  0  0  0  0  0  0  0  0  0
   22.2412   22.9647   24.8364 O   0  5  0  0  0  0  0  0  0  0  0  0
   22.6481   21.9640   22.9868 O   0  0  0  0  0  0  0  0  0  0  0  0
   20.5109   21.6440   23.9337 C   0  0  0  0  0  0  0  0  0  0  0  0
   20.2848   21.2522   22.9354 H   0  0  0  0  0  0  0  0  0  0  0  0
   19.8128   22.4708   24.1083 H   0  0  0  0  0  0  0  0  0  0  0  0
   20.2918   20.5490   25.0132 C   0  0  0  0  0  0  0  0  0  0  0  0
   20.4597   20.9931   26.0040 H   0  0  0  0  0  0  0  0  0  0  0  0
   19.2406   20.2333   24.9999 H   0  0  0  0  0  0  0  0  0  0  0  0
   21.2110   19.3091   24.8639 C   0  0  0  0  0  0  0  0  0  0  0  0
   20.9835   18.6021   25.6732 H   0  0  0  0  0  0  0  0  0  0  0  0
   22.2544   19.6171   25.0174 H   0  0  0  0  0  0  0  0  0  0  0  0
   21.1084   18.5685   23.5070 C   0  0  0  0  0  0  0  0  0  0  0  0
   21.4410   19.2289   22.6950 H   0  0  0  0  0  0  0  0  0  0  0  0
   21.8131   17.7260   23.5197 H   0  0  0  0  0  0  0  0  0  0  0  0
   19.6906   18.0331   23.2006 C   0  0  0  0  0  0  0  0  0  0  0  0
   18.9864   18.8707   23.1125 H   0  0  0  0  0  0  0  0  0  0  0  0
   19.3454   17.4089   24.0359 H   0  0  0  0  0  0  0  0  0  0  0  0
   19.6613   17.2106   21.8951 C   0  0  0  0  0  0  0  0  0  0  0  0
   20.0089   17.8326   21.0586 H   0  0  0  0  0  0  0  0  0  0  0  0
   20.3573   16.3641   21.9745 H   0  0  0  0  0  0  0  0  0  0  0  0
   18.2456   16.6826   21.5878 C   0  0  0  0  0  0  0  0  0  0  0  0
   17.5343   17.5107   21.4713 H   0  0  0  0  0  0  0  0  0  0  0  0
   18.2434   16.1004   20.6571 H   0  0  0  0  0  0  0  0  0  0  0  0
   17.8852   16.0321   22.3954 H   0  0  0  0  0  0  0  0  0  0  0  0
  1  2  1  0  0  0  0
  1  3  2  0  0  0  0
  1  4  1  0  0  0  0
  4  5  1  0  0  0  0
  4  6  1  0  0  0  0
  4  7  1  0  0  0  0
  7  8  1  0  0  0  0
  7  9  1  0  0  0  0
  7 10  1  0  0  0  0
 10 11  1  0  0  0  0
 10 12  1  0  0  0  0
 10 13  1  0  0  0  0
 13 14  1  0  0  0  0
 13 15  1  0  0  0  0
 13 16  1  0  0  0  0
 16 17  1  0  0  0  0
 16 18  1  0  0  0  0
 16 19  1  0  0  0  0
 19 20  1  0  0  0  0
 19 21  1  0  0  0  0
 19 22  1  0  0  0  0
 22 23  1  0  0  0  0
 22 24  1  0  0  0  0
 22 25  1  0  0  0  0
M  END
> <VConfSearch Rank>
111

> <Conf_Id>
135

> <Delta U+W>
1.314

> <U+W>
-50.316

> <U>
9.773

> <W>
-60.088

> <W(PB)>
-62.535

> <W(SA)>
2.447

> <Valence>
8.741

> <Coulomb>
0.479

> <VdW>
0.552

> <VdW6>
-10.627

> <VdW12>
11.179

> <Bond>
0.227

> <Angle>
3.155

> <Pdih>
5.358

> <Idih>
0.001

> <Tether>
0.000

$$$$
VeraChem MOL file


 25 24  0  0  0  0  0  0  0  0999 V2000     
   22.1800   15.5431   23.0838 C   0  0  0  0  0  0  0  0  0  0  0  0
   22.9154   15.4490   22.1210 O   0  5  0  0  0  0  0  0  0  0  0  0
   22.2893   14.8608   24.0834 O   0  0  0  0  0  0  0  0  0  0  0  0
   21.0730   16.5906   23.0448 C   0  0  0  0  0  0  0  0  0  0  0  0
   20.2271   16.2129   23.6315 H   0  0  0  0  0  0  0  0  0  0  0  0
   20.7354   16.6784   22.0063 H   0  0  0  0  0  0  0  0  0  0  0  0
   21.5316   17.9674   23.5924 C   0  0  0  0  0  0  0  0  0  0  0  0
   21.9526   17.8219   24.5969 H   0  0  0  0  0  0  0  0  0  0  0  0
   22.3470   18.3590   22.9687 H   0  0  0  0  0  0  0  0  0  0  0  0
   20.3926   19.0113   23.6818 C   0  0  0  0  0  0  0  0  0  0  0  0
   20.7795   19.8859   24.2198 H   0  0  0  0  0  0  0  0  0  0  0  0
   19.5679   18.6079   24.2849 H   0  0  0  0  0  0  0  0  0  0  0  0
   19.8614   19.4642   22.3009 C   0  0  0  0  0  0  0  0  0  0  0  0
   20.6798   19.9200   21.7273 H   0  0  0  0  0  0  0  0  0  0  0  0
   19.5342   18.5878   21.7279 H   0  0  0  0  0  0  0  0  0  0  0  0
   18.6703   20.4530   22.3719 C   0  0  0  0  0  0  0  0  0  0  0  0
   17.8120   19.9732   22.8619 H   0  0  0  0  0  0  0  0  0  0  0  0
   18.3489   20.6569   21.3414 H   0  0  0  0  0  0  0  0  0  0  0  0
   18.9895   21.8072   23.0535 C   0  0  0  0  0  0  0  0  0  0  0  0
   20.0590   22.0399   22.9575 H   0  0  0  0  0  0  0  0  0  0  0  0
   18.4548   22.6046   22.5191 H   0  0  0  0  0  0  0  0  0  0  0  0
   18.5610   21.8564   24.5372 C   0  0  0  0  0  0  0  0  0  0  0  0
   19.0664   21.0883   25.1337 H   0  0  0  0  0  0  0  0  0  0  0  0
   18.8025   22.8338   24.9745 H   0  0  0  0  0  0  0  0  0  0  0  0
   17.4785   21.7029   24.6357 H   0  0  0  0  0  0  0  0  0  0  0  0
  1  2  1  0  0  0  0
  1  3  2  0  0  0  0
  1  4  1  0  0  0  0
  4  5  1  0  0  0  0
  4  6  1  0  0  0  0
  4  7  1  0  0  0  0
  7  8  1  0  0  0  0
  7  9  1  0  0  0  0
  7 10  1  0  0  0  0
 10 11  1  0  0  0  0
 10 12  1  0  0  0  0
 10 13  1  0  0  0  0
 13 14  1  0  0  0  0
 13 15  1  0  0  0  0
 13 16  1  0  0  0  0
 16 17  1  0  0  0  0
 16 18  1  0  0  0  0
 16 19  1  0  0  0  0
 19 20  1  0  0  0  0
 19 21  1  0  0  0  0
 19 22  1  0  0  0  0
 22 23  1  0  0  0  0
 22 24  1  0  0  0  0
 22 25  1  0  0  0  0
M  END
> <VConfSearch Rank>
112

> <Conf_Id>
19

> <Delta U+W>
3.222

> <U+W>
-48.407

> <U>
10.617

> <W>
-59.025

> <W(PB)>
-61.462

> <W(SA)>
2.437

> <Valence>
11.188

> <Coulomb>
-1.778

> <VdW>
1.208

> <VdW6>
-9.786

> <VdW12>
10.993

> <Bond>
0.241

> <Angle>
3.294

> <Pdih>
7.653

> <Idih>
0.001

> <Tether>
0.000

$$$$
VeraChem MOL file


 25 24  0  0  0  0  0  0  0  0999 V2000     
   20.6277   15.9345   25.8709 C   0  0  0  0  0  0  0  0  0  0  0  0
   19.6396   15.2363   25.9844 O   0  5  0  0  0  0  0  0  0  0  0  0
   21.5397   15.9458   26.6740 O   0  0  0  0  0  0  0  0  0  0  0  0
   20.7177   16.8648   24.6664 C   0  0  0  0  0  0  0  0  0  0  0  0
   20.2190   16.3693   23.8262 H   0  0  0  0  0  0  0  0  0  0  0  0
   21.7756   16.9733   24.3994 H   0  0  0  0  0  0  0  0  0  0  0  0
   20.0885   18.2566   24.9362 C   0  0  0  0  0  0  0  0  0  0  0  0
   19.0181   18.1408   25.1555 H   0  0  0  0  0  0  0  0  0  0  0  0
   20.5463   18.6779   25.8420 H   0  0  0  0  0  0  0  0  0  0  0  0
   20.2798   19.2608   23.7744 C   0  0  0  0  0  0  0  0  0  0  0  0
   21.3487   19.3558   23.5401 H   0  0  0  0  0  0  0  0  0  0  0  0
   19.9434   20.2456   24.1221 H   0  0  0  0  0  0  0  0  0  0  0  0
   19.4933   18.8826   22.4965 C   0  0  0  0  0  0  0  0  0  0  0  0
   19.7736   17.8707   22.1788 H   0  0  0  0  0  0  0  0  0  0  0  0
   18.4197   18.8476   22.7265 H   0  0  0  0  0  0  0  0  0  0  0  0
   19.7318   19.8363   21.2986 C   0  0  0  0  0  0  0  0  0  0  0  0
   19.1693   19.4383   20.4430 H   0  0  0  0  0  0  0  0  0  0  0  0
   20.7885   19.8073   20.9995 H   0  0  0  0  0  0  0  0  0  0  0  0
   19.2802   21.2997   21.5329 C   0  0  0  0  0  0  0  0  0  0  0  0
   18.8510   21.6890   20.5994 H   0  0  0  0  0  0  0  0  0  0  0  0
   18.4732   21.3353   22.2777 H   0  0  0  0  0  0  0  0  0  0  0  0
   20.4381   22.2330   21.9518 C   0  0  0  0  0  0  0  0  0  0  0  0
   21.2138   22.2644   21.1756 H   0  0  0  0  0  0  0  0  0  0  0  0
   20.0714   23.2567   22.1012 H   0  0  0  0  0  0  0  0  0  0  0  0
   20.9086   21.9058   22.8859 H   0  0  0  0  0  0  0  0  0  0  0  0
  1  2  1  0  0  0  0
  1  3  2  0  0  0  0
  1  4  1  0  0  0  0
  4  5  1  0  0  0  0
  4  6  1  0  0  0  0
  4  7  1  0  0  0  0
  7  8  1  0  0  0  0
  7  9  1  0  0  0  0
  7 10  1  0  0  0  0
 10 11  1  0  0  0  0
 10 12  1  0  0  0  0
 10 13  1  0  0  0  0
 13 14  1  0  0  0  0
 13 15  1  0  0  0  0
 13 16  1  0  0  0  0
 16 17  1  0  0  0  0
 16 18  1  0  0  0  0
 16 19  1  0  0  0  0
 19 20  1  0  0  0  0
 19 21  1  0  0  0  0
 19 22  1  0  0  0  0
 22 23  1  0  0  0  0
 22 24  1  0  0  0  0
 22 25  1  0  0  0  0
M  END
> <VConfSearch Rank>
113

> <Conf_Id>
20

> <Delta U+W>
3.224

> <U+W>
-48.406

> <U>
10.617

> <W>
-59.023

> <W(PB)>
-61.467

> <W(SA)>
2.444

> <Valence>
11.188

> <Coulomb>
-1.778

> <VdW>
1.208

> <VdW6>
-9.786

> <VdW12>
10.993

> <Bond>
0.241

> <Angle>
3.294

> <Pdih>
7.653

> <Idih>
0.001

> <Tether>
0.000

$$$$
VeraChem MOL file


 25 24  0  0  0  0  0  0  0  0999 V2000     
   21.2666   21.9063   22.3835 C   0  0  0  0  0  0  0  0  0  0  0  0
   20.3608   22.6122   21.9849 O   0  5  0  0  0  0  0  0  0  0  0  0
   21.9678   21.2371   21.6502 O   0  0  0  0  0  0  0  0  0  0  0  0
   21.5848   21.9098   23.8775 C   0  0  0  0  0  0  0  0  0  0  0  0
   21.8959   22.9315   24.1237 H   0  0  0  0  0  0  0  0  0  0  0  0
   22.4533   21.2650   24.0585 H   0  0  0  0  0  0  0  0  0  0  0  0
   20.4077   21.5014   24.8074 C   0  0  0  0  0  0  0  0  0  0  0  0
   20.6222   21.8849   25.8141 H   0  0  0  0  0  0  0  0  0  0  0  0
   19.4842   22.0017   24.4843 H   0  0  0  0  0  0  0  0  0  0  0  0
   20.1716   19.9751   24.9246 C   0  0  0  0  0  0  0  0  0  0  0  0
   19.4272   19.8039   25.7142 H   0  0  0  0  0  0  0  0  0  0  0  0
   21.0950   19.4828   25.2591 H   0  0  0  0  0  0  0  0  0  0  0  0
   19.6731   19.3125   23.6203 C   0  0  0  0  0  0  0  0  0  0  0  0
   18.8109   19.8701   23.2295 H   0  0  0  0  0  0  0  0  0  0  0  0
   20.4587   19.3576   22.8555 H   0  0  0  0  0  0  0  0  0  0  0  0
   19.2770   17.8369   23.8445 C   0  0  0  0  0  0  0  0  0  0  0  0
   18.4843   17.7798   24.6030 H   0  0  0  0  0  0  0  0  0  0  0  0
   20.1390   17.2822   24.2398 H   0  0  0  0  0  0  0  0  0  0  0  0
   18.7899   17.1712   22.5403 C   0  0  0  0  0  0  0  0  0  0  0  0
   17.9271   17.7233   22.1427 H   0  0  0  0  0  0  0  0  0  0  0  0
   19.5810   17.2249   21.7795 H   0  0  0  0  0  0  0  0  0  0  0  0
   18.3956   15.6978   22.7670 C   0  0  0  0  0  0  0  0  0  0  0  0
   17.5834   15.6171   23.5013 H   0  0  0  0  0  0  0  0  0  0  0  0
   18.0521   15.2407   21.8300 H   0  0  0  0  0  0  0  0  0  0  0  0
   19.2499   15.1148   23.1353 H   0  0  0  0  0  0  0  0  0  0  0  0
  1  2  1  0  0  0  0
  1  3  2  0  0  0  0
  1  4  1  0  0  0  0
  4  5  1  0  0  0  0
  4  6  1  0  0  0  0
  4  7  1  0  0  0  0
  7  8  1  0  0  0  0
  7  9  1  0  0  0  0
  7 10  1  0  0  0  0
 10 11  1  0  0  0  0
 10 12  1  0  0  0  0
 10 13  1  0  0  0  0
 13 14  1  0  0  0  0
 13 15  1  0  0  0  0
 13 16  1  0  0  0  0
 16 17  1  0  0  0  0
 16 18  1  0  0  0  0
 16 19  1  0  0  0  0
 19 20  1  0  0  0  0
 19 21  1  0  0  0  0
 19 22  1  0  0  0  0
 22 23  1  0  0  0  0
 22 24  1  0  0  0  0
 22 25  1  0  0  0  0
M  END
> <VConfSearch Rank>
114

> <Conf_Id>
24

> <Delta U+W>
1.784

> <U+W>
-49.846

> <U>
10.904

> <W>
-60.749

> <W(PB)>
-63.220

> <W(SA)>
2.471

> <Valence>
9.445

> <Coulomb>
0.780

> <VdW>
0.679

> <VdW6>
-10.008

> <VdW12>
10.687

> <Bond>
0.201

> <Angle>
3.198

> <Pdih>
6.039

> <Idih>
0.006

> <Tether>
0.000

$$$$
VeraChem MOL file


 25 24  0  0  0  0  0  0  0  0999 V2000     
   23.0628   20.3282   23.5523 C   0  0  0  0  0  0  0  0  0  0  0  0
   23.3807   20.4652   24.7175 O   0  5  0  0  0  0  0  0  0  0  0  0
   23.4886   19.4394   22.8410 O   0  0  0  0  0  0  0  0  0  0  0  0
   22.1308   21.3652   22.9283 C   0  0  0  0  0  0  0  0  0  0  0  0
   21.9877   21.1238   21.8681 H   0  0  0  0  0  0  0  0  0  0  0  0
   22.6664   22.3209   22.9628 H   0  0  0  0  0  0  0  0  0  0  0  0
   20.7552   21.5304   23.6336 C   0  0  0  0  0  0  0  0  0  0  0  0
   20.8945   21.5637   24.7231 H   0  0  0  0  0  0  0  0  0  0  0  0
   20.3451   22.5096   23.3518 H   0  0  0  0  0  0  0  0  0  0  0  0
   19.7030   20.4550   23.2654 C   0  0  0  0  0  0  0  0  0  0  0  0
   19.5599   20.4354   22.1764 H   0  0  0  0  0  0  0  0  0  0  0  0
   18.7394   20.7573   23.6978 H   0  0  0  0  0  0  0  0  0  0  0  0
   20.0498   19.0356   23.7691 C   0  0  0  0  0  0  0  0  0  0  0  0
   20.9403   18.6624   23.2479 H   0  0  0  0  0  0  0  0  0  0  0  0
   20.2953   19.0737   24.8393 H   0  0  0  0  0  0  0  0  0  0  0  0
   18.8851   18.0478   23.5401 C   0  0  0  0  0  0  0  0  0  0  0  0
   18.6379   18.0147   22.4701 H   0  0  0  0  0  0  0  0  0  0  0  0
   17.9893   18.4071   24.0648 H   0  0  0  0  0  0  0  0  0  0  0  0
   19.2347   16.6276   24.0323 C   0  0  0  0  0  0  0  0  0  0  0  0
   20.1295   16.2641   23.5082 H   0  0  0  0  0  0  0  0  0  0  0  0
   19.4819   16.6571   25.1025 H   0  0  0  0  0  0  0  0  0  0  0  0
   18.0702   15.6434   23.8019 C   0  0  0  0  0  0  0  0  0  0  0  0
   17.8228   15.5707   22.7347 H   0  0  0  0  0  0  0  0  0  0  0  0
   18.3361   14.6395   24.1574 H   0  0  0  0  0  0  0  0  0  0  0  0
   17.1702   15.9667   24.3413 H   0  0  0  0  0  0  0  0  0  0  0  0
  1  2  1  0  0  0  0
  1  3  2  0  0  0  0
  1  4  1  0  0  0  0
  4  5  1  0  0  0  0
  4  6  1  0  0  0  0
  4  7  1  0  0  0  0
  7  8  1  0  0  0  0
  7  9  1  0  0  0  0
  7 10  1  0  0  0  0
 10 11  1  0  0  0  0
 10 12  1  0  0  0  0
 10 13  1  0  0  0  0
 13 14  1  0  0  0  0
 13 15  1  0  0  0  0
 13 16  1  0  0  0  0
 16 17  1  0  0  0  0
 16 18  1  0  0  0  0
 16 19  1  0  0  0  0
 19 20  1  0  0  0  0
 19 21  1  0  0  0  0
 19 22  1  0  0  0  0
 22 23  1  0  0  0  0
 22 24  1  0  0  0  0
 22 25  1  0  0  0  0
M  END
> <VConfSearch Rank>
115

> <Conf_Id>
9

> <Delta U+W>
1.764

> <U+W>
-49.865

> <U>
10.902

> <W>
-60.768

> <W(PB)>
-63.223

> <W(SA)>
2.456

> <Valence>
9.445

> <Coulomb>
0.778

> <VdW>
0.679

> <VdW6>
-10.007

> <VdW12>
10.687

> <Bond>
0.201

> <Angle>
3.198

> <Pdih>
6.040

> <Idih>
0.006

> <Tether>
0.000

$$$$
VeraChem MOL file


 25 24  0  0  0  0  0  0  0  0999 V2000     
   17.2573   17.6722   25.3999 C   0  0  0  0  0  0  0  0  0  0  0  0
   18.0482   17.1715   26.1747 O   0  5  0  0  0  0  0  0  0  0  0  0
   16.0702   17.7900   25.6320 O   0  0  0  0  0  0  0  0  0  0  0  0
   17.7865   18.2004   24.0715 C   0  0  0  0  0  0  0  0  0  0  0  0
   17.0013   18.0669   23.3179 H   0  0  0  0  0  0  0  0  0  0  0  0
   18.6275   17.5680   23.7713 H   0  0  0  0  0  0  0  0  0  0  0  0
   18.2057   19.6926   24.1440 C   0  0  0  0  0  0  0  0  0  0  0  0
   17.3238   20.2768   24.4415 H   0  0  0  0  0  0  0  0  0  0  0  0
   18.9507   19.8383   24.9385 H   0  0  0  0  0  0  0  0  0  0  0  0
   18.7388   20.2508   22.7999 C   0  0  0  0  0  0  0  0  0  0  0  0
   18.4212   21.2991   22.7159 H   0  0  0  0  0  0  0  0  0  0  0  0
   18.2678   19.7281   21.9561 H   0  0  0  0  0  0  0  0  0  0  0  0
   20.2809   20.2192   22.6529 C   0  0  0  0  0  0  0  0  0  0  0  0
   20.5474   20.7119   21.7081 H   0  0  0  0  0  0  0  0  0  0  0  0
   20.7292   20.8224   23.4534 H   0  0  0  0  0  0  0  0  0  0  0  0
   20.8914   18.7978   22.6671 C   0  0  0  0  0  0  0  0  0  0  0  0
   20.3320   18.1593   21.9701 H   0  0  0  0  0  0  0  0  0  0  0  0
   20.7787   18.3554   23.6655 H   0  0  0  0  0  0  0  0  0  0  0  0
   22.3858   18.7700   22.2702 C   0  0  0  0  0  0  0  0  0  0  0  0
   22.7152   17.7236   22.2087 H   0  0  0  0  0  0  0  0  0  0  0  0
   22.5108   19.1941   21.2643 H   0  0  0  0  0  0  0  0  0  0  0  0
   23.2951   19.5210   23.2669 C   0  0  0  0  0  0  0  0  0  0  0  0
   23.1683   19.1305   24.2850 H   0  0  0  0  0  0  0  0  0  0  0  0
   24.3503   19.4031   22.9884 H   0  0  0  0  0  0  0  0  0  0  0  0
   23.0726   20.5953   23.2800 H   0  0  0  0  0  0  0  0  0  0  0  0
  1  2  1  0  0  0  0
  1  3  2  0  0  0  0
  1  4  1  0  0  0  0
  4  5  1  0  0  0  0
  4  6  1  0  0  0  0
  4  7  1  0  0  0  0
  7  8  1  0  0  0  0
  7  9  1  0  0  0  0
  7 10  1  0  0  0  0
 10 11  1  0  0  0  0
 10 12  1  0  0  0  0
 10 13  1  0  0  0  0
 13 14  1  0  0  0  0
 13 15  1  0  0  0  0
 13 16  1  0  0  0  0
 16 17  1  0  0  0  0
 16 18  1  0  0  0  0
 16 19  1  0  0  0  0
 19 20  1  0  0  0  0
 19 21  1  0  0  0  0
 19 22  1  0  0  0  0
 22 23  1  0  0  0  0
 22 24  1  0  0  0  0
 22 25  1  0  0  0  0
M  END
> <VConfSearch Rank>
116

> <Conf_Id>
89

> <Delta U+W>
2.903

> <U+W>
-48.726

> <U>
10.996

> <W>
-59.723

> <W(PB)>
-62.151

> <W(SA)>
2.428

> <Valence>
10.985

> <Coulomb>
-0.995

> <VdW>
1.006

> <VdW6>
-10.062

> <VdW12>
11.069

> <Bond>
0.238

> <Angle>
3.202

> <Pdih>
7.544

> <Idih>
0.001

> <Tether>
0.000

$$$$
VeraChem MOL file


 25 24  0  0  0  0  0  0  0  0999 V2000     
   18.5944   16.0991   22.3782 C   0  0  0  0  0  0  0  0  0  0  0  0
   19.3514   15.8343   21.4649 O   0  5  0  0  0  0  0  0  0  0  0  0
   18.4697   15.4051   23.3683 O   0  0  0  0  0  0  0  0  0  0  0  0
   17.7073   17.3352   22.2425 C   0  0  0  0  0  0  0  0  0  0  0  0
   16.6748   16.9694   22.2026 H   0  0  0  0  0  0  0  0  0  0  0  0
   17.9077   17.8142   21.2765 H   0  0  0  0  0  0  0  0  0  0  0  0
   17.8320   18.3718   23.3946 C   0  0  0  0  0  0  0  0  0  0  0  0
   16.9191   18.9827   23.3994 H   0  0  0  0  0  0  0  0  0  0  0  0
   17.8537   17.8548   24.3641 H   0  0  0  0  0  0  0  0  0  0  0  0
   19.0405   19.3341   23.2786 C   0  0  0  0  0  0  0  0  0  0  0  0
   18.9200   20.1121   24.0427 H   0  0  0  0  0  0  0  0  0  0  0  0
   19.0121   19.8474   22.3079 H   0  0  0  0  0  0  0  0  0  0  0  0
   20.4144   18.6450   23.4625 C   0  0  0  0  0  0  0  0  0  0  0  0
   20.4260   18.0797   24.4043 H   0  0  0  0  0  0  0  0  0  0  0  0
   20.5625   17.9142   22.6582 H   0  0  0  0  0  0  0  0  0  0  0  0
   21.6087   19.6290   23.4309 C   0  0  0  0  0  0  0  0  0  0  0  0
   21.5774   20.2167   22.5032 H   0  0  0  0  0  0  0  0  0  0  0  0
   22.5376   19.0436   23.3956 H   0  0  0  0  0  0  0  0  0  0  0  0
   21.6641   20.5776   24.6501 C   0  0  0  0  0  0  0  0  0  0  0  0
   20.7839   21.2332   24.6624 H   0  0  0  0  0  0  0  0  0  0  0  0
   21.6393   19.9899   25.5781 H   0  0  0  0  0  0  0  0  0  0  0  0
   22.9362   21.4492   24.6304 C   0  0  0  0  0  0  0  0  0  0  0  0
   22.9735   22.0684   23.7245 H   0  0  0  0  0  0  0  0  0  0  0  0
   22.9597   22.1189   25.4999 H   0  0  0  0  0  0  0  0  0  0  0  0
   23.8401   20.8267   24.6579 H   0  0  0  0  0  0  0  0  0  0  0  0
  1  2  1  0  0  0  0
  1  3  2  0  0  0  0
  1  4  1  0  0  0  0
  4  5  1  0  0  0  0
  4  6  1  0  0  0  0
  4  7  1  0  0  0  0
  7  8  1  0  0  0  0
  7  9  1  0  0  0  0
  7 10  1  0  0  0  0
 10 11  1  0  0  0  0
 10 12  1  0  0  0  0
 10 13  1  0  0  0  0
 13 14  1  0  0  0  0
 13 15  1  0  0  0  0
 13 16  1  0  0  0  0
 16 17  1  0  0  0  0
 16 18  1  0  0  0  0
 16 19  1  0  0  0  0
 19 20  1  0  0  0  0
 19 21  1  0  0  0  0
 19 22  1  0  0  0  0
 22 23  1  0  0  0  0
 22 24  1  0  0  0  0
 22 25  1  0  0  0  0
M  END
> <VConfSearch Rank>
117

> <Conf_Id>
114

> <Delta U+W>
2.758

> <U+W>
-48.871

> <U>
11.422

> <W>
-60.293

> <W(PB)>
-62.719

> <W(SA)>
2.425

> <Valence>
10.135

> <Coulomb>
0.369

> <VdW>
0.918

> <VdW6>
-10.482

> <VdW12>
11.400

> <Bond>
0.245

> <Angle>
3.539

> <Pdih>
6.346

> <Idih>
0.006

> <Tether>
0.000

$$$$
VeraChem MOL file


 25 24  0  0  0  0  0  0  0  0999 V2000     
   22.5920   16.2522   22.4322 C   0  0  0  0  0  0  0  0  0  0  0  0
   23.2500   16.0270   23.4288 O   0  5  0  0  0  0  0  0  0  0  0  0
   21.8612   15.4338   21.9094 O   0  0  0  0  0  0  0  0  0  0  0  0
   22.7036   17.6313   21.7882 C   0  0  0  0  0  0  0  0  0  0  0  0
   22.8122   17.4813   20.7076 H   0  0  0  0  0  0  0  0  0  0  0  0
   23.6283   18.1066   22.1371 H   0  0  0  0  0  0  0  0  0  0  0  0
   21.4884   18.5545   22.0637 C   0  0  0  0  0  0  0  0  0  0  0  0
   21.5908   19.4677   21.4622 H   0  0  0  0  0  0  0  0  0  0  0  0
   20.5751   18.0497   21.7226 H   0  0  0  0  0  0  0  0  0  0  0  0
   21.3635   18.9379   23.5579 C   0  0  0  0  0  0  0  0  0  0  0  0
   22.3211   19.3543   23.8992 H   0  0  0  0  0  0  0  0  0  0  0  0
   21.1861   18.0371   24.1615 H   0  0  0  0  0  0  0  0  0  0  0  0
   20.2503   19.9751   23.8401 C   0  0  0  0  0  0  0  0  0  0  0  0
   20.3377   20.2890   24.8880 H   0  0  0  0  0  0  0  0  0  0  0  0
   20.4204   20.8730   23.2307 H   0  0  0  0  0  0  0  0  0  0  0  0
   18.8227   19.4320   23.5842 C   0  0  0  0  0  0  0  0  0  0  0  0
   18.6544   18.5320   24.1911 H   0  0  0  0  0  0  0  0  0  0  0  0
   18.7323   19.1218   22.5355 H   0  0  0  0  0  0  0  0  0  0  0  0
   17.7103   20.4669   23.8739 C   0  0  0  0  0  0  0  0  0  0  0  0
   17.8820   21.3733   23.2770 H   0  0  0  0  0  0  0  0  0  0  0  0
   16.7494   20.0527   23.5389 H   0  0  0  0  0  0  0  0  0  0  0  0
   17.5935   20.8416   25.3676 C   0  0  0  0  0  0  0  0  0  0  0  0
   16.7315   21.5012   25.5311 H   0  0  0  0  0  0  0  0  0  0  0  0
   17.4559   19.9462   25.9877 H   0  0  0  0  0  0  0  0  0  0  0  0
   18.4872   21.3712   25.7201 H   0  0  0  0  0  0  0  0  0  0  0  0
  1  2  1  0  0  0  0
  1  3  2  0  0  0  0
  1  4  1  0  0  0  0
  4  5  1  0  0  0  0
  4  6  1  0  0  0  0
  4  7  1  0  0  0  0
  7  8  1  0  0  0  0
  7  9  1  0  0  0  0
  7 10  1  0  0  0  0
 10 11  1  0  0  0  0
 10 12  1  0  0  0  0
 10 13  1  0  0  0  0
 13 14  1  0  0  0  0
 13 15  1  0  0  0  0
 13 16  1  0  0  0  0
 16 17  1  0  0  0  0
 16 18  1  0  0  0  0
 16 19  1  0  0  0  0
 19 20  1  0  0  0  0
 19 21  1  0  0  0  0
 19 22  1  0  0  0  0
 22 23  1  0  0  0  0
 22 24  1  0  0  0  0
 22 25  1  0  0  0  0
M  END
> <VConfSearch Rank>
118

> <Conf_Id>
87

> <Delta U+W>
1.453

> <U+W>
-50.176

> <U>
9.763

> <W>
-59.940

> <W(PB)>
-62.392

> <W(SA)>
2.452

> <Valence>
8.883

> <Coulomb>
-0.122

> <VdW>
1.003

> <VdW6>
-9.782

> <VdW12>
10.785

> <Bond>
0.212

> <Angle>
2.940

> <Pdih>
5.730

> <Idih>
0.001

> <Tether>
0.000

$$$$
VeraChem MOL file


 25 24  0  0  0  0  0  0  0  0999 V2000     
   19.0846   18.9281   19.5050 C   0  0  0  0  0  0  0  0  0  0  0  0
   17.8877   19.1347   19.5426 O   0  5  0  0  0  0  0  0  0  0  0  0
   19.7982   19.2705   18.5829 O   0  0  0  0  0  0  0  0  0  0  0  0
   19.7298   18.2160   20.6885 C   0  0  0  0  0  0  0  0  0  0  0  0
   20.5689   17.6194   20.3109 H   0  0  0  0  0  0  0  0  0  0  0  0
   18.9961   17.5163   21.1065 H   0  0  0  0  0  0  0  0  0  0  0  0
   20.2190   19.1942   21.7848 C   0  0  0  0  0  0  0  0  0  0  0  0
   20.9462   19.8936   21.3500 H   0  0  0  0  0  0  0  0  0  0  0  0
   19.3667   19.7929   22.1325 H   0  0  0  0  0  0  0  0  0  0  0  0
   20.8622   18.4463   22.9755 C   0  0  0  0  0  0  0  0  0  0  0  0
   21.6668   17.8002   22.5990 H   0  0  0  0  0  0  0  0  0  0  0  0
   20.1242   17.7764   23.4360 H   0  0  0  0  0  0  0  0  0  0  0  0
   21.4577   19.3920   24.0485 C   0  0  0  0  0  0  0  0  0  0  0  0
   21.9443   18.7862   24.8241 H   0  0  0  0  0  0  0  0  0  0  0  0
   22.2593   19.9870   23.5904 H   0  0  0  0  0  0  0  0  0  0  0  0
   20.4440   20.3586   24.7162 C   0  0  0  0  0  0  0  0  0  0  0  0
   20.0783   21.0748   23.9688 H   0  0  0  0  0  0  0  0  0  0  0  0
   20.9757   20.9593   25.4665 H   0  0  0  0  0  0  0  0  0  0  0  0
   19.2299   19.6762   25.3934 C   0  0  0  0  0  0  0  0  0  0  0  0
   18.5747   20.4559   25.8054 H   0  0  0  0  0  0  0  0  0  0  0  0
   18.6312   19.1409   24.6446 H   0  0  0  0  0  0  0  0  0  0  0  0
   19.6286   18.7103   26.5301 C   0  0  0  0  0  0  0  0  0  0  0  0
   20.2426   19.2216   27.2828 H   0  0  0  0  0  0  0  0  0  0  0  0
   18.7350   18.3174   27.0318 H   0  0  0  0  0  0  0  0  0  0  0  0
   20.1974   17.8547   26.1447 H   0  0  0  0  0  0  0  0  0  0  0  0
  1  2  1  0  0  0  0
  1  3  2  0  0  0  0
  1  4  1  0  0  0  0
  4  5  1  0  0  0  0
  4  6  1  0  0  0  0
  4  7  1  0  0  0  0
  7  8  1  0  0  0  0
  7  9  1  0  0  0  0
  7 10  1  0  0  0  0
 10 11  1  0  0  0  0
 10 12  1  0  0  0  0
 10 13  1  0  0  0  0
 13 14  1  0  0  0  0
 13 15  1  0  0  0  0
 13 16  1  0  0  0  0
 16 17  1  0  0  0  0
 16 18  1  0  0  0  0
 16 19  1  0  0  0  0
 19 20  1  0  0  0  0
 19 21  1  0  0  0  0
 19 22  1  0  0  0  0
 22 23  1  0  0  0  0
 22 24  1  0  0  0  0
 22 25  1  0  0  0  0
M  END
> <VConfSearch Rank>
119

> <Conf_Id>
29

> <Delta U+W>
0.850

> <U+W>
-50.780

> <U>
8.646

> <W>
-59.426

> <W(PB)>
-61.868

> <W(SA)>
2.442

> <Valence>
8.924

> <Coulomb>
-1.171

> <VdW>
0.894

> <VdW6>
-10.223

> <VdW12>
11.117

> <Bond>
0.231

> <Angle>
3.232

> <Pdih>
5.461

> <Idih>
0.001

> <Tether>
0.000

$$$$
VeraChem MOL file


 25 24  0  0  0  0  0  0  0  0999 V2000     
   22.0248   22.1338   25.0138 C   0  0  0  0  0  0  0  0  0  0  0  0
   21.3619   22.3623   26.0063 O   0  5  0  0  0  0  0  0  0  0  0  0
   22.6502   22.9839   24.4114 O   0  0  0  0  0  0  0  0  0  0  0  0
   22.0585   20.7047   24.4840 C   0  0  0  0  0  0  0  0  0  0  0  0
   21.9719   20.0224   25.3382 H   0  0  0  0  0  0  0  0  0  0  0  0
   23.0418   20.5329   24.0298 H   0  0  0  0  0  0  0  0  0  0  0  0
   20.9365   20.4178   23.4560 C   0  0  0  0  0  0  0  0  0  0  0  0
   19.9645   20.6156   23.9270 H   0  0  0  0  0  0  0  0  0  0  0  0
   21.0309   21.1135   22.6109 H   0  0  0  0  0  0  0  0  0  0  0  0
   20.9892   18.9610   22.9409 C   0  0  0  0  0  0  0  0  0  0  0  0
   20.8548   18.2651   23.7794 H   0  0  0  0  0  0  0  0  0  0  0  0
   21.9908   18.7609   22.5367 H   0  0  0  0  0  0  0  0  0  0  0  0
   19.9476   18.6603   21.8341 C   0  0  0  0  0  0  0  0  0  0  0  0
   20.1579   19.3004   20.9666 H   0  0  0  0  0  0  0  0  0  0  0  0
   20.0903   17.6297   21.4835 H   0  0  0  0  0  0  0  0  0  0  0  0
   18.4652   18.8587   22.2474 C   0  0  0  0  0  0  0  0  0  0  0  0
   17.8260   18.5980   21.3930 H   0  0  0  0  0  0  0  0  0  0  0  0
   18.2812   19.9237   22.4405 H   0  0  0  0  0  0  0  0  0  0  0  0
   18.0087   18.0392   23.4795 C   0  0  0  0  0  0  0  0  0  0  0  0
   18.5748   18.3470   24.3688 H   0  0  0  0  0  0  0  0  0  0  0  0
   16.9577   18.2796   23.6903 H   0  0  0  0  0  0  0  0  0  0  0  0
   18.1395   16.5137   23.2802 C   0  0  0  0  0  0  0  0  0  0  0  0
   19.1896   16.2146   23.1718 H   0  0  0  0  0  0  0  0  0  0  0  0
   17.7276   15.9765   24.1442 H   0  0  0  0  0  0  0  0  0  0  0  0
   17.5936   16.1863   22.3859 H   0  0  0  0  0  0  0  0  0  0  0  0
  1  2  1  0  0  0  0
  1  3  2  0  0  0  0
  1  4  1  0  0  0  0
  4  5  1  0  0  0  0
  4  6  1  0  0  0  0
  4  7  1  0  0  0  0
  7  8  1  0  0  0  0
  7  9  1  0  0  0  0
  7 10  1  0  0  0  0
 10 11  1  0  0  0  0
 10 12  1  0  0  0  0
 10 13  1  0  0  0  0
 13 14  1  0  0  0  0
 13 15  1  0  0  0  0
 13 16  1  0  0  0  0
 16 17  1  0  0  0  0
 16 18  1  0  0  0  0
 16 19  1  0  0  0  0
 19 20  1  0  0  0  0
 19 21  1  0  0  0  0
 19 22  1  0  0  0  0
 22 23  1  0  0  0  0
 22 24  1  0  0  0  0
 22 25  1  0  0  0  0
M  END
> <VConfSearch Rank>
120

> <Conf_Id>
30

> <Delta U+W>
0.843

> <U+W>
-50.787

> <U>
8.647

> <W>
-59.434

> <W(PB)>
-61.861

> <W(SA)>
2.428

> <Valence>
8.924

> <Coulomb>
-1.170

> <VdW>
0.894

> <VdW6>
-10.224

> <VdW12>
11.118

> <Bond>
0.231

> <Angle>
3.232

> <Pdih>
5.460

> <Idih>
0.000

> <Tether>
0.000

$$$$
VeraChem MOL file


 25 24  0  0  0  0  0  0  0  0999 V2000     
   23.7049   21.1129   25.4037 C   0  0  0  0  0  0  0  0  0  0  0  0
   23.1033   22.1412   25.6472 O   0  5  0  0  0  0  0  0  0  0  0  0
   24.8526   20.9171   25.7509 O   0  0  0  0  0  0  0  0  0  0  0  0
   23.0109   19.9944   24.6247 C   0  0  0  0  0  0  0  0  0  0  0  0
   23.0420   19.0935   25.2488 H   0  0  0  0  0  0  0  0  0  0  0  0
   23.6184   19.7899   23.7353 H   0  0  0  0  0  0  0  0  0  0  0  0
   21.5469   20.2905   24.2034 C   0  0  0  0  0  0  0  0  0  0  0  0
   20.9455   20.5008   25.0987 H   0  0  0  0  0  0  0  0  0  0  0  0
   21.5224   21.1977   23.5838 H   0  0  0  0  0  0  0  0  0  0  0  0
   20.9239   19.1120   23.4240 C   0  0  0  0  0  0  0  0  0  0  0  0
   20.9496   18.2062   24.0453 H   0  0  0  0  0  0  0  0  0  0  0  0
   21.5269   18.9036   22.5295 H   0  0  0  0  0  0  0  0  0  0  0  0
   19.4677   19.4088   23.0059 C   0  0  0  0  0  0  0  0  0  0  0  0
   18.8645   19.6172   23.9003 H   0  0  0  0  0  0  0  0  0  0  0  0
   19.4417   20.3145   22.3845 H   0  0  0  0  0  0  0  0  0  0  0  0
   18.8441   18.2308   22.2265 C   0  0  0  0  0  0  0  0  0  0  0  0
   18.8700   17.3250   22.8478 H   0  0  0  0  0  0  0  0  0  0  0  0
   19.4471   18.0223   21.3321 H   0  0  0  0  0  0  0  0  0  0  0  0
   17.3885   18.5273   21.8087 C   0  0  0  0  0  0  0  0  0  0  0  0
   16.7818   18.7345   22.7011 H   0  0  0  0  0  0  0  0  0  0  0  0
   17.3589   19.4318   21.1854 H   0  0  0  0  0  0  0  0  0  0  0  0
   16.7695   17.3487   21.0307 C   0  0  0  0  0  0  0  0  0  0  0  0
   16.7574   16.4372   21.6426 H   0  0  0  0  0  0  0  0  0  0  0  0
   15.7352   17.5765   20.7417 H   0  0  0  0  0  0  0  0  0  0  0  0
   17.3389   17.1397   20.1155 H   0  0  0  0  0  0  0  0  0  0  0  0
  1  2  1  0  0  0  0
  1  3  2  0  0  0  0
  1  4  1  0  0  0  0
  4  5  1  0  0  0  0
  4  6  1  0  0  0  0
  4  7  1  0  0  0  0
  7  8  1  0  0  0  0
  7  9  1  0  0  0  0
  7 10  1  0  0  0  0
 10 11  1  0  0  0  0
 10 12  1  0  0  0  0
 10 13  1  0  0  0  0
 13 14  1  0  0  0  0
 13 15  1  0  0  0  0
 13 16  1  0  0  0  0
 16 17  1  0  0  0  0
 16 18  1  0  0  0  0
 16 19  1  0  0  0  0
 19 20  1  0  0  0  0
 19 21  1  0  0  0  0
 19 22  1  0  0  0  0
 22 23  1  0  0  0  0
 22 24  1  0  0  0  0
 22 25  1  0  0  0  0
M  END
> <VConfSearch Rank>
121

> <Conf_Id>
0

> <Delta U+W>
0.000

> <U+W>
-51.629

> <U>
6.586

> <W>
-58.216

> <W(PB)>
-60.757

> <W(SA)>
2.541

> <Valence>
8.027

> <Coulomb>
-2.892

> <VdW>
1.451

> <VdW6>
-7.931

> <VdW12>
9.383

> <Bond>
0.149

> <Angle>
2.726

> <Pdih>
5.152

> <Idih>
0.000

> <Tether>
0.000

$$$$
VeraChem MOL file


 25 24  0  0  0  0  0  0  0  0999 V2000     
   20.9227   21.4044   19.1264 C   0  0  0  0  0  0  0  0  0  0  0  0
   19.9269   21.8564   18.5967 O   0  5  0  0  0  0  0  0  0  0  0  0
   22.0194   21.9224   19.0517 O   0  0  0  0  0  0  0  0  0  0  0  0
   20.7839   20.1288   19.9496 C   0  0  0  0  0  0  0  0  0  0  0  0
   21.7229   19.5680   19.8698 H   0  0  0  0  0  0  0  0  0  0  0  0
   19.9988   19.5133   19.4943 H   0  0  0  0  0  0  0  0  0  0  0  0
   20.4513   20.4059   21.4365 C   0  0  0  0  0  0  0  0  0  0  0  0
   21.2399   21.0340   21.8738 H   0  0  0  0  0  0  0  0  0  0  0  0
   19.5159   20.9794   21.4983 H   0  0  0  0  0  0  0  0  0  0  0  0
   20.3157   19.0997   22.2484 C   0  0  0  0  0  0  0  0  0  0  0  0
   21.2519   18.5283   22.1837 H   0  0  0  0  0  0  0  0  0  0  0  0
   19.5276   18.4736   21.8079 H   0  0  0  0  0  0  0  0  0  0  0  0
   19.9839   19.3790   23.7301 C   0  0  0  0  0  0  0  0  0  0  0  0
   20.7720   20.0050   24.1708 H   0  0  0  0  0  0  0  0  0  0  0  0
   19.0478   19.9504   23.7950 H   0  0  0  0  0  0  0  0  0  0  0  0
   19.8482   18.0732   24.5426 C   0  0  0  0  0  0  0  0  0  0  0  0
   20.7843   17.5016   24.4780 H   0  0  0  0  0  0  0  0  0  0  0  0
   19.0602   17.4470   24.1021 H   0  0  0  0  0  0  0  0  0  0  0  0
   19.5165   18.3523   26.0237 C   0  0  0  0  0  0  0  0  0  0  0  0
   20.3036   18.9770   26.4683 H   0  0  0  0  0  0  0  0  0  0  0  0
   18.5796   18.9223   26.0924 H   0  0  0  0  0  0  0  0  0  0  0  0
   19.3818   17.0459   26.8316 C   0  0  0  0  0  0  0  0  0  0  0  0
   19.1460   17.2629   27.8816 H   0  0  0  0  0  0  0  0  0  0  0  0
   18.5792   16.4150   26.4275 H   0  0  0  0  0  0  0  0  0  0  0  0
   20.3162   16.4701   26.8062 H   0  0  0  0  0  0  0  0  0  0  0  0
  1  2  1  0  0  0  0
  1  3  2  0  0  0  0
  1  4  1  0  0  0  0
  4  5  1  0  0  0  0
  4  6  1  0  0  0  0
  4  7  1  0  0  0  0
  7  8  1  0  0  0  0
  7  9  1  0  0  0  0
  7 10  1  0  0  0  0
 10 11  1  0  0  0  0
 10 12  1  0  0  0  0
 10 13  1  0  0  0  0
 13 14  1  0  0  0  0
 13 15  1  0  0  0  0
 13 16  1  0  0  0  0
 16 17  1  0  0  0  0
 16 18  1  0  0  0  0
 16 19  1  0  0  0  0
 19 20  1  0  0  0  0
 19 21  1  0  0  0  0
 19 22  1  0  0  0  0
 22 23  1  0  0  0  0
 22 24  1  0  0  0  0
 22 25  1  0  0  0  0
M  END
> <VConfSearch Rank>
122

> <Conf_Id>
27

> <Delta U+W>
-1.297

> <U+W>
-52.926

> <U>
5.617

> <W>
-58.543

> <W(PB)>
-61.065

> <W(SA)>
2.522

> <Valence>
7.531

> <Coulomb>
-2.818

> <VdW>
0.904

> <VdW6>
-7.640

> <VdW12>
8.544

> <Bond>
0.115

> <Angle>
2.271

> <Pdih>
5.144

> <Idih>
0.001

> <Tether>
0.000

$$$$
VeraChem MOL file


 25 24  0  0  0  0  0  0  0  0999 V2000     
   17.1733   18.4076   25.8782 C   0  0  0  0  0  0  0  0  0  0  0  0
   16.0875   18.3648   25.3337 O   0  5  0  0  0  0  0  0  0  0  0  0
   17.6982   17.4484   26.4086 O   0  0  0  0  0  0  0  0  0  0  0  0
   17.9084   19.7446   25.9112 C   0  0  0  0  0  0  0  0  0  0  0  0
   18.6665   19.7078   26.7030 H   0  0  0  0  0  0  0  0  0  0  0  0
   17.1814   20.5114   26.2032 H   0  0  0  0  0  0  0  0  0  0  0  0
   18.5625   20.1377   24.5611 C   0  0  0  0  0  0  0  0  0  0  0  0
   17.7962   20.1432   23.7735 H   0  0  0  0  0  0  0  0  0  0  0  0
   18.9457   21.1644   24.6364 H   0  0  0  0  0  0  0  0  0  0  0  0
   19.7166   19.1910   24.1619 C   0  0  0  0  0  0  0  0  0  0  0  0
   19.3373   18.1641   24.0675 H   0  0  0  0  0  0  0  0  0  0  0  0
   20.4734   19.1787   24.9583 H   0  0  0  0  0  0  0  0  0  0  0  0
   20.3736   19.6194   22.8321 C   0  0  0  0  0  0  0  0  0  0  0  0
   19.6161   19.6314   22.0363 H   0  0  0  0  0  0  0  0  0  0  0  0
   20.7563   20.6450   22.9251 H   0  0  0  0  0  0  0  0  0  0  0  0
   21.5264   18.6734   22.4321 C   0  0  0  0  0  0  0  0  0  0  0  0
   21.1438   17.6477   22.3391 H   0  0  0  0  0  0  0  0  0  0  0  0
   22.2838   18.6610   23.2279 H   0  0  0  0  0  0  0  0  0  0  0  0
   22.1830   19.1009   21.1026 C   0  0  0  0  0  0  0  0  0  0  0  0
   21.4285   19.1127   20.3038 H   0  0  0  0  0  0  0  0  0  0  0  0
   22.5686   20.1259   21.1927 H   0  0  0  0  0  0  0  0  0  0  0  0
   23.3334   18.1536   20.7068 C   0  0  0  0  0  0  0  0  0  0  0  0
   22.9695   17.1257   20.5790 H   0  0  0  0  0  0  0  0  0  0  0  0
   23.7885   18.4722   19.7599 H   0  0  0  0  0  0  0  0  0  0  0  0
   24.1182   18.1465   21.4745 H   0  0  0  0  0  0  0  0  0  0  0  0
  1  2  1  0  0  0  0
  1  3  2  0  0  0  0
  1  4  1  0  0  0  0
  4  5  1  0  0  0  0
  4  6  1  0  0  0  0
  4  7  1  0  0  0  0
  7  8  1  0  0  0  0
  7  9  1  0  0  0  0
  7 10  1  0  0  0  0
 10 11  1  0  0  0  0
 10 12  1  0  0  0  0
 10 13  1  0  0  0  0
 13 14  1  0  0  0  0
 13 15  1  0  0  0  0
 13 16  1  0  0  0  0
 16 17  1  0  0  0  0
 16 18  1  0  0  0  0
 16 19  1  0  0  0  0
 19 20  1  0  0  0  0
 19 21  1  0  0  0  0
 19 22  1  0  0  0  0
 22 23  1  0  0  0  0
 22 24  1  0  0  0  0
 22 25  1  0  0  0  0
M  END
> <VConfSearch Rank>
123

> <Conf_Id>
37

> <Delta U+W>
-0.230

> <U+W>
-51.860

> <U>
7.816

> <W>
-59.675

> <W(PB)>
-62.180

> <W(SA)>
2.505

> <Valence>
7.785

> <Coulomb>
-0.713

> <VdW>
0.744

> <VdW6>
-8.514

> <VdW12>
9.259

> <Bond>
0.136

> <Angle>
2.433

> <Pdih>
5.216

> <Idih>
0.000

> <Tether>
0.000

$$$$
VeraChem MOL file


 25 24  0  0  0  0  0  0  0  0999 V2000     
   20.6756   18.2777   27.1601 C   0  0  0  0  0  0  0  0  0  0  0  0
   20.0334   17.3108   27.5203 O   0  5  0  0  0  0  0  0  0  0  0  0
   20.5117   19.3973   27.6035 O   0  0  0  0  0  0  0  0  0  0  0  0
   21.7578   18.0691   26.1046 C   0  0  0  0  0  0  0  0  0  0  0  0
   22.3295   17.1790   26.3927 H   0  0  0  0  0  0  0  0  0  0  0  0
   22.4515   18.9178   26.1419 H   0  0  0  0  0  0  0  0  0  0  0  0
   21.2085   17.8890   24.6656 C   0  0  0  0  0  0  0  0  0  0  0  0
   22.0367   17.6093   24.0004 H   0  0  0  0  0  0  0  0  0  0  0  0
   20.4948   17.0535   24.6504 H   0  0  0  0  0  0  0  0  0  0  0  0
   20.5297   19.1672   24.1243 C   0  0  0  0  0  0  0  0  0  0  0  0
   21.2430   20.0023   24.1540 H   0  0  0  0  0  0  0  0  0  0  0  0
   19.6887   19.4438   24.7752 H   0  0  0  0  0  0  0  0  0  0  0  0
   20.0189   18.9755   22.6800 C   0  0  0  0  0  0  0  0  0  0  0  0
   20.8587   18.7018   22.0267 H   0  0  0  0  0  0  0  0  0  0  0  0
   19.3056   18.1404   22.6514 H   0  0  0  0  0  0  0  0  0  0  0  0
   19.3398   20.2521   22.1388 C   0  0  0  0  0  0  0  0  0  0  0  0
   20.0528   21.0875   22.1676 H   0  0  0  0  0  0  0  0  0  0  0  0
   18.5000   20.5261   22.7920 H   0  0  0  0  0  0  0  0  0  0  0  0
   18.8285   20.0608   20.6954 C   0  0  0  0  0  0  0  0  0  0  0  0
   19.6663   19.7884   20.0386 H   0  0  0  0  0  0  0  0  0  0  0  0
   18.1134   19.2271   20.6631 H   0  0  0  0  0  0  0  0  0  0  0  0
   18.1511   21.3378   20.1587 C   0  0  0  0  0  0  0  0  0  0  0  0
   18.8538   22.1813   20.1502 H   0  0  0  0  0  0  0  0  0  0  0  0
   17.7938   21.1841   19.1321 H   0  0  0  0  0  0  0  0  0  0  0  0
   17.2893   21.6158   20.7794 H   0  0  0  0  0  0  0  0  0  0  0  0
  1  2  1  0  0  0  0
  1  3  2  0  0  0  0
  1  4  1  0  0  0  0
  4  5  1  0  0  0  0
  4  6  1  0  0  0  0
  4  7  1  0  0  0  0
  7  8  1  0  0  0  0
  7  9  1  0  0  0  0
  7 10  1  0  0  0  0
 10 11  1  0  0  0  0
 10 12  1  0  0  0  0
 10 13  1  0  0  0  0
 13 14  1  0  0  0  0
 13 15  1  0  0  0  0
 13 16  1  0  0  0  0
 16 17  1  0  0  0  0
 16 18  1  0  0  0  0
 16 19  1  0  0  0  0
 19 20  1  0  0  0  0
 19 21  1  0  0  0  0
 19 22  1  0  0  0  0
 22 23  1  0  0  0  0
 22 24  1  0  0  0  0
 22 25  1  0  0  0  0
M  END
> <VConfSearch Rank>
124

> <Conf_Id>
54

> <Delta U+W>
-0.224

> <U+W>
-51.854

> <U>
7.816

> <W>
-59.670

> <W(PB)>
-62.157

> <W(SA)>
2.487

> <Valence>
7.785

> <Coulomb>
-0.713

> <VdW>
0.744

> <VdW6>
-8.515

> <VdW12>
9.259

> <Bond>
0.136

> <Angle>
2.433

> <Pdih>
5.215

> <Idih>
0.000

> <Tether>
0.000

$$$$
VeraChem MOL file


 25 24  0  0  0  0  0  0  0  0999 V2000     
   19.0288   22.5809   25.1215 C   0  0  0  0  0  0  0  0  0  0  0  0
   18.7773   23.3423   24.2082 O   0  5  0  0  0  0  0  0  0  0  0  0
   18.2806   22.3848   26.0590 O   0  0  0  0  0  0  0  0  0  0  0  0
   20.3649   21.8436   25.1014 C   0  0  0  0  0  0  0  0  0  0  0  0
   20.8010   21.9303   26.1036 H   0  0  0  0  0  0  0  0  0  0  0  0
   21.0425   22.3646   24.4142 H   0  0  0  0  0  0  0  0  0  0  0  0
   20.2551   20.3461   24.7126 C   0  0  0  0  0  0  0  0  0  0  0  0
   21.2309   19.8728   24.8785 H   0  0  0  0  0  0  0  0  0  0  0  0
   19.5420   19.8476   25.3837 H   0  0  0  0  0  0  0  0  0  0  0  0
   19.8195   20.1452   23.2410 C   0  0  0  0  0  0  0  0  0  0  0  0
   20.5573   20.6047   22.5692 H   0  0  0  0  0  0  0  0  0  0  0  0
   18.8736   20.6774   23.0707 H   0  0  0  0  0  0  0  0  0  0  0  0
   19.6169   18.6612   22.8516 C   0  0  0  0  0  0  0  0  0  0  0  0
   18.8932   18.1972   23.5355 H   0  0  0  0  0  0  0  0  0  0  0  0
   19.1632   18.6328   21.8529 H   0  0  0  0  0  0  0  0  0  0  0  0
   20.9295   17.8392   22.8421 C   0  0  0  0  0  0  0  0  0  0  0  0
   21.3814   17.8599   23.8418 H   0  0  0  0  0  0  0  0  0  0  0  0
   21.6546   18.3065   22.1620 H   0  0  0  0  0  0  0  0  0  0  0  0
   20.7246   16.3593   22.4418 C   0  0  0  0  0  0  0  0  0  0  0  0
   21.6700   15.8203   22.5936 H   0  0  0  0  0  0  0  0  0  0  0  0
   19.9904   15.8916   23.1123 H   0  0  0  0  0  0  0  0  0  0  0  0
   20.2807   16.1753   20.9742 C   0  0  0  0  0  0  0  0  0  0  0  0
   19.2809   16.5923   20.8014 H   0  0  0  0  0  0  0  0  0  0  0  0
   20.9825   16.6655   20.2869 H   0  0  0  0  0  0  0  0  0  0  0  0
   20.2440   15.1091   20.7155 H   0  0  0  0  0  0  0  0  0  0  0  0
  1  2  1  0  0  0  0
  1  3  2  0  0  0  0
  1  4  1  0  0  0  0
  4  5  1  0  0  0  0
  4  6  1  0  0  0  0
  4  7  1  0  0  0  0
  7  8  1  0  0  0  0
  7  9  1  0  0  0  0
  7 10  1  0  0  0  0
 10 11  1  0  0  0  0
 10 12  1  0  0  0  0
 10 13  1  0  0  0  0
 13 14  1  0  0  0  0
 13 15  1  0  0  0  0
 13 16  1  0  0  0  0
 16 17  1  0  0  0  0
 16 18  1  0  0  0  0
 16 19  1  0  0  0  0
 19 20  1  0  0  0  0
 19 21  1  0  0  0  0
 19 22  1  0  0  0  0
 22 23  1  0  0  0  0
 22 24  1  0  0  0  0
 22 25  1  0  0  0  0
M  END
> <VConfSearch Rank>
125

> <Conf_Id>
101

> <Delta U+W>
1.534

> <U+W>
-50.095

> <U>
9.416

> <W>
-59.512

> <W(PB)>
-61.988

> <W(SA)>
2.476

> <Valence>
8.939

> <Coulomb>
-0.615

> <VdW>
1.092

> <VdW6>
-9.710

> <VdW12>
10.802

> <Bond>
0.216

> <Angle>
2.979

> <Pdih>
5.743

> <Idih>
0.000

> <Tether>
0.000

$$$$
VeraChem MOL file


 25 24  0  0  0  0  0  0  0  0999 V2000     
   20.2407   15.0106   23.4249 C   0  0  0  0  0  0  0  0  0  0  0  0
   19.3976   14.5878   22.6586 O   0  5  0  0  0  0  0  0  0  0  0  0
   21.1878   14.3550   23.8120 O   0  0  0  0  0  0  0  0  0  0  0  0
   20.1158   16.4506   23.9099 C   0  0  0  0  0  0  0  0  0  0  0  0
   20.5330   16.5056   24.9224 H   0  0  0  0  0  0  0  0  0  0  0  0
   19.0480   16.6846   23.9843 H   0  0  0  0  0  0  0  0  0  0  0  0
   20.8355   17.4609   22.9788 C   0  0  0  0  0  0  0  0  0  0  0  0
   21.8779   17.1382   22.8500 H   0  0  0  0  0  0  0  0  0  0  0  0
   20.3769   17.4324   21.9807 H   0  0  0  0  0  0  0  0  0  0  0  0
   20.8306   18.9124   23.5152 C   0  0  0  0  0  0  0  0  0  0  0  0
   21.4791   19.5151   22.8666 H   0  0  0  0  0  0  0  0  0  0  0  0
   21.2805   18.9369   24.5170 H   0  0  0  0  0  0  0  0  0  0  0  0
   19.4190   19.5475   23.5597 C   0  0  0  0  0  0  0  0  0  0  0  0
   18.9696   19.5237   22.5584 H   0  0  0  0  0  0  0  0  0  0  0  0
   18.7661   18.9421   24.2008 H   0  0  0  0  0  0  0  0  0  0  0  0
   19.4097   20.9966   24.1096 C   0  0  0  0  0  0  0  0  0  0  0  0
   19.7817   20.9868   25.1432 H   0  0  0  0  0  0  0  0  0  0  0  0
   18.3688   21.3431   24.1663 H   0  0  0  0  0  0  0  0  0  0  0  0
   20.2320   22.0249   23.2937 C   0  0  0  0  0  0  0  0  0  0  0  0
   20.1496   23.0048   23.7835 H   0  0  0  0  0  0  0  0  0  0  0  0
   21.2982   21.7641   23.3181 H   0  0  0  0  0  0  0  0  0  0  0  0
   19.7622   22.1614   21.8292 C   0  0  0  0  0  0  0  0  0  0  0  0
   18.6916   22.3987   21.7804 H   0  0  0  0  0  0  0  0  0  0  0  0
   20.3110   22.9660   21.3230 H   0  0  0  0  0  0  0  0  0  0  0  0
   19.9366   21.2354   21.2669 H   0  0  0  0  0  0  0  0  0  0  0  0
  1  2  1  0  0  0  0
  1  3  2  0  0  0  0
  1  4  1  0  0  0  0
  4  5  1  0  0  0  0
  4  6  1  0  0  0  0
  4  7  1  0  0  0  0
  7  8  1  0  0  0  0
  7  9  1  0  0  0  0
  7 10  1  0  0  0  0
 10 11  1  0  0  0  0
 10 12  1  0  0  0  0
 10 13  1  0  0  0  0
 13 14  1  0  0  0  0
 13 15  1  0  0  0  0
 13 16  1  0  0  0  0
 16 17  1  0  0  0  0
 16 18  1  0  0  0  0
 16 19  1  0  0  0  0
 19 20  1  0  0  0  0
 19 21  1  0  0  0  0
 19 22  1  0  0  0  0
 22 23  1  0  0  0  0
 22 24  1  0  0  0  0
 22 25  1  0  0  0  0
M  END
> <VConfSearch Rank>
126

> <Conf_Id>
75

> <Delta U+W>
1.014

> <U+W>
-50.615

> <U>
8.474

> <W>
-59.089

> <W(PB)>
-61.530

> <W(SA)>
2.441

> <Valence>
9.080

> <Coulomb>
-1.772

> <VdW>
1.165

> <VdW6>
-9.830

> <VdW12>
10.996

> <Bond>
0.240

> <Angle>
3.225

> <Pdih>
5.615

> <Idih>
0.001

> <Tether>
0.000

$$$$
VeraChem MOL file


 25 24  0  0  0  0  0  0  0  0999 V2000     
   16.6011   18.5704   25.6054 C   0  0  0  0  0  0  0  0  0  0  0  0
   15.7351   19.3157   25.1917 O   0  5  0  0  0  0  0  0  0  0  0  0
   16.3715   17.5265   26.1835 O   0  0  0  0  0  0  0  0  0  0  0  0
   18.0567   18.9560   25.3670 C   0  0  0  0  0  0  0  0  0  0  0  0
   18.6514   18.5772   26.2069 H   0  0  0  0  0  0  0  0  0  0  0  0
   18.1269   20.0502   25.3873 H   0  0  0  0  0  0  0  0  0  0  0  0
   18.6124   18.4094   24.0289 C   0  0  0  0  0  0  0  0  0  0  0  0
   18.5231   17.3142   24.0190 H   0  0  0  0  0  0  0  0  0  0  0  0
   17.9981   18.7872   23.1998 H   0  0  0  0  0  0  0  0  0  0  0  0
   20.0862   18.8144   23.8102 C   0  0  0  0  0  0  0  0  0  0  0  0
   20.6962   18.4350   24.6414 H   0  0  0  0  0  0  0  0  0  0  0  0
   20.1690   19.9075   23.8328 H   0  0  0  0  0  0  0  0  0  0  0  0
   20.6383   18.2610   22.4754 C   0  0  0  0  0  0  0  0  0  0  0  0
   20.5676   17.1651   22.5043 H   0  0  0  0  0  0  0  0  0  0  0  0
   20.0081   18.5863   21.6365 H   0  0  0  0  0  0  0  0  0  0  0  0
   22.1152   18.6511   22.2126 C   0  0  0  0  0  0  0  0  0  0  0  0
   22.6074   17.8062   21.7119 H   0  0  0  0  0  0  0  0  0  0  0  0
   22.6488   18.7861   23.1633 H   0  0  0  0  0  0  0  0  0  0  0  0
   22.3046   19.8987   21.3145 C   0  0  0  0  0  0  0  0  0  0  0  0
   23.3789   20.0341   21.1283 H   0  0  0  0  0  0  0  0  0  0  0  0
   21.8432   19.7195   20.3336 H   0  0  0  0  0  0  0  0  0  0  0  0
   21.7392   21.2023   21.9154 C   0  0  0  0  0  0  0  0  0  0  0  0
   22.1324   21.3737   22.9258 H   0  0  0  0  0  0  0  0  0  0  0  0
   22.0159   22.0633   21.2935 H   0  0  0  0  0  0  0  0  0  0  0  0
   20.6437   21.1712   21.9674 H   0  0  0  0  0  0  0  0  0  0  0  0
  1  2  1  0  0  0  0
  1  3  2  0  0  0  0
  1  4  1  0  0  0  0
  4  5  1  0  0  0  0
  4  6  1  0  0  0  0
  4  7  1  0  0  0  0
  7  8  1  0  0  0  0
  7  9  1  0  0  0  0
  7 10  1  0  0  0  0
 10 11  1  0  0  0  0
 10 12  1  0  0  0  0
 10 13  1  0  0  0  0
 13 14  1  0  0  0  0
 13 15  1  0  0  0  0
 13 16  1  0  0  0  0
 16 17  1  0  0  0  0
 16 18  1  0  0  0  0
 16 19  1  0  0  0  0
 19 20  1  0  0  0  0
 19 21  1  0  0  0  0
 19 22  1  0  0  0  0
 22 23  1  0  0  0  0
 22 24  1  0  0  0  0
 22 25  1  0  0  0  0
M  END
> <VConfSearch Rank>
127

> <Conf_Id>
125

> <Delta U+W>
2.314

> <U+W>
-49.315

> <U>
9.740

> <W>
-59.054

> <W(PB)>
-61.488

> <W(SA)>
2.433

> <Valence>
10.506

> <Coulomb>
-1.761

> <VdW>
0.994

> <VdW6>
-9.209

> <VdW12>
10.203

> <Bond>
0.193

> <Angle>
2.979

> <Pdih>
7.334

> <Idih>
0.001

> <Tether>
0.000

$$$$
VeraChem MOL file


 25 24  0  0  0  0  0  0  0  0999 V2000     
   16.6818   21.3059   23.8599 C   0  0  0  0  0  0  0  0  0  0  0  0
   16.0917   20.7471   24.7634 O   0  5  0  0  0  0  0  0  0  0  0  0
   16.2098   22.2179   23.2103 O   0  0  0  0  0  0  0  0  0  0  0  0
   18.0827   20.8199   23.5058 C   0  0  0  0  0  0  0  0  0  0  0  0
   18.5610   20.4802   24.4313 H   0  0  0  0  0  0  0  0  0  0  0  0
   18.6575   21.6781   23.1378 H   0  0  0  0  0  0  0  0  0  0  0  0
   18.0744   19.6872   22.4464 C   0  0  0  0  0  0  0  0  0  0  0  0
   17.5360   18.8162   22.8449 H   0  0  0  0  0  0  0  0  0  0  0  0
   17.5062   20.0285   21.5700 H   0  0  0  0  0  0  0  0  0  0  0  0
   19.4887   19.2617   21.9850 C   0  0  0  0  0  0  0  0  0  0  0  0
   20.0207   20.1326   21.5783 H   0  0  0  0  0  0  0  0  0  0  0  0
   19.3841   18.5470   21.1572 H   0  0  0  0  0  0  0  0  0  0  0  0
   20.3326   18.6132   23.1068 C   0  0  0  0  0  0  0  0  0  0  0  0
   20.5002   19.3424   23.9086 H   0  0  0  0  0  0  0  0  0  0  0  0
   19.7768   17.7732   23.5451 H   0  0  0  0  0  0  0  0  0  0  0  0
   21.6948   18.1097   22.5758 C   0  0  0  0  0  0  0  0  0  0  0  0
   22.2727   18.9556   22.1792 H   0  0  0  0  0  0  0  0  0  0  0  0
   21.5204   17.4289   21.7315 H   0  0  0  0  0  0  0  0  0  0  0  0
   22.5330   17.3647   23.6409 C   0  0  0  0  0  0  0  0  0  0  0  0
   21.9599   16.5145   24.0360 H   0  0  0  0  0  0  0  0  0  0  0  0
   23.4225   16.9402   23.1553 H   0  0  0  0  0  0  0  0  0  0  0  0
   22.9877   18.2709   24.8056 C   0  0  0  0  0  0  0  0  0  0  0  0
   22.1328   18.6257   25.3947 H   0  0  0  0  0  0  0  0  0  0  0  0
   23.6520   17.7198   25.4838 H   0  0  0  0  0  0  0  0  0  0  0  0
   23.5361   19.1455   24.4322 H   0  0  0  0  0  0  0  0  0  0  0  0
  1  2  1  0  0  0  0
  1  3  2  0  0  0  0
  1  4  1  0  0  0  0
  4  5  1  0  0  0  0
  4  6  1  0  0  0  0
  4  7  1  0  0  0  0
  7  8  1  0  0  0  0
  7  9  1  0  0  0  0
  7 10  1  0  0  0  0
 10 11  1  0  0  0  0
 10 12  1  0  0  0  0
 10 13  1  0  0  0  0
 13 14  1  0  0  0  0
 13 15  1  0  0  0  0
 13 16  1  0  0  0  0
 16 17  1  0  0  0  0
 16 18  1  0  0  0  0
 16 19  1  0  0  0  0
 19 20  1  0  0  0  0
 19 21  1  0  0  0  0
 19 22  1  0  0  0  0
 22 23  1  0  0  0  0
 22 24  1  0  0  0  0
 22 25  1  0  0  0  0
M  END
> <VConfSearch Rank>
128

> <Conf_Id>
4

> <Delta U+W>
0.189

> <U+W>
-51.441

> <U>
7.701

> <W>
-59.141

> <W(PB)>
-61.609

> <W(SA)>
2.467

> <Valence>
8.550

> <Coulomb>
-1.988

> <VdW>
1.139

> <VdW6>
-8.988

> <VdW12>
10.127

> <Bond>
0.191

> <Angle>
2.738

> <Pdih>
5.621

> <Idih>
0.001

> <Tether>
0.000

$$$$
VeraChem MOL file


 25 24  0  0  0  0  0  0  0  0999 V2000     
   16.8781   21.5770   24.3718 C   0  0  0  0  0  0  0  0  0  0  0  0
   15.9005   21.0550   23.8734 O   0  5  0  0  0  0  0  0  0  0  0  0
   16.8211   22.5155   25.1417 O   0  0  0  0  0  0  0  0  0  0  0  0
   18.2508   21.0083   24.0308 C   0  0  0  0  0  0  0  0  0  0  0  0
   18.9758   21.8305   24.0575 H   0  0  0  0  0  0  0  0  0  0  0  0
   18.2121   20.6414   22.9990 H   0  0  0  0  0  0  0  0  0  0  0  0
   18.6882   19.8774   24.9977 C   0  0  0  0  0  0  0  0  0  0  0  0
   18.6246   20.2512   26.0291 H   0  0  0  0  0  0  0  0  0  0  0  0
   17.9801   19.0401   24.9273 H   0  0  0  0  0  0  0  0  0  0  0  0
   20.1269   19.3681   24.7432 C   0  0  0  0  0  0  0  0  0  0  0  0
   20.3915   18.6601   25.5404 H   0  0  0  0  0  0  0  0  0  0  0  0
   20.8335   20.2055   24.8241 H   0  0  0  0  0  0  0  0  0  0  0  0
   20.2997   18.6718   23.3734 C   0  0  0  0  0  0  0  0  0  0  0  0
   19.5588   17.8668   23.2749 H   0  0  0  0  0  0  0  0  0  0  0  0
   20.1038   19.3905   22.5686 H   0  0  0  0  0  0  0  0  0  0  0  0
   21.7217   18.0875   23.2070 C   0  0  0  0  0  0  0  0  0  0  0  0
   21.9344   17.4173   24.0510 H   0  0  0  0  0  0  0  0  0  0  0  0
   22.4625   18.8971   23.2583 H   0  0  0  0  0  0  0  0  0  0  0  0
   21.9115   17.2953   21.8923 C   0  0  0  0  0  0  0  0  0  0  0  0
   22.9010   16.8180   21.9084 H   0  0  0  0  0  0  0  0  0  0  0  0
   21.1753   16.4813   21.8401 H   0  0  0  0  0  0  0  0  0  0  0  0
   21.8046   18.1744   20.6272 C   0  0  0  0  0  0  0  0  0  0  0  0
   22.5101   19.0142   20.6715 H   0  0  0  0  0  0  0  0  0  0  0  0
   22.0360   17.5856   19.7302 H   0  0  0  0  0  0  0  0  0  0  0  0
   20.7926   18.5803   20.5055 H   0  0  0  0  0  0  0  0  0  0  0  0
  1  2  1  0  0  0  0
  1  3  2  0  0  0  0
  1  4  1  0  0  0  0
  4  5  1  0  0  0  0
  4  6  1  0  0  0  0
  4  7  1  0  0  0  0
  7  8  1  0  0  0  0
  7  9  1  0  0  0  0
  7 10  1  0  0  0  0
 10 11  1  0  0  0  0
 10 12  1  0  0  0  0
 10 13  1  0  0  0  0
 13 14  1  0  0  0  0
 13 15  1  0  0  0  0
 13 16  1  0  0  0  0
 16 17  1  0  0  0  0
 16 18  1  0  0  0  0
 16 19  1  0  0  0  0
 19 20  1  0  0  0  0
 19 21  1  0  0  0  0
 19 22  1  0  0  0  0
 22 23  1  0  0  0  0
 22 24  1  0  0  0  0
 22 25  1  0  0  0  0
M  END
> <VConfSearch Rank>
129

> <Conf_Id>
17

> <Delta U+W>
0.219

> <U+W>
-51.411

> <U>
7.701

> <W>
-59.111

> <W(PB)>
-61.599

> <W(SA)>
2.488

> <Valence>
8.550

> <Coulomb>
-1.988

> <VdW>
1.139

> <VdW6>
-8.988

> <VdW12>
10.127

> <Bond>
0.191

> <Angle>
2.738

> <Pdih>
5.621

> <Idih>
0.001

> <Tether>
0.000

$$$$
VeraChem MOL file


 25 24  0  0  0  0  0  0  0  0999 V2000     
   17.1919   21.8855   23.3309 C   0  0  0  0  0  0  0  0  0  0  0  0
   16.3710   21.6382   24.1922 O   0  5  0  0  0  0  0  0  0  0  0  0
   16.9492   21.8517   22.1405 O   0  0  0  0  0  0  0  0  0  0  0  0
   18.6006   22.2791   23.7662 C   0  0  0  0  0  0  0  0  0  0  0  0
   18.5645   22.6090   24.8115 H   0  0  0  0  0  0  0  0  0  0  0  0
   18.8978   23.1492   23.1691 H   0  0  0  0  0  0  0  0  0  0  0  0
   19.6503   21.1505   23.5955 C   0  0  0  0  0  0  0  0  0  0  0  0
   19.6541   20.8244   22.5470 H   0  0  0  0  0  0  0  0  0  0  0  0
   20.6487   21.5569   23.8058 H   0  0  0  0  0  0  0  0  0  0  0  0
   19.3817   19.9462   24.5294 C   0  0  0  0  0  0  0  0  0  0  0  0
   18.4148   19.4882   24.2792 H   0  0  0  0  0  0  0  0  0  0  0  0
   19.2938   20.3085   25.5628 H   0  0  0  0  0  0  0  0  0  0  0  0
   20.4905   18.8683   24.4793 C   0  0  0  0  0  0  0  0  0  0  0  0
   21.4571   19.3221   24.7378 H   0  0  0  0  0  0  0  0  0  0  0  0
   20.2819   18.1188   25.2549 H   0  0  0  0  0  0  0  0  0  0  0  0
   20.5974   18.1578   23.1101 C   0  0  0  0  0  0  0  0  0  0  0  0
   20.8801   18.8806   22.3338 H   0  0  0  0  0  0  0  0  0  0  0  0
   19.6156   17.7528   22.8292 H   0  0  0  0  0  0  0  0  0  0  0  0
   21.6362   17.0169   23.1391 C   0  0  0  0  0  0  0  0  0  0  0  0
   22.6192   17.4186   23.4216 H   0  0  0  0  0  0  0  0  0  0  0  0
   21.3587   16.2820   23.9075 H   0  0  0  0  0  0  0  0  0  0  0  0
   21.7443   16.3118   21.7720 C   0  0  0  0  0  0  0  0  0  0  0  0
   22.0522   17.0175   20.9894 H   0  0  0  0  0  0  0  0  0  0  0  0
   22.4864   15.5038   21.8110 H   0  0  0  0  0  0  0  0  0  0  0  0
   20.7812   15.8737   21.4789 H   0  0  0  0  0  0  0  0  0  0  0  0
  1  2  1  0  0  0  0
  1  3  2  0  0  0  0
  1  4  1  0  0  0  0
  4  5  1  0  0  0  0
  4  6  1  0  0  0  0
  4  7  1  0  0  0  0
  7  8  1  0  0  0  0
  7  9  1  0  0  0  0
  7 10  1  0  0  0  0
 10 11  1  0  0  0  0
 10 12  1  0  0  0  0
 10 13  1  0  0  0  0
 13 14  1  0  0  0  0
 13 15  1  0  0  0  0
 13 16  1  0  0  0  0
 16 17  1  0  0  0  0
 16 18  1  0  0  0  0
 16 19  1  0  0  0  0
 19 20  1  0  0  0  0
 19 21  1  0  0  0  0
 19 22  1  0  0  0  0
 22 23  1  0  0  0  0
 22 24  1  0  0  0  0
 22 25  1  0  0  0  0
M  END
> <VConfSearch Rank>
130

> <Conf_Id>
142

> <Delta U+W>
0.593

> <U+W>
-51.037

> <U>
8.903

> <W>
-59.940

> <W(PB)>
-62.418

> <W(SA)>
2.478

> <Valence>
8.305

> <Coulomb>
-0.223

> <VdW>
0.821

> <VdW6>
-9.236

> <VdW12>
10.057

> <Bond>
0.173

> <Angle>
2.663

> <Pdih>
5.469

> <Idih>
0.001

> <Tether>
0.000

$$$$
VeraChem MOL file


 25 24  0  0  0  0  0  0  0  0999 V2000     
   22.5588   17.5588   21.3102 C   0  0  0  0  0  0  0  0  0  0  0  0
   23.6826   17.0983   21.3600 O   0  5  0  0  0  0  0  0  0  0  0  0
   21.6311   17.0083   20.7503 O   0  0  0  0  0  0  0  0  0  0  0  0
   22.3086   18.9151   21.9634 C   0  0  0  0  0  0  0  0  0  0  0  0
   21.3532   19.3098   21.5991 H   0  0  0  0  0  0  0  0  0  0  0  0
   23.0851   19.5994   21.6024 H   0  0  0  0  0  0  0  0  0  0  0  0
   22.3311   18.8848   23.5161 C   0  0  0  0  0  0  0  0  0  0  0  0
   23.3240   18.5507   23.8472 H   0  0  0  0  0  0  0  0  0  0  0  0
   22.2148   19.9067   23.8995 H   0  0  0  0  0  0  0  0  0  0  0  0
   21.2600   17.9628   24.1544 C   0  0  0  0  0  0  0  0  0  0  0  0
   21.3631   18.0065   25.2471 H   0  0  0  0  0  0  0  0  0  0  0  0
   21.4709   16.9219   23.8732 H   0  0  0  0  0  0  0  0  0  0  0  0
   19.7939   18.2903   23.7754 C   0  0  0  0  0  0  0  0  0  0  0  0
   19.6448   18.1422   22.6975 H   0  0  0  0  0  0  0  0  0  0  0  0
   19.1382   17.5637   24.2742 H   0  0  0  0  0  0  0  0  0  0  0  0
   19.3565   19.7187   24.1743 C   0  0  0  0  0  0  0  0  0  0  0  0
   19.9553   20.4587   23.6277 H   0  0  0  0  0  0  0  0  0  0  0  0
   19.5487   19.8761   25.2443 H   0  0  0  0  0  0  0  0  0  0  0  0
   17.8617   19.9612   23.8773 C   0  0  0  0  0  0  0  0  0  0  0  0
   17.6667   19.8016   22.8077 H   0  0  0  0  0  0  0  0  0  0  0  0
   17.2512   19.2305   24.4257 H   0  0  0  0  0  0  0  0  0  0  0  0
   17.4285   21.3880   24.2700 C   0  0  0  0  0  0  0  0  0  0  0  0
   18.0015   22.1400   23.7118 H   0  0  0  0  0  0  0  0  0  0  0  0
   16.3638   21.5429   24.0522 H   0  0  0  0  0  0  0  0  0  0  0  0
   17.5844   21.5646   25.3423 H   0  0  0  0  0  0  0  0  0  0  0  0
  1  2  1  0  0  0  0
  1  3  2  0  0  0  0
  1  4  1  0  0  0  0
  4  5  1  0  0  0  0
  4  6  1  0  0  0  0
  4  7  1  0  0  0  0
  7  8  1  0  0  0  0
  7  9  1  0  0  0  0
  7 10  1  0  0  0  0
 10 11  1  0  0  0  0
 10 12  1  0  0  0  0
 10 13  1  0  0  0  0
 13 14  1  0  0  0  0
 13 15  1  0  0  0  0
 13 16  1  0  0  0  0
 16 17  1  0  0  0  0
 16 18  1  0  0  0  0
 16 19  1  0  0  0  0
 19 20  1  0  0  0  0
 19 21  1  0  0  0  0
 19 22  1  0  0  0  0
 22 23  1  0  0  0  0
 22 24  1  0  0  0  0
 22 25  1  0  0  0  0
M  END
> <VConfSearch Rank>
131

> <Conf_Id>
135

> <Delta U+W>
1.314

> <U+W>
-50.316

> <U>
9.773

> <W>
-60.088

> <W(PB)>
-62.535

> <W(SA)>
2.447

> <Valence>
8.741

> <Coulomb>
0.479

> <VdW>
0.552

> <VdW6>
-10.627

> <VdW12>
11.179

> <Bond>
0.227

> <Angle>
3.155

> <Pdih>
5.358

> <Idih>
0.001

> <Tether>
0.000

$$$$
VeraChem MOL file


 25 24  0  0  0  0  0  0  0  0999 V2000     
   22.7035   16.0821   22.1531 C   0  0  0  0  0  0  0  0  0  0  0  0
   23.8482   16.4481   21.9730 O   0  5  0  0  0  0  0  0  0  0  0  0
   22.3921   14.9274   22.3683 O   0  0  0  0  0  0  0  0  0  0  0  0
   21.5994   17.1331   22.1304 C   0  0  0  0  0  0  0  0  0  0  0  0
   20.6860   16.6582   21.7529 H   0  0  0  0  0  0  0  0  0  0  0  0
   21.8888   17.9031   21.4068 H   0  0  0  0  0  0  0  0  0  0  0  0
   21.3396   17.7592   23.5255 C   0  0  0  0  0  0  0  0  0  0  0  0
   21.1491   16.9489   24.2427 H   0  0  0  0  0  0  0  0  0  0  0  0
   22.2461   18.2736   23.8732 H   0  0  0  0  0  0  0  0  0  0  0  0
   20.1392   18.7356   23.5546 C   0  0  0  0  0  0  0  0  0  0  0  0
   19.9444   18.9979   24.6021 H   0  0  0  0  0  0  0  0  0  0  0  0
   19.2396   18.2267   23.1829 H   0  0  0  0  0  0  0  0  0  0  0  0
   20.3803   20.0336   22.7473 C   0  0  0  0  0  0  0  0  0  0  0  0
   21.2464   20.5659   23.1635 H   0  0  0  0  0  0  0  0  0  0  0  0
   20.6427   19.7792   21.7130 H   0  0  0  0  0  0  0  0  0  0  0  0
   19.1615   20.9896   22.7035 C   0  0  0  0  0  0  0  0  0  0  0  0
   18.3159   20.4981   22.2033 H   0  0  0  0  0  0  0  0  0  0  0  0
   19.4324   21.8403   22.0633 H   0  0  0  0  0  0  0  0  0  0  0  0
   18.7211   21.5450   24.0812 C   0  0  0  0  0  0  0  0  0  0  0  0
   19.5730   21.5638   24.7749 H   0  0  0  0  0  0  0  0  0  0  0  0
   18.4075   22.5904   23.9550 H   0  0  0  0  0  0  0  0  0  0  0  0
   17.5412   20.7641   24.7019 C   0  0  0  0  0  0  0  0  0  0  0  0
   17.7900   19.7092   24.8639 H   0  0  0  0  0  0  0  0  0  0  0  0
   17.2626   21.1961   25.6718 H   0  0  0  0  0  0  0  0  0  0  0  0
   16.6592   20.8071   24.0497 H   0  0  0  0  0  0  0  0  0  0  0  0
  1  2  1  0  0  0  0
  1  3  2  0  0  0  0
  1  4  1  0  0  0  0
  4  5  1  0  0  0  0
  4  6  1  0  0  0  0
  4  7  1  0  0  0  0
  7  8  1  0  0  0  0
  7  9  1  0  0  0  0
  7 10  1  0  0  0  0
 10 11  1  0  0  0  0
 10 12  1  0  0  0  0
 10 13  1  0  0  0  0
 13 14  1  0  0  0  0
 13 15  1  0  0  0  0
 13 16  1  0  0  0  0
 16 17  1  0  0  0  0
 16 18  1  0  0  0  0
 16 19  1  0  0  0  0
 19 20  1  0  0  0  0
 19 21  1  0  0  0  0
 19 22  1  0  0  0  0
 22 23  1  0  0  0  0
 22 24  1  0  0  0  0
 22 25  1  0  0  0  0
M  END
> <VConfSearch Rank>
132

> <Conf_Id>
19

> <Delta U+W>
3.222

> <U+W>
-48.407

> <U>
10.617

> <W>
-59.025

> <W(PB)>
-61.462

> <W(SA)>
2.437

> <Valence>
11.188

> <Coulomb>
-1.778

> <VdW>
1.208

> <VdW6>
-9.786

> <VdW12>
10.993

> <Bond>
0.241

> <Angle>
3.294

> <Pdih>
7.653

> <Idih>
0.001

> <Tether>
0.000

$$$$
VeraChem MOL file


 25 24  0  0  0  0  0  0  0  0999 V2000     
   23.8940   17.3827   23.1028 C   0  0  0  0  0  0  0  0  0  0  0  0
   23.9282   16.3855   22.4091 O   0  5  0  0  0  0  0  0  0  0  0  0
   24.7214   17.6381   23.9554 O   0  0  0  0  0  0  0  0  0  0  0  0
   22.7364   18.3555   22.9088 C   0  0  0  0  0  0  0  0  0  0  0  0
   22.4626   18.3385   21.8482 H   0  0  0  0  0  0  0  0  0  0  0  0
   23.0994   19.3650   23.1355 H   0  0  0  0  0  0  0  0  0  0  0  0
   21.5122   18.0149   23.7984 C   0  0  0  0  0  0  0  0  0  0  0  0
   21.1268   17.0215   23.5301 H   0  0  0  0  0  0  0  0  0  0  0  0
   21.8470   17.9454   24.8426 H   0  0  0  0  0  0  0  0  0  0  0  0
   20.3732   19.0592   23.7143 C   0  0  0  0  0  0  0  0  0  0  0  0
   20.7663   20.0554   23.9583 H   0  0  0  0  0  0  0  0  0  0  0  0
   19.6336   18.8131   24.4866 H   0  0  0  0  0  0  0  0  0  0  0  0
   19.6696   19.0947   22.3366 C   0  0  0  0  0  0  0  0  0  0  0  0
   20.4124   19.2734   21.5494 H   0  0  0  0  0  0  0  0  0  0  0  0
   19.2285   18.1107   22.1273 H   0  0  0  0  0  0  0  0  0  0  0  0
   18.5763   20.1857   22.2100 C   0  0  0  0  0  0  0  0  0  0  0  0
   18.1912   20.1491   21.1818 H   0  0  0  0  0  0  0  0  0  0  0  0
   19.0244   21.1822   22.3247 H   0  0  0  0  0  0  0  0  0  0  0  0
   17.3785   20.0211   23.1788 C   0  0  0  0  0  0  0  0  0  0  0  0
   16.4582   20.3093   22.6523 H   0  0  0  0  0  0  0  0  0  0  0  0
   17.2537   18.9650   23.4551 H   0  0  0  0  0  0  0  0  0  0  0  0
   17.4976   20.8966   24.4463 C   0  0  0  0  0  0  0  0  0  0  0  0
   17.5434   21.9611   24.1819 H   0  0  0  0  0  0  0  0  0  0  0  0
   16.6265   20.7499   25.0977 H   0  0  0  0  0  0  0  0  0  0  0  0
   18.3950   20.6543   25.0270 H   0  0  0  0  0  0  0  0  0  0  0  0
  1  2  1  0  0  0  0
  1  3  2  0  0  0  0
  1  4  1  0  0  0  0
  4  5  1  0  0  0  0
  4  6  1  0  0  0  0
  4  7  1  0  0  0  0
  7  8  1  0  0  0  0
  7  9  1  0  0  0  0
  7 10  1  0  0  0  0
 10 11  1  0  0  0  0
 10 12  1  0  0  0  0
 10 13  1  0  0  0  0
 13 14  1  0  0  0  0
 13 15  1  0  0  0  0
 13 16  1  0  0  0  0
 16 17  1  0  0  0  0
 16 18  1  0  0  0  0
 16 19  1  0  0  0  0
 19 20  1  0  0  0  0
 19 21  1  0  0  0  0
 19 22  1  0  0  0  0
 22 23  1  0  0  0  0
 22 24  1  0  0  0  0
 22 25  1  0  0  0  0
M  END
> <VConfSearch Rank>
133

> <Conf_Id>
20

> <Delta U+W>
3.224

> <U+W>
-48.406

> <U>
10.617

> <W>
-59.023

> <W(PB)>
-61.467

> <W(SA)>
2.444

> <Valence>
11.188

> <Coulomb>
-1.778

> <VdW>
1.208

> <VdW6>
-9.786

> <VdW12>
10.993

> <Bond>
0.241

> <Angle>
3.294

> <Pdih>
7.653

> <Idih>
0.001

> <Tether>
0.000

$$$$
VeraChem MOL file


 25 24  0  0  0  0  0  0  0  0999 V2000     
   17.3427   17.4983   24.3728 C   0  0  0  0  0  0  0  0  0  0  0  0
   17.7794   16.5261   24.9574 O   0  5  0  0  0  0  0  0  0  0  0  0
   16.9662   17.4730   23.2175 O   0  0  0  0  0  0  0  0  0  0  0  0
   17.1969   18.8059   25.1489 C   0  0  0  0  0  0  0  0  0  0  0  0
   16.4729   18.6104   25.9484 H   0  0  0  0  0  0  0  0  0  0  0  0
   16.7450   19.5607   24.4940 H   0  0  0  0  0  0  0  0  0  0  0  0
   18.5089   19.3541   25.7775 C   0  0  0  0  0  0  0  0  0  0  0  0
   18.2345   20.0491   26.5826 H   0  0  0  0  0  0  0  0  0  0  0  0
   19.0630   18.5370   26.2600 H   0  0  0  0  0  0  0  0  0  0  0  0
   19.4328   20.1137   24.7934 C   0  0  0  0  0  0  0  0  0  0  0  0
   20.2407   20.5800   25.3738 H   0  0  0  0  0  0  0  0  0  0  0  0
   18.8762   20.9360   24.3236 H   0  0  0  0  0  0  0  0  0  0  0  0
   20.0595   19.2194   23.6997 C   0  0  0  0  0  0  0  0  0  0  0  0
   20.5270   18.3407   24.1648 H   0  0  0  0  0  0  0  0  0  0  0  0
   19.2758   18.8487   23.0271 H   0  0  0  0  0  0  0  0  0  0  0  0
   21.1111   19.9860   22.8683 C   0  0  0  0  0  0  0  0  0  0  0  0
   21.9060   20.3552   23.5306 H   0  0  0  0  0  0  0  0  0  0  0  0
   20.6430   20.8669   22.4080 H   0  0  0  0  0  0  0  0  0  0  0  0
   21.7292   19.0972   21.7686 C   0  0  0  0  0  0  0  0  0  0  0  0
   22.1990   18.2154   22.2258 H   0  0  0  0  0  0  0  0  0  0  0  0
   20.9370   18.7273   21.1029 H   0  0  0  0  0  0  0  0  0  0  0  0
   22.7783   19.8654   20.9397 C   0  0  0  0  0  0  0  0  0  0  0  0
   23.5992   20.2200   21.5767 H   0  0  0  0  0  0  0  0  0  0  0  0
   23.2069   19.2187   20.1631 H   0  0  0  0  0  0  0  0  0  0  0  0
   22.3275   20.7358   20.4452 H   0  0  0  0  0  0  0  0  0  0  0  0
  1  2  1  0  0  0  0
  1  3  2  0  0  0  0
  1  4  1  0  0  0  0
  4  5  1  0  0  0  0
  4  6  1  0  0  0  0
  4  7  1  0  0  0  0
  7  8  1  0  0  0  0
  7  9  1  0  0  0  0
  7 10  1  0  0  0  0
 10 11  1  0  0  0  0
 10 12  1  0  0  0  0
 10 13  1  0  0  0  0
 13 14  1  0  0  0  0
 13 15  1  0  0  0  0
 13 16  1  0  0  0  0
 16 17  1  0  0  0  0
 16 18  1  0  0  0  0
 16 19  1  0  0  0  0
 19 20  1  0  0  0  0
 19 21  1  0  0  0  0
 19 22  1  0  0  0  0
 22 23  1  0  0  0  0
 22 24  1  0  0  0  0
 22 25  1  0  0  0  0
M  END
> <VConfSearch Rank>
134

> <Conf_Id>
24

> <Delta U+W>
1.784

> <U+W>
-49.846

> <U>
10.904

> <W>
-60.749

> <W(PB)>
-63.220

> <W(SA)>
2.471

> <Valence>
9.445

> <Coulomb>
0.780

> <VdW>
0.679

> <VdW6>
-10.008

> <VdW12>
10.687

> <Bond>
0.201

> <Angle>
3.198

> <Pdih>
6.039

> <Idih>
0.006

> <Tether>
0.000

$$$$
VeraChem MOL file


 25 24  0  0  0  0  0  0  0  0999 V2000     
   21.8442   19.9901   21.0433 C   0  0  0  0  0  0  0  0  0  0  0  0
   22.3045   18.9891   20.5297 O   0  5  0  0  0  0  0  0  0  0  0  0
   20.8806   20.5867   20.6043 O   0  0  0  0  0  0  0  0  0  0  0  0
   22.5528   20.5685   22.2668 C   0  0  0  0  0  0  0  0  0  0  0  0
   22.0432   21.4907   22.5710 H   0  0  0  0  0  0  0  0  0  0  0  0
   23.5554   20.8596   21.9330 H   0  0  0  0  0  0  0  0  0  0  0  0
   22.6834   19.6010   23.4767 C   0  0  0  0  0  0  0  0  0  0  0  0
   22.9999   18.6076   23.1295 H   0  0  0  0  0  0  0  0  0  0  0  0
   23.4950   19.9689   24.1189 H   0  0  0  0  0  0  0  0  0  0  0  0
   21.4102   19.4774   24.3501 C   0  0  0  0  0  0  0  0  0  0  0  0
   21.1064   20.4721   24.7037 H   0  0  0  0  0  0  0  0  0  0  0  0
   21.6658   18.8961   25.2467 H   0  0  0  0  0  0  0  0  0  0  0  0
   20.2211   18.7939   23.6377 C   0  0  0  0  0  0  0  0  0  0  0  0
   19.8654   19.4273   22.8153 H   0  0  0  0  0  0  0  0  0  0  0  0
   20.5530   17.8455   23.1934 H   0  0  0  0  0  0  0  0  0  0  0  0
   19.0495   18.5290   24.6081 C   0  0  0  0  0  0  0  0  0  0  0  0
   18.7223   19.4778   25.0550 H   0  0  0  0  0  0  0  0  0  0  0  0
   19.3919   17.8882   25.4321 H   0  0  0  0  0  0  0  0  0  0  0  0
   17.8572   17.8571   23.8952 C   0  0  0  0  0  0  0  0  0  0  0  0
   17.5108   18.4962   23.0711 H   0  0  0  0  0  0  0  0  0  0  0  0
   18.1811   16.9072   23.4475 H   0  0  0  0  0  0  0  0  0  0  0  0
   16.6888   17.5942   24.8664 C   0  0  0  0  0  0  0  0  0  0  0  0
   16.3242   18.5322   25.3052 H   0  0  0  0  0  0  0  0  0  0  0  0
   15.8505   17.1165   24.3428 H   0  0  0  0  0  0  0  0  0  0  0  0
   16.9996   16.9311   25.6844 H   0  0  0  0  0  0  0  0  0  0  0  0
  1  2  1  0  0  0  0
  1  3  2  0  0  0  0
  1  4  1  0  0  0  0
  4  5  1  0  0  0  0
  4  6  1  0  0  0  0
  4  7  1  0  0  0  0
  7  8  1  0  0  0  0
  7  9  1  0  0  0  0
  7 10  1  0  0  0  0
 10 11  1  0  0  0  0
 10 12  1  0  0  0  0
 10 13  1  0  0  0  0
 13 14  1  0  0  0  0
 13 15  1  0  0  0  0
 13 16  1  0  0  0  0
 16 17  1  0  0  0  0
 16 18  1  0  0  0  0
 16 19  1  0  0  0  0
 19 20  1  0  0  0  0
 19 21  1  0  0  0  0
 19 22  1  0  0  0  0
 22 23  1  0  0  0  0
 22 24  1  0  0  0  0
 22 25  1  0  0  0  0
M  END
> <VConfSearch Rank>
135

> <Conf_Id>
9

> <Delta U+W>
1.764

> <U+W>
-49.865

> <U>
10.902

> <W>
-60.768

> <W(PB)>
-63.223

> <W(SA)>
2.456

> <Valence>
9.445

> <Coulomb>
0.778

> <VdW>
0.679

> <VdW6>
-10.007

> <VdW12>
10.687

> <Bond>
0.201

> <Angle>
3.198

> <Pdih>
6.040

> <Idih>
0.006

> <Tether>
0.000

$$$$
VeraChem MOL file


 25 24  0  0  0  0  0  0  0  0999 V2000     
   19.0977   17.5319   26.5999 C   0  0  0  0  0  0  0  0  0  0  0  0
   19.7183   16.5298   26.3044 O   0  5  0  0  0  0  0  0  0  0  0  0
   18.7240   17.7840   27.7285 O   0  0  0  0  0  0  0  0  0  0  0  0
   18.7882   18.5386   25.4979 C   0  0  0  0  0  0  0  0  0  0  0  0
   17.8259   19.0096   25.7310 H   0  0  0  0  0  0  0  0  0  0  0  0
   18.6535   17.9826   24.5651 H   0  0  0  0  0  0  0  0  0  0  0  0
   19.8887   19.6225   25.3499 C   0  0  0  0  0  0  0  0  0  0  0  0
   19.9740   20.1501   26.3100 H   0  0  0  0  0  0  0  0  0  0  0  0
   20.8646   19.1493   25.1737 H   0  0  0  0  0  0  0  0  0  0  0  0
   19.5878   20.6611   24.2394 C   0  0  0  0  0  0  0  0  0  0  0  0
   19.9667   21.6368   24.5731 H   0  0  0  0  0  0  0  0  0  0  0  0
   18.5031   20.7877   24.1193 H   0  0  0  0  0  0  0  0  0  0  0  0
   20.2434   20.3516   22.8701 C   0  0  0  0  0  0  0  0  0  0  0  0
   20.0345   21.1891   22.1907 H   0  0  0  0  0  0  0  0  0  0  0  0
   21.3337   20.3189   22.9945 H   0  0  0  0  0  0  0  0  0  0  0  0
   19.7540   19.0391   22.2136 C   0  0  0  0  0  0  0  0  0  0  0  0
   18.6561   19.0145   22.2340 H   0  0  0  0  0  0  0  0  0  0  0  0
   20.1031   18.1786   22.7991 H   0  0  0  0  0  0  0  0  0  0  0  0
   20.2237   18.8753   20.7493 C   0  0  0  0  0  0  0  0  0  0  0  0
   19.7563   17.9750   20.3274 H   0  0  0  0  0  0  0  0  0  0  0  0
   19.8654   19.7219   20.1476 H   0  0  0  0  0  0  0  0  0  0  0  0
   21.7568   18.7523   20.6114 C   0  0  0  0  0  0  0  0  0  0  0  0
   22.1412   17.9272   21.2250 H   0  0  0  0  0  0  0  0  0  0  0  0
   22.0340   18.5554   19.5677 H   0  0  0  0  0  0  0  0  0  0  0  0
   22.2616   19.6759   20.9211 H   0  0  0  0  0  0  0  0  0  0  0  0
  1  2  1  0  0  0  0
  1  3  2  0  0  0  0
  1  4  1  0  0  0  0
  4  5  1  0  0  0  0
  4  6  1  0  0  0  0
  4  7  1  0  0  0  0
  7  8  1  0  0  0  0
  7  9  1  0  0  0  0
  7 10  1  0  0  0  0
 10 11  1  0  0  0  0
 10 12  1  0  0  0  0
 10 13  1  0  0  0  0
 13 14  1  0  0  0  0
 13 15  1  0  0  0  0
 13 16  1  0  0  0  0
 16 17  1  0  0  0  0
 16 18  1  0  0  0  0
 16 19  1  0  0  0  0
 19 20  1  0  0  0  0
 19 21  1  0  0  0  0
 19 22  1  0  0  0  0
 22 23  1  0  0  0  0
 22 24  1  0  0  0  0
 22 25  1  0  0  0  0
M  END
> <VConfSearch Rank>
136

> <Conf_Id>
89

> <Delta U+W>
2.903

> <U+W>
-48.726

> <U>
10.996

> <W>
-59.723

> <W(PB)>
-62.151

> <W(SA)>
2.428

> <Valence>
10.985

> <Coulomb>
-0.995

> <VdW>
1.006

> <VdW6>
-10.062

> <VdW12>
11.069

> <Bond>
0.238

> <Angle>
3.202

> <Pdih>
7.544

> <Idih>
0.001

> <Tether>
0.000

$$$$
VeraChem MOL file


 25 24  0  0  0  0  0  0  0  0999 V2000     
   17.4049   20.7734   22.1395 C   0  0  0  0  0  0  0  0  0  0  0  0
   17.7139   21.8944   22.4934 O   0  5  0  0  0  0  0  0  0  0  0  0
   17.3429   20.4313   20.9747 O   0  0  0  0  0  0  0  0  0  0  0  0
   17.0117   19.7619   23.2144 C   0  0  0  0  0  0  0  0  0  0  0  0
   15.9542   19.5287   23.0446 H   0  0  0  0  0  0  0  0  0  0  0  0
   17.0724   20.2440   24.1976 H   0  0  0  0  0  0  0  0  0  0  0  0
   17.8278   18.4385   23.2113 C   0  0  0  0  0  0  0  0  0  0  0  0
   17.2333   17.6741   23.7296 H   0  0  0  0  0  0  0  0  0  0  0  0
   17.9520   18.0764   22.1812 H   0  0  0  0  0  0  0  0  0  0  0  0
   19.2053   18.5197   23.9155 C   0  0  0  0  0  0  0  0  0  0  0  0
   19.5979   17.4985   23.9957 H   0  0  0  0  0  0  0  0  0  0  0  0
   19.0735   18.8817   24.9441 H   0  0  0  0  0  0  0  0  0  0  0  0
   20.2376   19.4083   23.1798 C   0  0  0  0  0  0  0  0  0  0  0  0
   20.3276   19.0880   22.1328 H   0  0  0  0  0  0  0  0  0  0  0  0
   19.8741   20.4428   23.1593 H   0  0  0  0  0  0  0  0  0  0  0  0
   21.6350   19.4128   23.8451 C   0  0  0  0  0  0  0  0  0  0  0  0
   21.5395   19.7017   24.9007 H   0  0  0  0  0  0  0  0  0  0  0  0
   22.2437   20.1909   23.3647 H   0  0  0  0  0  0  0  0  0  0  0  0
   22.3785   18.0619   23.7370 C   0  0  0  0  0  0  0  0  0  0  0  0
   21.8310   17.2817   24.2812 H   0  0  0  0  0  0  0  0  0  0  0  0
   22.4243   17.7474   22.6852 H   0  0  0  0  0  0  0  0  0  0  0  0
   23.8090   18.1573   24.3051 C   0  0  0  0  0  0  0  0  0  0  0  0
   23.7921   18.4445   25.3646 H   0  0  0  0  0  0  0  0  0  0  0  0
   24.3226   17.1905   24.2241 H   0  0  0  0  0  0  0  0  0  0  0  0
   24.4010   18.9021   23.7572 H   0  0  0  0  0  0  0  0  0  0  0  0
  1  2  1  0  0  0  0
  1  3  2  0  0  0  0
  1  4  1  0  0  0  0
  4  5  1  0  0  0  0
  4  6  1  0  0  0  0
  4  7  1  0  0  0  0
  7  8  1  0  0  0  0
  7  9  1  0  0  0  0
  7 10  1  0  0  0  0
 10 11  1  0  0  0  0
 10 12  1  0  0  0  0
 10 13  1  0  0  0  0
 13 14  1  0  0  0  0
 13 15  1  0  0  0  0
 13 16  1  0  0  0  0
 16 17  1  0  0  0  0
 16 18  1  0  0  0  0
 16 19  1  0  0  0  0
 19 20  1  0  0  0  0
 19 21  1  0  0  0  0
 19 22  1  0  0  0  0
 22 23  1  0  0  0  0
 22 24  1  0  0  0  0
 22 25  1  0  0  0  0
M  END
> <VConfSearch Rank>
137

> <Conf_Id>
114

> <Delta U+W>
2.758

> <U+W>
-48.871

> <U>
11.422

> <W>
-60.293

> <W(PB)>
-62.719

> <W(SA)>
2.425

> <Valence>
10.135

> <Coulomb>
0.369

> <VdW>
0.918

> <VdW6>
-10.482

> <VdW12>
11.400

> <Bond>
0.245

> <Angle>
3.539

> <Pdih>
6.346

> <Idih>
0.006

> <Tether>
0.000

$$$$
VeraChem MOL file


 25 24  0  0  0  0  0  0  0  0999 V2000     
   18.2070   16.0046   22.3258 C   0  0  0  0  0  0  0  0  0  0  0  0
   18.4682   15.1456   23.1449 O   0  5  0  0  0  0  0  0  0  0  0  0
   17.0884   16.4440   22.1449 O   0  0  0  0  0  0  0  0  0  0  0  0
   19.3412   16.5482   21.4613 C   0  0  0  0  0  0  0  0  0  0  0  0
   18.9782   16.5832   20.4274 H   0  0  0  0  0  0  0  0  0  0  0  0
   20.1713   15.8319   21.4822 H   0  0  0  0  0  0  0  0  0  0  0  0
   19.8359   17.9557   21.8848 C   0  0  0  0  0  0  0  0  0  0  0  0
   20.5539   18.3209   21.1382 H   0  0  0  0  0  0  0  0  0  0  0  0
   18.9847   18.6490   21.8732 H   0  0  0  0  0  0  0  0  0  0  0  0
   20.5063   17.9522   23.2797 C   0  0  0  0  0  0  0  0  0  0  0  0
   21.2921   17.1847   23.2944 H   0  0  0  0  0  0  0  0  0  0  0  0
   19.7746   17.6595   24.0454 H   0  0  0  0  0  0  0  0  0  0  0  0
   21.1407   19.3100   23.6653 C   0  0  0  0  0  0  0  0  0  0  0  0
   21.7109   19.1663   24.5917 H   0  0  0  0  0  0  0  0  0  0  0  0
   21.8658   19.6092   22.8964 H   0  0  0  0  0  0  0  0  0  0  0  0
   20.1013   20.4393   23.8720 C   0  0  0  0  0  0  0  0  0  0  0  0
   19.3743   20.1380   24.6384 H   0  0  0  0  0  0  0  0  0  0  0  0
   19.5332   20.5873   22.9449 H   0  0  0  0  0  0  0  0  0  0  0  0
   20.7358   21.7941   24.2649 C   0  0  0  0  0  0  0  0  0  0  0  0
   21.4722   22.0931   23.5061 H   0  0  0  0  0  0  0  0  0  0  0  0
   19.9524   22.5644   24.2566 H   0  0  0  0  0  0  0  0  0  0  0  0
   21.4008   21.7800   25.6586 C   0  0  0  0  0  0  0  0  0  0  0  0
   21.7483   22.7859   25.9278 H   0  0  0  0  0  0  0  0  0  0  0  0
   20.6917   21.4503   26.4291 H   0  0  0  0  0  0  0  0  0  0  0  0
   22.2707   21.1120   25.6821 H   0  0  0  0  0  0  0  0  0  0  0  0
  1  2  1  0  0  0  0
  1  3  2  0  0  0  0
  1  4  1  0  0  0  0
  4  5  1  0  0  0  0
  4  6  1  0  0  0  0
  4  7  1  0  0  0  0
  7  8  1  0  0  0  0
  7  9  1  0  0  0  0
  7 10  1  0  0  0  0
 10 11  1  0  0  0  0
 10 12  1  0  0  0  0
 10 13  1  0  0  0  0
 13 14  1  0  0  0  0
 13 15  1  0  0  0  0
 13 16  1  0  0  0  0
 16 17  1  0  0  0  0
 16 18  1  0  0  0  0
 16 19  1  0  0  0  0
 19 20  1  0  0  0  0
 19 21  1  0  0  0  0
 19 22  1  0  0  0  0
 22 23  1  0  0  0  0
 22 24  1  0  0  0  0
 22 25  1  0  0  0  0
M  END
> <VConfSearch Rank>
138

> <Conf_Id>
87

> <Delta U+W>
1.453

> <U+W>
-50.176

> <U>
9.763

> <W>
-59.940

> <W(PB)>
-62.392

> <W(SA)>
2.452

> <Valence>
8.883

> <Coulomb>
-0.122

> <VdW>
1.003

> <VdW6>
-9.782

> <VdW12>
10.785

> <Bond>
0.212

> <Angle>
2.940

> <Pdih>
5.730

> <Idih>
0.001

> <Tether>
0.000

$$$$
VeraChem MOL file


 25 24  0  0  0  0  0  0  0  0999 V2000     
   17.1642   20.5519   25.6107 C   0  0  0  0  0  0  0  0  0  0  0  0
   17.6754   21.5595   26.0578 O   0  5  0  0  0  0  0  0  0  0  0  0
   15.9754   20.4442   25.3826 O   0  0  0  0  0  0  0  0  0  0  0  0
   18.0669   19.3629   25.3014 C   0  0  0  0  0  0  0  0  0  0  0  0
   17.4922   18.4450   25.4737 H   0  0  0  0  0  0  0  0  0  0  0  0
   18.8947   19.3674   26.0207 H   0  0  0  0  0  0  0  0  0  0  0  0
   18.6174   19.3863   23.8542 C   0  0  0  0  0  0  0  0  0  0  0  0
   17.7776   19.3901   23.1457 H   0  0  0  0  0  0  0  0  0  0  0  0
   19.1711   20.3219   23.7001 H   0  0  0  0  0  0  0  0  0  0  0  0
   19.5345   18.1745   23.5697 C   0  0  0  0  0  0  0  0  0  0  0  0
   18.9858   17.2501   23.7959 H   0  0  0  0  0  0  0  0  0  0  0  0
   20.3954   18.1918   24.2508 H   0  0  0  0  0  0  0  0  0  0  0  0
   20.0249   18.1036   22.1018 C   0  0  0  0  0  0  0  0  0  0  0  0
   20.6171   17.1886   21.9696 H   0  0  0  0  0  0  0  0  0  0  0  0
   19.1537   17.9910   21.4424 H   0  0  0  0  0  0  0  0  0  0  0  0
   20.8549   19.3233   21.6206 C   0  0  0  0  0  0  0  0  0  0  0  0
   20.2125   20.2132   21.5964 H   0  0  0  0  0  0  0  0  0  0  0  0
   21.1600   19.1500   20.5798 H   0  0  0  0  0  0  0  0  0  0  0  0
   22.1154   19.6371   22.4637 C   0  0  0  0  0  0  0  0  0  0  0  0
   22.6031   20.5285   22.0460 H   0  0  0  0  0  0  0  0  0  0  0  0
   21.8274   19.9013   23.4899 H   0  0  0  0  0  0  0  0  0  0  0  0
   23.1357   18.4786   22.4902 C   0  0  0  0  0  0  0  0  0  0  0  0
   23.4253   18.1870   21.4723 H   0  0  0  0  0  0  0  0  0  0  0  0
   24.0442   18.7787   23.0281 H   0  0  0  0  0  0  0  0  0  0  0  0
   22.7243   17.5968   22.9974 H   0  0  0  0  0  0  0  0  0  0  0  0
  1  2  1  0  0  0  0
  1  3  2  0  0  0  0
  1  4  1  0  0  0  0
  4  5  1  0  0  0  0
  4  6  1  0  0  0  0
  4  7  1  0  0  0  0
  7  8  1  0  0  0  0
  7  9  1  0  0  0  0
  7 10  1  0  0  0  0
 10 11  1  0  0  0  0
 10 12  1  0  0  0  0
 10 13  1  0  0  0  0
 13 14  1  0  0  0  0
 13 15  1  0  0  0  0
 13 16  1  0  0  0  0
 16 17  1  0  0  0  0
 16 18  1  0  0  0  0
 16 19  1  0  0  0  0
 19 20  1  0  0  0  0
 19 21  1  0  0  0  0
 19 22  1  0  0  0  0
 22 23  1  0  0  0  0
 22 24  1  0  0  0  0
 22 25  1  0  0  0  0
M  END
> <VConfSearch Rank>
139

> <Conf_Id>
29

> <Delta U+W>
0.850

> <U+W>
-50.780

> <U>
8.646

> <W>
-59.426

> <W(PB)>
-61.868

> <W(SA)>
2.442

> <Valence>
8.924

> <Coulomb>
-1.171

> <VdW>
0.894

> <VdW6>
-10.223

> <VdW12>
11.117

> <Bond>
0.231

> <Angle>
3.232

> <Pdih>
5.461

> <Idih>
0.001

> <Tether>
0.000

$$$$
VeraChem MOL file


 25 24  0  0  0  0  0  0  0  0999 V2000     
   16.5141   17.5104   24.2349 C   0  0  0  0  0  0  0  0  0  0  0  0
   16.6001   17.3840   25.4405 O   0  5  0  0  0  0  0  0  0  0  0  0
   15.8988   16.7443   23.5199 O   0  0  0  0  0  0  0  0  0  0  0  0
   17.2337   18.6845   23.5810 C   0  0  0  0  0  0  0  0  0  0  0  0
   17.2351   19.5210   24.2901 H   0  0  0  0  0  0  0  0  0  0  0  0
   16.6486   18.9994   22.7086 H   0  0  0  0  0  0  0  0  0  0  0  0
   18.6832   18.3413   23.1578 C   0  0  0  0  0  0  0  0  0  0  0  0
   19.2425   18.0103   24.0430 H   0  0  0  0  0  0  0  0  0  0  0  0
   18.6666   17.4972   22.4548 H   0  0  0  0  0  0  0  0  0  0  0  0
   19.3917   19.5504   22.5047 C   0  0  0  0  0  0  0  0  0  0  0  0
   19.4445   20.3814   23.2204 H   0  0  0  0  0  0  0  0  0  0  0  0
   18.7826   19.9104   21.6645 H   0  0  0  0  0  0  0  0  0  0  0  0
   20.8094   19.2213   21.9735 C   0  0  0  0  0  0  0  0  0  0  0  0
   20.7252   18.4552   21.1908 H   0  0  0  0  0  0  0  0  0  0  0  0
   21.2167   20.1108   21.4753 H   0  0  0  0  0  0  0  0  0  0  0  0
   21.8196   18.7270   23.0427 C   0  0  0  0  0  0  0  0  0  0  0  0
   22.7863   18.5466   22.5534 H   0  0  0  0  0  0  0  0  0  0  0  0
   21.4949   17.7507   23.4255 H   0  0  0  0  0  0  0  0  0  0  0  0
   22.0376   19.6874   24.2378 C   0  0  0  0  0  0  0  0  0  0  0  0
   21.1010   19.8133   24.7970 H   0  0  0  0  0  0  0  0  0  0  0  0
   22.7478   19.2228   24.9354 H   0  0  0  0  0  0  0  0  0  0  0  0
   22.5844   21.0691   23.8184 C   0  0  0  0  0  0  0  0  0  0  0  0
   21.8577   21.6155   23.2041 H   0  0  0  0  0  0  0  0  0  0  0  0
   22.8001   21.6818   24.7031 H   0  0  0  0  0  0  0  0  0  0  0  0
   23.5135   20.9656   23.2430 H   0  0  0  0  0  0  0  0  0  0  0  0
  1  2  1  0  0  0  0
  1  3  2  0  0  0  0
  1  4  1  0  0  0  0
  4  5  1  0  0  0  0
  4  6  1  0  0  0  0
  4  7  1  0  0  0  0
  7  8  1  0  0  0  0
  7  9  1  0  0  0  0
  7 10  1  0  0  0  0
 10 11  1  0  0  0  0
 10 12  1  0  0  0  0
 10 13  1  0  0  0  0
 13 14  1  0  0  0  0
 13 15  1  0  0  0  0
 13 16  1  0  0  0  0
 16 17  1  0  0  0  0
 16 18  1  0  0  0  0
 16 19  1  0  0  0  0
 19 20  1  0  0  0  0
 19 21  1  0  0  0  0
 19 22  1  0  0  0  0
 22 23  1  0  0  0  0
 22 24  1  0  0  0  0
 22 25  1  0  0  0  0
M  END
> <VConfSearch Rank>
140

> <Conf_Id>
30

> <Delta U+W>
0.843

> <U+W>
-50.787

> <U>
8.647

> <W>
-59.434

> <W(PB)>
-61.861

> <W(SA)>
2.428

> <Valence>
8.924

> <Coulomb>
-1.170

> <VdW>
0.894

> <VdW6>
-10.224

> <VdW12>
11.118

> <Bond>
0.231

> <Angle>
3.232

> <Pdih>
5.460

> <Idih>
0.000

> <Tether>
0.000

$$$$
VeraChem MOL file


 25 24  0  0  0  0  0  0  0  0999 V2000     
   23.2098   22.3276   21.5980 C   0  0  0  0  0  0  0  0  0  0  0  0
   23.3090   21.8113   20.5016 O   0  5  0  0  0  0  0  0  0  0  0  0
   23.8306   23.3202   21.9229 O   0  0  0  0  0  0  0  0  0  0  0  0
   22.2674   21.7219   22.6393 C   0  0  0  0  0  0  0  0  0  0  0  0
   21.5558   22.5035   22.9301 H   0  0  0  0  0  0  0  0  0  0  0  0
   22.8675   21.4878   23.5265 H   0  0  0  0  0  0  0  0  0  0  0  0
   21.4968   20.4561   22.1782 C   0  0  0  0  0  0  0  0  0  0  0  0
   20.9028   20.6961   21.2855 H   0  0  0  0  0  0  0  0  0  0  0  0
   22.2156   19.6794   21.8824 H   0  0  0  0  0  0  0  0  0  0  0  0
   20.5708   19.9116   23.2875 C   0  0  0  0  0  0  0  0  0  0  0  0
   19.8531   20.6897   23.5817 H   0  0  0  0  0  0  0  0  0  0  0  0
   21.1668   19.6724   24.1790 H   0  0  0  0  0  0  0  0  0  0  0  0
   19.8053   18.6525   22.8267 C   0  0  0  0  0  0  0  0  0  0  0  0
   19.2092   18.8914   21.9353 H   0  0  0  0  0  0  0  0  0  0  0  0
   20.5227   17.8742   22.5325 H   0  0  0  0  0  0  0  0  0  0  0  0
   18.8791   18.1075   23.9354 C   0  0  0  0  0  0  0  0  0  0  0  0
   18.1616   18.8857   24.2297 H   0  0  0  0  0  0  0  0  0  0  0  0
   19.4750   17.8685   24.8269 H   0  0  0  0  0  0  0  0  0  0  0  0
   18.1139   16.8491   23.4749 C   0  0  0  0  0  0  0  0  0  0  0  0
   17.5150   17.0848   22.5842 H   0  0  0  0  0  0  0  0  0  0  0  0
   18.8285   16.0676   23.1814 H   0  0  0  0  0  0  0  0  0  0  0  0
   17.1902   16.3079   24.5847 C   0  0  0  0  0  0  0  0  0  0  0  0
   16.4442   17.0590   24.8758 H   0  0  0  0  0  0  0  0  0  0  0  0
   16.6543   15.4139   24.2403 H   0  0  0  0  0  0  0  0  0  0  0  0
   17.7675   16.0341   25.4775 H   0  0  0  0  0  0  0  0  0  0  0  0
  1  2  1  0  0  0  0
  1  3  2  0  0  0  0
  1  4  1  0  0  0  0
  4  5  1  0  0  0  0
  4  6  1  0  0  0  0
  4  7  1  0  0  0  0
  7  8  1  0  0  0  0
  7  9  1  0  0  0  0
  7 10  1  0  0  0  0
 10 11  1  0  0  0  0
 10 12  1  0  0  0  0
 10 13  1  0  0  0  0
 13 14  1  0  0  0  0
 13 15  1  0  0  0  0
 13 16  1  0  0  0  0
 16 17  1  0  0  0  0
 16 18  1  0  0  0  0
 16 19  1  0  0  0  0
 19 20  1  0  0  0  0
 19 21  1  0  0  0  0
 19 22  1  0  0  0  0
 22 23  1  0  0  0  0
 22 24  1  0  0  0  0
 22 25  1  0  0  0  0
M  END
> <VConfSearch Rank>
141

> <Conf_Id>
0

> <Delta U+W>
0.000

> <U+W>
-51.629

> <U>
6.586

> <W>
-58.216

> <W(PB)>
-60.757

> <W(SA)>
2.541

> <Valence>
8.027

> <Coulomb>
-2.892

> <VdW>
1.451

> <VdW6>
-7.931

> <VdW12>
9.383

> <Bond>
0.149

> <Angle>
2.726

> <Pdih>
5.152

> <Idih>
0.000

> <Tether>
0.000

$$$$
VeraChem MOL file


 25 24  0  0  0  0  0  0  0  0999 V2000     
   19.2606   23.5983   21.9993 C   0  0  0  0  0  0  0  0  0  0  0  0
   19.9228   24.4109   22.6139 O   0  5  0  0  0  0  0  0  0  0  0  0
   18.8883   23.7608   20.8541 O   0  0  0  0  0  0  0  0  0  0  0  0
   18.8960   22.2923   22.6961 C   0  0  0  0  0  0  0  0  0  0  0  0
   17.9214   21.9637   22.3155 H   0  0  0  0  0  0  0  0  0  0  0  0
   18.7733   22.4997   23.7659 H   0  0  0  0  0  0  0  0  0  0  0  0
   19.9547   21.1821   22.4846 C   0  0  0  0  0  0  0  0  0  0  0  0
   20.0751   20.9958   21.4083 H   0  0  0  0  0  0  0  0  0  0  0  0
   20.9270   21.5318   22.8585 H   0  0  0  0  0  0  0  0  0  0  0  0
   19.5631   19.8706   23.1993 C   0  0  0  0  0  0  0  0  0  0  0  0
   18.5903   19.5243   22.8242 H   0  0  0  0  0  0  0  0  0  0  0  0
   19.4422   20.0605   24.2747 H   0  0  0  0  0  0  0  0  0  0  0  0
   20.6204   18.7658   22.9869 C   0  0  0  0  0  0  0  0  0  0  0  0
   20.7414   18.5757   21.9116 H   0  0  0  0  0  0  0  0  0  0  0  0
   21.5933   19.1120   23.3620 H   0  0  0  0  0  0  0  0  0  0  0  0
   20.2295   17.4541   23.7014 C   0  0  0  0  0  0  0  0  0  0  0  0
   19.2567   17.1076   23.3264 H   0  0  0  0  0  0  0  0  0  0  0  0
   20.1084   17.6439   24.7768 H   0  0  0  0  0  0  0  0  0  0  0  0
   21.2863   16.3497   23.4893 C   0  0  0  0  0  0  0  0  0  0  0  0
   21.4088   16.1558   22.4146 H   0  0  0  0  0  0  0  0  0  0  0  0
   22.2605   16.6921   23.8650 H   0  0  0  0  0  0  0  0  0  0  0  0
   20.8923   15.0416   24.2043 C   0  0  0  0  0  0  0  0  0  0  0  0
   21.6542   14.2679   24.0429 H   0  0  0  0  0  0  0  0  0  0  0  0
   20.7937   15.1997   25.2862 H   0  0  0  0  0  0  0  0  0  0  0  0
   19.9356   14.6594   23.8249 H   0  0  0  0  0  0  0  0  0  0  0  0
  1  2  1  0  0  0  0
  1  3  2  0  0  0  0
  1  4  1  0  0  0  0
  4  5  1  0  0  0  0
  4  6  1  0  0  0  0
  4  7  1  0  0  0  0
  7  8  1  0  0  0  0
  7  9  1  0  0  0  0
  7 10  1  0  0  0  0
 10 11  1  0  0  0  0
 10 12  1  0  0  0  0
 10 13  1  0  0  0  0
 13 14  1  0  0  0  0
 13 15  1  0  0  0  0
 13 16  1  0  0  0  0
 16 17  1  0  0  0  0
 16 18  1  0  0  0  0
 16 19  1  0  0  0  0
 19 20  1  0  0  0  0
 19 21  1  0  0  0  0
 19 22  1  0  0  0  0
 22 23  1  0  0  0  0
 22 24  1  0  0  0  0
 22 25  1  0  0  0  0
M  END
> <VConfSearch Rank>
142

> <Conf_Id>
27

> <Delta U+W>
-1.297

> <U+W>
-52.926

> <U>
5.617

> <W>
-58.543

> <W(PB)>
-61.065

> <W(SA)>
2.522

> <Valence>
7.531

> <Coulomb>
-2.818

> <VdW>
0.904

> <VdW6>
-7.640

> <VdW12>
8.544

> <Bond>
0.115

> <Angle>
2.271

> <Pdih>
5.144

> <Idih>
0.001

> <Tether>
0.000

$$$$
VeraChem MOL file


 25 24  0  0  0  0  0  0  0  0999 V2000     
   18.3741   17.8204   19.9964 C   0  0  0  0  0  0  0  0  0  0  0  0
   19.1210   17.2890   19.1984 O   0  5  0  0  0  0  0  0  0  0  0  0
   17.4928   17.2299   20.5893 O   0  0  0  0  0  0  0  0  0  0  0  0
   18.5434   19.3150   20.2540 C   0  0  0  0  0  0  0  0  0  0  0  0
   17.6196   19.6997   20.7028 H   0  0  0  0  0  0  0  0  0  0  0  0
   18.6512   19.8055   19.2795 H   0  0  0  0  0  0  0  0  0  0  0  0
   19.7604   19.6666   21.1486 C   0  0  0  0  0  0  0  0  0  0  0  0
   20.6737   19.2510   20.7004 H   0  0  0  0  0  0  0  0  0  0  0  0
   19.8857   20.7577   21.1671 H   0  0  0  0  0  0  0  0  0  0  0  0
   19.6043   19.1470   22.5954 C   0  0  0  0  0  0  0  0  0  0  0  0
   19.4959   18.0536   22.5865 H   0  0  0  0  0  0  0  0  0  0  0  0
   18.6832   19.5545   23.0343 H   0  0  0  0  0  0  0  0  0  0  0  0
   20.8115   19.5356   23.4759 C   0  0  0  0  0  0  0  0  0  0  0  0
   21.7321   19.1277   23.0363 H   0  0  0  0  0  0  0  0  0  0  0  0
   20.9200   20.6288   23.4888 H   0  0  0  0  0  0  0  0  0  0  0  0
   20.6566   19.0160   24.9216 C   0  0  0  0  0  0  0  0  0  0  0  0
   20.5480   17.9228   24.9089 H   0  0  0  0  0  0  0  0  0  0  0  0
   19.7359   19.4235   25.3613 H   0  0  0  0  0  0  0  0  0  0  0  0
   21.8633   19.4036   25.8019 C   0  0  0  0  0  0  0  0  0  0  0  0
   22.7860   18.9961   25.3659 H   0  0  0  0  0  0  0  0  0  0  0  0
   21.9738   20.4968   25.8185 H   0  0  0  0  0  0  0  0  0  0  0  0
   21.7047   18.8828   27.2445 C   0  0  0  0  0  0  0  0  0  0  0  0
   21.6236   17.7880   27.2602 H   0  0  0  0  0  0  0  0  0  0  0  0
   22.5709   19.1672   27.8560 H   0  0  0  0  0  0  0  0  0  0  0  0
   20.8053   19.3000   27.7161 H   0  0  0  0  0  0  0  0  0  0  0  0
  1  2  1  0  0  0  0
  1  3  2  0  0  0  0
  1  4  1  0  0  0  0
  4  5  1  0  0  0  0
  4  6  1  0  0  0  0
  4  7  1  0  0  0  0
  7  8  1  0  0  0  0
  7  9  1  0  0  0  0
  7 10  1  0  0  0  0
 10 11  1  0  0  0  0
 10 12  1  0  0  0  0
 10 13  1  0  0  0  0
 13 14  1  0  0  0  0
 13 15  1  0  0  0  0
 13 16  1  0  0  0  0
 16 17  1  0  0  0  0
 16 18  1  0  0  0  0
 16 19  1  0  0  0  0
 19 20  1  0  0  0  0
 19 21  1  0  0  0  0
 19 22  1  0  0  0  0
 22 23  1  0  0  0  0
 22 24  1  0  0  0  0
 22 25  1  0  0  0  0
M  END
> <VConfSearch Rank>
143

> <Conf_Id>
37

> <Delta U+W>
-0.230

> <U+W>
-51.860

> <U>
7.816

> <W>
-59.675

> <W(PB)>
-62.180

> <W(SA)>
2.505

> <Valence>
7.785

> <Coulomb>
-0.713

> <VdW>
0.744

> <VdW6>
-8.514

> <VdW12>
9.259

> <Bond>
0.136

> <Angle>
2.433

> <Pdih>
5.216

> <Idih>
0.000

> <Tether>
0.000

$$$$
VeraChem MOL file


 25 24  0  0  0  0  0  0  0  0999 V2000     
   22.7027   19.3196   26.3116 C   0  0  0  0  0  0  0  0  0  0  0  0
   22.2959   18.8117   27.3380 O   0  5  0  0  0  0  0  0  0  0  0  0
   22.9726   20.4999   26.2060 O   0  0  0  0  0  0  0  0  0  0  0  0
   22.9000   18.4209   25.0941 C   0  0  0  0  0  0  0  0  0  0  0  0
   23.4190   17.5171   25.4345 H   0  0  0  0  0  0  0  0  0  0  0  0
   23.5720   18.9271   24.3906 H   0  0  0  0  0  0  0  0  0  0  0  0
   21.5802   18.0239   24.3831 C   0  0  0  0  0  0  0  0  0  0  0  0
   21.8025   17.2739   23.6120 H   0  0  0  0  0  0  0  0  0  0  0  0
   20.9072   17.5435   25.1069 H   0  0  0  0  0  0  0  0  0  0  0  0
   20.8706   19.2313   23.7300 C   0  0  0  0  0  0  0  0  0  0  0  0
   21.5520   19.7160   23.0174 H   0  0  0  0  0  0  0  0  0  0  0  0
   20.6293   19.9789   24.4983 H   0  0  0  0  0  0  0  0  0  0  0  0
   19.5767   18.8085   23.0015 C   0  0  0  0  0  0  0  0  0  0  0  0
   19.8161   18.0631   22.2307 H   0  0  0  0  0  0  0  0  0  0  0  0
   18.8960   18.3241   23.7149 H   0  0  0  0  0  0  0  0  0  0  0  0
   18.8668   20.0145   22.3493 C   0  0  0  0  0  0  0  0  0  0  0  0
   19.5475   20.4994   21.6360 H   0  0  0  0  0  0  0  0  0  0  0  0
   18.6275   20.7602   23.1199 H   0  0  0  0  0  0  0  0  0  0  0  0
   17.5731   19.5926   21.6214 C   0  0  0  0  0  0  0  0  0  0  0  0
   17.8089   18.8480   20.8485 H   0  0  0  0  0  0  0  0  0  0  0  0
   16.8890   19.1089   22.3324 H   0  0  0  0  0  0  0  0  0  0  0  0
   16.8673   20.7997   20.9716 C   0  0  0  0  0  0  0  0  0  0  0  0
   17.5183   21.2840   20.2321 H   0  0  0  0  0  0  0  0  0  0  0  0
   15.9501   20.4817   20.4590 H   0  0  0  0  0  0  0  0  0  0  0  0
   16.5915   21.5470   21.7272 H   0  0  0  0  0  0  0  0  0  0  0  0
  1  2  1  0  0  0  0
  1  3  2  0  0  0  0
  1  4  1  0  0  0  0
  4  5  1  0  0  0  0
  4  6  1  0  0  0  0
  4  7  1  0  0  0  0
  7  8  1  0  0  0  0
  7  9  1  0  0  0  0
  7 10  1  0  0  0  0
 10 11  1  0  0  0  0
 10 12  1  0  0  0  0
 10 13  1  0  0  0  0
 13 14  1  0  0  0  0
 13 15  1  0  0  0  0
 13 16  1  0  0  0  0
 16 17  1  0  0  0  0
 16 18  1  0  0  0  0
 16 19  1  0  0  0  0
 19 20  1  0  0  0  0
 19 21  1  0  0  0  0
 19 22  1  0  0  0  0
 22 23  1  0  0  0  0
 22 24  1  0  0  0  0
 22 25  1  0  0  0  0
M  END
> <VConfSearch Rank>
144

> <Conf_Id>
54

> <Delta U+W>
-0.224

> <U+W>
-51.854

> <U>
7.816

> <W>
-59.670

> <W(PB)>
-62.157

> <W(SA)>
2.487

> <Valence>
7.785

> <Coulomb>
-0.713

> <VdW>
0.744

> <VdW6>
-8.515

> <VdW12>
9.259

> <Bond>
0.136

> <Angle>
2.433

> <Pdih>
5.215

> <Idih>
0.000

> <Tether>
0.000

$$$$
VeraChem MOL file


 25 24  0  0  0  0  0  0  0  0999 V2000     
   23.0052   21.3530   21.5153 C   0  0  0  0  0  0  0  0  0  0  0  0
   23.6942   20.5500   20.9174 O   0  5  0  0  0  0  0  0  0  0  0  0
   22.5476   22.3573   21.0064 O   0  0  0  0  0  0  0  0  0  0  0  0
   22.7128   21.0977   22.9913 C   0  0  0  0  0  0  0  0  0  0  0  0
   22.8828   22.0398   23.5258 H   0  0  0  0  0  0  0  0  0  0  0  0
   23.4465   20.3783   23.3748 H   0  0  0  0  0  0  0  0  0  0  0  0
   21.2726   20.5955   23.2730 C   0  0  0  0  0  0  0  0  0  0  0  0
   21.1128   20.5931   24.3585 H   0  0  0  0  0  0  0  0  0  0  0  0
   20.5501   21.3054   22.8471 H   0  0  0  0  0  0  0  0  0  0  0  0
   21.0156   19.1795   22.7033 C   0  0  0  0  0  0  0  0  0  0  0  0
   21.7085   18.4622   23.1639 H   0  0  0  0  0  0  0  0  0  0  0  0
   21.2407   19.1788   21.6280 H   0  0  0  0  0  0  0  0  0  0  0  0
   19.5599   18.6897   22.8933 C   0  0  0  0  0  0  0  0  0  0  0  0
   18.8665   19.4167   22.4490 H   0  0  0  0  0  0  0  0  0  0  0  0
   19.4398   17.7584   22.3255 H   0  0  0  0  0  0  0  0  0  0  0  0
   19.1792   18.4404   24.3737 C   0  0  0  0  0  0  0  0  0  0  0  0
   19.2914   19.3721   24.9422 H   0  0  0  0  0  0  0  0  0  0  0  0
   19.8761   17.7173   24.8189 H   0  0  0  0  0  0  0  0  0  0  0  0
   17.7272   17.9405   24.5588 C   0  0  0  0  0  0  0  0  0  0  0  0
   17.4964   17.9223   25.6329 H   0  0  0  0  0  0  0  0  0  0  0  0
   17.0277   18.6552   24.1037 H   0  0  0  0  0  0  0  0  0  0  0  0
   17.4835   16.5310   23.9767 C   0  0  0  0  0  0  0  0  0  0  0  0
   17.5828   16.5246   22.8842 H   0  0  0  0  0  0  0  0  0  0  0  0
   18.1954   15.8058   24.3921 H   0  0  0  0  0  0  0  0  0  0  0  0
   16.4701   16.1861   24.2192 H   0  0  0  0  0  0  0  0  0  0  0  0
  1  2  1  0  0  0  0
  1  3  2  0  0  0  0
  1  4  1  0  0  0  0
  4  5  1  0  0  0  0
  4  6  1  0  0  0  0
  4  7  1  0  0  0  0
  7  8  1  0  0  0  0
  7  9  1  0  0  0  0
  7 10  1  0  0  0  0
 10 11  1  0  0  0  0
 10 12  1  0  0  0  0
 10 13  1  0  0  0  0
 13 14  1  0  0  0  0
 13 15  1  0  0  0  0
 13 16  1  0  0  0  0
 16 17  1  0  0  0  0
 16 18  1  0  0  0  0
 16 19  1  0  0  0  0
 19 20  1  0  0  0  0
 19 21  1  0  0  0  0
 19 22  1  0  0  0  0
 22 23  1  0  0  0  0
 22 24  1  0  0  0  0
 22 25  1  0  0  0  0
M  END
> <VConfSearch Rank>
145

> <Conf_Id>
101

> <Delta U+W>
1.534

> <U+W>
-50.095

> <U>
9.416

> <W>
-59.512

> <W(PB)>
-61.988

> <W(SA)>
2.476

> <Valence>
8.939

> <Coulomb>
-0.615

> <VdW>
1.092

> <VdW6>
-9.710

> <VdW12>
10.802

> <Bond>
0.216

> <Angle>
2.979

> <Pdih>
5.743

> <Idih>
0.000

> <Tether>
0.000

$$$$
VeraChem MOL file


 25 24  0  0  0  0  0  0  0  0999 V2000     
   22.4680   21.2974   26.0078 C   0  0  0  0  0  0  0  0  0  0  0  0
   21.7194   21.8812   26.7664 O   0  5  0  0  0  0  0  0  0  0  0  0
   23.6290   21.0487   26.2666 O   0  0  0  0  0  0  0  0  0  0  0  0
   21.9139   20.8311   24.6662 C   0  0  0  0  0  0  0  0  0  0  0  0
   22.7296   20.8572   23.9340 H   0  0  0  0  0  0  0  0  0  0  0  0
   21.1638   21.5620   24.3445 H   0  0  0  0  0  0  0  0  0  0  0  0
   21.3002   19.4083   24.7333 C   0  0  0  0  0  0  0  0  0  0  0  0
   22.0496   18.7224   25.1521 H   0  0  0  0  0  0  0  0  0  0  0  0
   20.4530   19.4057   25.4329 H   0  0  0  0  0  0  0  0  0  0  0  0
   20.8450   18.8626   23.3587 C   0  0  0  0  0  0  0  0  0  0  0  0
   20.5630   17.8100   23.4890 H   0  0  0  0  0  0  0  0  0  0  0  0
   21.6911   18.8752   22.6582 H   0  0  0  0  0  0  0  0  0  0  0  0
   19.6516   19.6408   22.7520 C   0  0  0  0  0  0  0  0  0  0  0  0
   18.8058   19.6275   23.4516 H   0  0  0  0  0  0  0  0  0  0  0  0
   19.9280   20.6953   22.6286 H   0  0  0  0  0  0  0  0  0  0  0  0
   19.2026   19.1048   21.3687 C   0  0  0  0  0  0  0  0  0  0  0  0
   20.0361   19.2070   20.6605 H   0  0  0  0  0  0  0  0  0  0  0  0
   18.4002   19.7503   20.9865 H   0  0  0  0  0  0  0  0  0  0  0  0
   18.7102   17.6362   21.3503 C   0  0  0  0  0  0  0  0  0  0  0  0
   18.4268   17.3763   20.3211 H   0  0  0  0  0  0  0  0  0  0  0  0
   19.5303   16.9571   21.6180 H   0  0  0  0  0  0  0  0  0  0  0  0
   17.5010   17.3838   22.2766 C   0  0  0  0  0  0  0  0  0  0  0  0
   16.6765   18.0695   22.0421 H   0  0  0  0  0  0  0  0  0  0  0  0
   17.1324   16.3569   22.1561 H   0  0  0  0  0  0  0  0  0  0  0  0
   17.7723   17.5180   23.3313 H   0  0  0  0  0  0  0  0  0  0  0  0
  1  2  1  0  0  0  0
  1  3  2  0  0  0  0
  1  4  1  0  0  0  0
  4  5  1  0  0  0  0
  4  6  1  0  0  0  0
  4  7  1  0  0  0  0
  7  8  1  0  0  0  0
  7  9  1  0  0  0  0
  7 10  1  0  0  0  0
 10 11  1  0  0  0  0
 10 12  1  0  0  0  0
 10 13  1  0  0  0  0
 13 14  1  0  0  0  0
 13 15  1  0  0  0  0
 13 16  1  0  0  0  0
 16 17  1  0  0  0  0
 16 18  1  0  0  0  0
 16 19  1  0  0  0  0
 19 20  1  0  0  0  0
 19 21  1  0  0  0  0
 19 22  1  0  0  0  0
 22 23  1  0  0  0  0
 22 24  1  0  0  0  0
 22 25  1  0  0  0  0
M  END
> <VConfSearch Rank>
146

> <Conf_Id>
75

> <Delta U+W>
1.014

> <U+W>
-50.615

> <U>
8.474

> <W>
-59.089

> <W(PB)>
-61.530

> <W(SA)>
2.441

> <Valence>
9.080

> <Coulomb>
-1.772

> <VdW>
1.165

> <VdW6>
-9.830

> <VdW12>
10.996

> <Bond>
0.240

> <Angle>
3.225

> <Pdih>
5.615

> <Idih>
0.001

> <Tether>
0.000

$$$$
VeraChem MOL file


 25 24  0  0  0  0  0  0  0  0999 V2000     
   24.0156   20.7620   23.1417 C   0  0  0  0  0  0  0  0  0  0  0  0
   24.3391   21.0768   24.2699 O   0  5  0  0  0  0  0  0  0  0  0  0
   24.8103   20.4686   22.2705 O   0  0  0  0  0  0  0  0  0  0  0  0
   22.5292   20.7116   22.8067 C   0  0  0  0  0  0  0  0  0  0  0  0
   22.4085   20.9827   21.7509 H   0  0  0  0  0  0  0  0  0  0  0  0
   22.0202   21.4812   23.3993 H   0  0  0  0  0  0  0  0  0  0  0  0
   21.8981   19.3238   23.0779 C   0  0  0  0  0  0  0  0  0  0  0  0
   22.4269   18.5627   22.4874 H   0  0  0  0  0  0  0  0  0  0  0  0
   22.0391   19.0617   24.1357 H   0  0  0  0  0  0  0  0  0  0  0  0
   20.3934   19.2990   22.7325 C   0  0  0  0  0  0  0  0  0  0  0  0
   20.2573   19.5619   21.6746 H   0  0  0  0  0  0  0  0  0  0  0  0
   19.8747   20.0682   23.3169 H   0  0  0  0  0  0  0  0  0  0  0  0
   19.7691   17.9091   22.9995 C   0  0  0  0  0  0  0  0  0  0  0  0
   20.2931   17.1732   22.3743 H   0  0  0  0  0  0  0  0  0  0  0  0
   19.9430   17.6052   24.0407 H   0  0  0  0  0  0  0  0  0  0  0  0
   18.2555   17.8424   22.6723 C   0  0  0  0  0  0  0  0  0  0  0  0
   18.0391   16.8475   22.2596 H   0  0  0  0  0  0  0  0  0  0  0  0
   18.0059   18.5564   21.8757 H   0  0  0  0  0  0  0  0  0  0  0  0
   17.3210   18.0547   23.8890 C   0  0  0  0  0  0  0  0  0  0  0  0
   16.2829   17.9064   23.5611 H   0  0  0  0  0  0  0  0  0  0  0  0
   17.5180   17.2811   24.6440 H   0  0  0  0  0  0  0  0  0  0  0  0
   17.4387   19.4479   24.5414 C   0  0  0  0  0  0  0  0  0  0  0  0
   17.3121   20.2441   23.7964 H   0  0  0  0  0  0  0  0  0  0  0  0
   16.6667   19.5779   25.3108 H   0  0  0  0  0  0  0  0  0  0  0  0
   18.4139   19.5759   25.0274 H   0  0  0  0  0  0  0  0  0  0  0  0
  1  2  1  0  0  0  0
  1  3  2  0  0  0  0
  1  4  1  0  0  0  0
  4  5  1  0  0  0  0
  4  6  1  0  0  0  0
  4  7  1  0  0  0  0
  7  8  1  0  0  0  0
  7  9  1  0  0  0  0
  7 10  1  0  0  0  0
 10 11  1  0  0  0  0
 10 12  1  0  0  0  0
 10 13  1  0  0  0  0
 13 14  1  0  0  0  0
 13 15  1  0  0  0  0
 13 16  1  0  0  0  0
 16 17  1  0  0  0  0
 16 18  1  0  0  0  0
 16 19  1  0  0  0  0
 19 20  1  0  0  0  0
 19 21  1  0  0  0  0
 19 22  1  0  0  0  0
 22 23  1  0  0  0  0
 22 24  1  0  0  0  0
 22 25  1  0  0  0  0
M  END
> <VConfSearch Rank>
147

> <Conf_Id>
125

> <Delta U+W>
2.314

> <U+W>
-49.315

> <U>
9.740

> <W>
-59.054

> <W(PB)>
-61.488

> <W(SA)>
2.433

> <Valence>
10.506

> <Coulomb>
-1.761

> <VdW>
0.994

> <VdW6>
-9.209

> <VdW12>
10.203

> <Bond>
0.193

> <Angle>
2.979

> <Pdih>
7.334

> <Idih>
0.001

> <Tether>
0.000

$$$$
VeraChem MOL file


 25 24  0  0  0  0  0  0  0  0999 V2000     
   17.1064   16.3616   23.3315 C   0  0  0  0  0  0  0  0  0  0  0  0
   16.9336   16.0877   24.5028 O   0  5  0  0  0  0  0  0  0  0  0  0
   16.5666   15.7726   22.4158 O   0  0  0  0  0  0  0  0  0  0  0  0
   18.0723   17.4907   22.9909 C   0  0  0  0  0  0  0  0  0  0  0  0
   18.0074   18.2369   23.7907 H   0  0  0  0  0  0  0  0  0  0  0  0
   17.7232   17.9702   22.0686 H   0  0  0  0  0  0  0  0  0  0  0  0
   19.5329   16.9987   22.8186 C   0  0  0  0  0  0  0  0  0  0  0  0
   19.8870   16.5628   23.7631 H   0  0  0  0  0  0  0  0  0  0  0  0
   19.5464   16.1868   22.0782 H   0  0  0  0  0  0  0  0  0  0  0  0
   20.5084   18.1071   22.3562 C   0  0  0  0  0  0  0  0  0  0  0  0
   20.1569   18.5342   21.4070 H   0  0  0  0  0  0  0  0  0  0  0  0
   21.4841   17.6472   22.1477 H   0  0  0  0  0  0  0  0  0  0  0  0
   20.6956   19.2353   23.3970 C   0  0  0  0  0  0  0  0  0  0  0  0
   19.7391   19.7458   23.5615 H   0  0  0  0  0  0  0  0  0  0  0  0
   20.9992   18.8005   24.3590 H   0  0  0  0  0  0  0  0  0  0  0  0
   21.7556   20.2634   22.9380 C   0  0  0  0  0  0  0  0  0  0  0  0
   21.4321   20.7343   21.9997 H   0  0  0  0  0  0  0  0  0  0  0  0
   22.6927   19.7356   22.7142 H   0  0  0  0  0  0  0  0  0  0  0  0
   22.0488   21.3570   23.9915 C   0  0  0  0  0  0  0  0  0  0  0  0
   22.3779   20.8895   24.9299 H   0  0  0  0  0  0  0  0  0  0  0  0
   22.8898   21.9696   23.6386 H   0  0  0  0  0  0  0  0  0  0  0  0
   20.8423   22.2808   24.2667 C   0  0  0  0  0  0  0  0  0  0  0  0
   20.0145   21.7313   24.7319 H   0  0  0  0  0  0  0  0  0  0  0  0
   21.1277   23.0915   24.9495 H   0  0  0  0  0  0  0  0  0  0  0  0
   20.4754   22.7353   23.3372 H   0  0  0  0  0  0  0  0  0  0  0  0
  1  2  1  0  0  0  0
  1  3  2  0  0  0  0
  1  4  1  0  0  0  0
  4  5  1  0  0  0  0
  4  6  1  0  0  0  0
  4  7  1  0  0  0  0
  7  8  1  0  0  0  0
  7  9  1  0  0  0  0
  7 10  1  0  0  0  0
 10 11  1  0  0  0  0
 10 12  1  0  0  0  0
 10 13  1  0  0  0  0
 13 14  1  0  0  0  0
 13 15  1  0  0  0  0
 13 16  1  0  0  0  0
 16 17  1  0  0  0  0
 16 18  1  0  0  0  0
 16 19  1  0  0  0  0
 19 20  1  0  0  0  0
 19 21  1  0  0  0  0
 19 22  1  0  0  0  0
 22 23  1  0  0  0  0
 22 24  1  0  0  0  0
 22 25  1  0  0  0  0
M  END
> <VConfSearch Rank>
148

> <Conf_Id>
4

> <Delta U+W>
0.189

> <U+W>
-51.441

> <U>
7.701

> <W>
-59.141

> <W(PB)>
-61.609

> <W(SA)>
2.467

> <Valence>
8.550

> <Coulomb>
-1.988

> <VdW>
1.139

> <VdW6>
-8.988

> <VdW12>
10.127

> <Bond>
0.191

> <Angle>
2.738

> <Pdih>
5.621

> <Idih>
0.001

> <Tether>
0.000

$$$$
VeraChem MOL file


 25 24  0  0  0  0  0  0  0  0999 V2000     
   23.5064   20.5622   24.9857 C   0  0  0  0  0  0  0  0  0  0  0  0
   24.3008   19.6511   24.8613 O   0  5  0  0  0  0  0  0  0  0  0  0
   23.8065   21.6654   25.3977 O   0  0  0  0  0  0  0  0  0  0  0  0
   22.0578   20.3150   24.5802 C   0  0  0  0  0  0  0  0  0  0  0  0
   21.4155   20.9311   25.2207 H   0  0  0  0  0  0  0  0  0  0  0  0
   21.8255   19.2665   24.7982 H   0  0  0  0  0  0  0  0  0  0  0  0
   21.7901   20.6357   23.0867 C   0  0  0  0  0  0  0  0  0  0  0  0
   22.1219   21.6631   22.8819 H   0  0  0  0  0  0  0  0  0  0  0  0
   22.4047   19.9798   22.4547 H   0  0  0  0  0  0  0  0  0  0  0  0
   20.3020   20.5060   22.6834 C   0  0  0  0  0  0  0  0  0  0  0  0
   20.1891   20.8629   21.6505 H   0  0  0  0  0  0  0  0  0  0  0  0
   19.6915   21.1704   23.3102 H   0  0  0  0  0  0  0  0  0  0  0  0
   19.7627   19.0599   22.7784 C   0  0  0  0  0  0  0  0  0  0  0  0
   20.4043   18.3896   22.1906 H   0  0  0  0  0  0  0  0  0  0  0  0
   19.8079   18.7186   23.8196 H   0  0  0  0  0  0  0  0  0  0  0  0
   18.3068   18.9604   22.2668 C   0  0  0  0  0  0  0  0  0  0  0  0
   18.2579   19.3629   21.2458 H   0  0  0  0  0  0  0  0  0  0  0  0
   17.6542   19.5942   22.8827 H   0  0  0  0  0  0  0  0  0  0  0  0
   17.7579   17.5146   22.2503 C   0  0  0  0  0  0  0  0  0  0  0  0
   16.7716   17.5178   21.7661 H   0  0  0  0  0  0  0  0  0  0  0  0
   18.4054   16.8789   21.6308 H   0  0  0  0  0  0  0  0  0  0  0  0
   17.6177   16.8971   23.6587 C   0  0  0  0  0  0  0  0  0  0  0  0
   16.9997   17.5322   24.3066 H   0  0  0  0  0  0  0  0  0  0  0  0
   17.1413   15.9100   23.5993 H   0  0  0  0  0  0  0  0  0  0  0  0
   18.5959   16.7648   24.1376 H   0  0  0  0  0  0  0  0  0  0  0  0
  1  2  1  0  0  0  0
  1  3  2  0  0  0  0
  1  4  1  0  0  0  0
  4  5  1  0  0  0  0
  4  6  1  0  0  0  0
  4  7  1  0  0  0  0
  7  8  1  0  0  0  0
  7  9  1  0  0  0  0
  7 10  1  0  0  0  0
 10 11  1  0  0  0  0
 10 12  1  0  0  0  0
 10 13  1  0  0  0  0
 13 14  1  0  0  0  0
 13 15  1  0  0  0  0
 13 16  1  0  0  0  0
 16 17  1  0  0  0  0
 16 18  1  0  0  0  0
 16 19  1  0  0  0  0
 19 20  1  0  0  0  0
 19 21  1  0  0  0  0
 19 22  1  0  0  0  0
 22 23  1  0  0  0  0
 22 24  1  0  0  0  0
 22 25  1  0  0  0  0
M  END
> <VConfSearch Rank>
149

> <Conf_Id>
17

> <Delta U+W>
0.219

> <U+W>
-51.411

> <U>
7.701

> <W>
-59.111

> <W(PB)>
-61.599

> <W(SA)>
2.488

> <Valence>
8.550

> <Coulomb>
-1.988

> <VdW>
1.139

> <VdW6>
-8.988

> <VdW12>
10.127

> <Bond>
0.191

> <Angle>
2.738

> <Pdih>
5.621

> <Idih>
0.001

> <Tether>
0.000

$$$$
VeraChem MOL file


 25 24  0  0  0  0  0  0  0  0999 V2000     
   21.6926   16.1336   22.2957 C   0  0  0  0  0  0  0  0  0  0  0  0
   22.7463   15.9923   22.8844 O   0  5  0  0  0  0  0  0  0  0  0  0
   21.6096   16.2937   21.0938 O   0  0  0  0  0  0  0  0  0  0  0  0
   20.4000   16.0885   23.1056 C   0  0  0  0  0  0  0  0  0  0  0  0
   20.6039   15.5937   24.0629 H   0  0  0  0  0  0  0  0  0  0  0  0
   19.6940   15.4494   22.5622 H   0  0  0  0  0  0  0  0  0  0  0  0
   19.7596   17.4802   23.3465 C   0  0  0  0  0  0  0  0  0  0  0  0
   19.5830   17.9628   22.3761 H   0  0  0  0  0  0  0  0  0  0  0  0
   18.7768   17.3441   23.8175 H   0  0  0  0  0  0  0  0  0  0  0  0
   20.6352   18.3873   24.2438 C   0  0  0  0  0  0  0  0  0  0  0  0
   21.5952   18.5876   23.7483 H   0  0  0  0  0  0  0  0  0  0  0  0
   20.8727   17.8491   25.1716 H   0  0  0  0  0  0  0  0  0  0  0  0
   19.9566   19.7277   24.6133 C   0  0  0  0  0  0  0  0  0  0  0  0
   19.0005   19.5299   25.1169 H   0  0  0  0  0  0  0  0  0  0  0  0
   20.5907   20.2484   25.3439 H   0  0  0  0  0  0  0  0  0  0  0  0
   19.7241   20.6558   23.3985 C   0  0  0  0  0  0  0  0  0  0  0  0
   19.0310   20.1815   22.6918 H   0  0  0  0  0  0  0  0  0  0  0  0
   20.6727   20.8070   22.8654 H   0  0  0  0  0  0  0  0  0  0  0  0
   19.1504   22.0229   23.8269 C   0  0  0  0  0  0  0  0  0  0  0  0
   18.2022   21.8750   24.3622 H   0  0  0  0  0  0  0  0  0  0  0  0
   19.8405   22.5114   24.5286 H   0  0  0  0  0  0  0  0  0  0  0  0
   18.9156   22.9458   22.6141 C   0  0  0  0  0  0  0  0  0  0  0  0
   18.2033   22.4959   21.9101 H   0  0  0  0  0  0  0  0  0  0  0  0
   18.5083   23.9128   22.9368 H   0  0  0  0  0  0  0  0  0  0  0  0
   19.8544   23.1356   22.0774 H   0  0  0  0  0  0  0  0  0  0  0  0
  1  2  1  0  0  0  0
  1  3  2  0  0  0  0
  1  4  1  0  0  0  0
  4  5  1  0  0  0  0
  4  6  1  0  0  0  0
  4  7  1  0  0  0  0
  7  8  1  0  0  0  0
  7  9  1  0  0  0  0
  7 10  1  0  0  0  0
 10 11  1  0  0  0  0
 10 12  1  0  0  0  0
 10 13  1  0  0  0  0
 13 14  1  0  0  0  0
 13 15  1  0  0  0  0
 13 16  1  0  0  0  0
 16 17  1  0  0  0  0
 16 18  1  0  0  0  0
 16 19  1  0  0  0  0
 19 20  1  0  0  0  0
 19 21  1  0  0  0  0
 19 22  1  0  0  0  0
 22 23  1  0  0  0  0
 22 24  1  0  0  0  0
 22 25  1  0  0  0  0
M  END
> <VConfSearch Rank>
150

> <Conf_Id>
142

> <Delta U+W>
0.593

> <U+W>
-51.037

> <U>
8.903

> <W>
-59.940

> <W(PB)>
-62.418

> <W(SA)>
2.478

> <Valence>
8.305

> <Coulomb>
-0.223

> <VdW>
0.821

> <VdW6>
-9.236

> <VdW12>
10.057

> <Bond>
0.173

> <Angle>
2.663

> <Pdih>
5.469

> <Idih>
0.001

> <Tether>
0.000

$$$$
VeraChem MOL file


 25 24  0  0  0  0  0  0  0  0999 V2000     
   22.7029   20.4909   21.2634 C   0  0  0  0  0  0  0  0  0  0  0  0
   23.6796   20.1160   20.6445 O   0  5  0  0  0  0  0  0  0  0  0  0
   21.8677   21.2469   20.8072 O   0  0  0  0  0  0  0  0  0  0  0  0
   22.5333   20.0063   22.7005 C   0  0  0  0  0  0  0  0  0  0  0  0
   21.7856   20.6349   23.1974 H   0  0  0  0  0  0  0  0  0  0  0  0
   23.4826   20.1841   23.2190 H   0  0  0  0  0  0  0  0  0  0  0  0
   22.1538   18.5052   22.8226 C   0  0  0  0  0  0  0  0  0  0  0  0
   22.9562   17.9019   22.3761 H   0  0  0  0  0  0  0  0  0  0  0  0
   22.1224   18.2253   23.8835 H   0  0  0  0  0  0  0  0  0  0  0  0
   20.8125   18.1262   22.1430 C   0  0  0  0  0  0  0  0  0  0  0  0
   20.6397   17.0500   22.2796 H   0  0  0  0  0  0  0  0  0  0  0  0
   20.9045   18.2813   21.0592 H   0  0  0  0  0  0  0  0  0  0  0  0
   19.5710   18.9019   22.6501 C   0  0  0  0  0  0  0  0  0  0  0  0
   19.6782   19.9703   22.4192 H   0  0  0  0  0  0  0  0  0  0  0  0
   18.6943   18.5569   22.0854 H   0  0  0  0  0  0  0  0  0  0  0  0
   19.3005   18.7161   24.1611 C   0  0  0  0  0  0  0  0  0  0  0  0
   20.1377   19.1232   24.7429 H   0  0  0  0  0  0  0  0  0  0  0  0
   19.2380   17.6444   24.3938 H   0  0  0  0  0  0  0  0  0  0  0  0
   17.9962   19.4159   24.5973 C   0  0  0  0  0  0  0  0  0  0  0  0
   18.0556   20.4879   24.3630 H   0  0  0  0  0  0  0  0  0  0  0  0
   17.1491   19.0107   24.0267 H   0  0  0  0  0  0  0  0  0  0  0  0
   17.7311   19.2349   26.1055 C   0  0  0  0  0  0  0  0  0  0  0  0
   18.5487   19.6606   26.7018 H   0  0  0  0  0  0  0  0  0  0  0  0
   16.8004   19.7383   26.3980 H   0  0  0  0  0  0  0  0  0  0  0  0
   17.6367   18.1717   26.3627 H   0  0  0  0  0  0  0  0  0  0  0  0
  1  2  1  0  0  0  0
  1  3  2  0  0  0  0
  1  4  1  0  0  0  0
  4  5  1  0  0  0  0
  4  6  1  0  0  0  0
  4  7  1  0  0  0  0
  7  8  1  0  0  0  0
  7  9  1  0  0  0  0
  7 10  1  0  0  0  0
 10 11  1  0  0  0  0
 10 12  1  0  0  0  0
 10 13  1  0  0  0  0
 13 14  1  0  0  0  0
 13 15  1  0  0  0  0
 13 16  1  0  0  0  0
 16 17  1  0  0  0  0
 16 18  1  0  0  0  0
 16 19  1  0  0  0  0
 19 20  1  0  0  0  0
 19 21  1  0  0  0  0
 19 22  1  0  0  0  0
 22 23  1  0  0  0  0
 22 24  1  0  0  0  0
 22 25  1  0  0  0  0
M  END
> <VConfSearch Rank>
151

> <Conf_Id>
135

> <Delta U+W>
1.314

> <U+W>
-50.316

> <U>
9.773

> <W>
-60.088

> <W(PB)>
-62.535

> <W(SA)>
2.447

> <Valence>
8.741

> <Coulomb>
0.479

> <VdW>
0.552

> <VdW6>
-10.627

> <VdW12>
11.179

> <Bond>
0.227

> <Angle>
3.155

> <Pdih>
5.358

> <Idih>
0.001

> <Tether>
0.000

$$$$
VeraChem MOL file


 25 24  0  0  0  0  0  0  0  0999 V2000     
   24.0395   20.5850   22.7543 C   0  0  0  0  0  0  0  0  0  0  0  0
   24.1074   21.6748   22.2211 O   0  5  0  0  0  0  0  0  0  0  0  0
   24.9393   20.1000   23.4115 O   0  0  0  0  0  0  0  0  0  0  0  0
   22.7455   19.7919   22.6098 C   0  0  0  0  0  0  0  0  0  0  0  0
   22.9981   18.7249   22.6204 H   0  0  0  0  0  0  0  0  0  0  0  0
   22.3264   20.0173   21.6230 H   0  0  0  0  0  0  0  0  0  0  0  0
   21.7198   20.1102   23.7288 C   0  0  0  0  0  0  0  0  0  0  0  0
   22.2080   19.9654   24.7025 H   0  0  0  0  0  0  0  0  0  0  0  0
   21.4371   21.1708   23.6789 H   0  0  0  0  0  0  0  0  0  0  0  0
   20.4503   19.2266   23.6778 C   0  0  0  0  0  0  0  0  0  0  0  0
   19.8698   19.4188   24.5889 H   0  0  0  0  0  0  0  0  0  0  0  0
   20.7365   18.1664   23.7024 H   0  0  0  0  0  0  0  0  0  0  0  0
   19.5569   19.5014   22.4445 C   0  0  0  0  0  0  0  0  0  0  0  0
   19.2270   20.5490   22.4598 H   0  0  0  0  0  0  0  0  0  0  0  0
   20.1475   19.3774   21.5284 H   0  0  0  0  0  0  0  0  0  0  0  0
   18.3198   18.5742   22.3375 C   0  0  0  0  0  0  0  0  0  0  0  0
   18.6413   17.5295   22.2270 H   0  0  0  0  0  0  0  0  0  0  0  0
   17.7989   18.8257   21.4035 H   0  0  0  0  0  0  0  0  0  0  0  0
   17.3075   18.7039   23.5031 C   0  0  0  0  0  0  0  0  0  0  0  0
   17.3674   19.7056   23.9507 H   0  0  0  0  0  0  0  0  0  0  0  0
   16.2905   18.6114   23.0976 H   0  0  0  0  0  0  0  0  0  0  0  0
   17.4891   17.6197   24.5888 C   0  0  0  0  0  0  0  0  0  0  0  0
   18.4851   17.6607   25.0442 H   0  0  0  0  0  0  0  0  0  0  0  0
   16.7487   17.7494   25.3888 H   0  0  0  0  0  0  0  0  0  0  0  0
   17.3524   16.6165   24.1646 H   0  0  0  0  0  0  0  0  0  0  0  0
  1  2  1  0  0  0  0
  1  3  2  0  0  0  0
  1  4  1  0  0  0  0
  4  5  1  0  0  0  0
  4  6  1  0  0  0  0
  4  7  1  0  0  0  0
  7  8  1  0  0  0  0
  7  9  1  0  0  0  0
  7 10  1  0  0  0  0
 10 11  1  0  0  0  0
 10 12  1  0  0  0  0
 10 13  1  0  0  0  0
 13 14  1  0  0  0  0
 13 15  1  0  0  0  0
 13 16  1  0  0  0  0
 16 17  1  0  0  0  0
 16 18  1  0  0  0  0
 16 19  1  0  0  0  0
 19 20  1  0  0  0  0
 19 21  1  0  0  0  0
 19 22  1  0  0  0  0
 22 23  1  0  0  0  0
 22 24  1  0  0  0  0
 22 25  1  0  0  0  0
M  END
> <VConfSearch Rank>
152

> <Conf_Id>
19

> <Delta U+W>
3.222

> <U+W>
-48.407

> <U>
10.617

> <W>
-59.025

> <W(PB)>
-61.462

> <W(SA)>
2.437

> <Valence>
11.188

> <Coulomb>
-1.778

> <VdW>
1.208

> <VdW6>
-9.786

> <VdW12>
10.993

> <Bond>
0.241

> <Angle>
3.294

> <Pdih>
7.653

> <Idih>
0.001

> <Tether>
0.000

$$$$
VeraChem MOL file


 25 24  0  0  0  0  0  0  0  0999 V2000     
   22.0383   16.0392   21.2576 C   0  0  0  0  0  0  0  0  0  0  0  0
   21.7029   14.9379   21.6467 O   0  5  0  0  0  0  0  0  0  0  0  0
   23.0668   16.2528   20.6465 O   0  0  0  0  0  0  0  0  0  0  0  0
   21.1301   17.2222   21.5737 C   0  0  0  0  0  0  0  0  0  0  0  0
   20.0966   16.8589   21.5650 H   0  0  0  0  0  0  0  0  0  0  0  0
   21.2261   17.9511   20.7602 H   0  0  0  0  0  0  0  0  0  0  0  0
   21.4670   17.8896   22.9327 C   0  0  0  0  0  0  0  0  0  0  0  0
   21.3212   17.1648   23.7455 H   0  0  0  0  0  0  0  0  0  0  0  0
   22.5342   18.1513   22.9390 H   0  0  0  0  0  0  0  0  0  0  0  0
   20.6441   19.1689   23.2176 C   0  0  0  0  0  0  0  0  0  0  0  0
   20.7713   19.8819   22.3918 H   0  0  0  0  0  0  0  0  0  0  0  0
   21.0617   19.6449   24.1137 H   0  0  0  0  0  0  0  0  0  0  0  0
   19.1386   18.8952   23.4484 C   0  0  0  0  0  0  0  0  0  0  0  0
   18.7264   18.3585   22.5850 H   0  0  0  0  0  0  0  0  0  0  0  0
   19.0180   18.2282   24.3128 H   0  0  0  0  0  0  0  0  0  0  0  0
   18.2865   20.1719   23.6612 C   0  0  0  0  0  0  0  0  0  0  0  0
   17.2386   19.8567   23.7587 H   0  0  0  0  0  0  0  0  0  0  0  0
   18.3249   20.8035   22.7631 H   0  0  0  0  0  0  0  0  0  0  0  0
   18.6589   21.0003   24.9163 C   0  0  0  0  0  0  0  0  0  0  0  0
   17.7364   21.3968   25.3624 H   0  0  0  0  0  0  0  0  0  0  0  0
   19.1130   20.3534   25.6794 H   0  0  0  0  0  0  0  0  0  0  0  0
   19.5888   22.1937   24.6025 C   0  0  0  0  0  0  0  0  0  0  0  0
   19.1092   22.8873   23.8997 H   0  0  0  0  0  0  0  0  0  0  0  0
   19.8203   22.7515   25.5191 H   0  0  0  0  0  0  0  0  0  0  0  0
   20.5369   21.8672   24.1604 H   0  0  0  0  0  0  0  0  0  0  0  0
  1  2  1  0  0  0  0
  1  3  2  0  0  0  0
  1  4  1  0  0  0  0
  4  5  1  0  0  0  0
  4  6  1  0  0  0  0
  4  7  1  0  0  0  0
  7  8  1  0  0  0  0
  7  9  1  0  0  0  0
  7 10  1  0  0  0  0
 10 11  1  0  0  0  0
 10 12  1  0  0  0  0
 10 13  1  0  0  0  0
 13 14  1  0  0  0  0
 13 15  1  0  0  0  0
 13 16  1  0  0  0  0
 16 17  1  0  0  0  0
 16 18  1  0  0  0  0
 16 19  1  0  0  0  0
 19 20  1  0  0  0  0
 19 21  1  0  0  0  0
 19 22  1  0  0  0  0
 22 23  1  0  0  0  0
 22 24  1  0  0  0  0
 22 25  1  0  0  0  0
M  END
> <VConfSearch Rank>
153

> <Conf_Id>
20

> <Delta U+W>
3.224

> <U+W>
-48.406

> <U>
10.617

> <W>
-59.023

> <W(PB)>
-61.467

> <W(SA)>
2.444

> <Valence>
11.188

> <Coulomb>
-1.778

> <VdW>
1.208

> <VdW6>
-9.786

> <VdW12>
10.993

> <Bond>
0.241

> <Angle>
3.294

> <Pdih>
7.653

> <Idih>
0.001

> <Tether>
0.000

$$$$
VeraChem MOL file


 25 24  0  0  0  0  0  0  0  0999 V2000     
   19.1577   17.0503   21.3757 C   0  0  0  0  0  0  0  0  0  0  0  0
   20.2154   16.6811   20.9039 O   0  5  0  0  0  0  0  0  0  0  0  0
   18.4050   17.8210   20.8129 O   0  0  0  0  0  0  0  0  0  0  0  0
   18.7184   16.4653   22.7166 C   0  0  0  0  0  0  0  0  0  0  0  0
   18.5935   15.3881   22.5566 H   0  0  0  0  0  0  0  0  0  0  0  0
   17.7279   16.8615   22.9711 H   0  0  0  0  0  0  0  0  0  0  0  0
   19.7076   16.6904   23.8947 C   0  0  0  0  0  0  0  0  0  0  0  0
   19.4862   15.9450   24.6704 H   0  0  0  0  0  0  0  0  0  0  0  0
   20.7357   16.4864   23.5646 H   0  0  0  0  0  0  0  0  0  0  0  0
   19.6286   18.0913   24.5506 C   0  0  0  0  0  0  0  0  0  0  0  0
   20.2539   18.0816   25.4539 H   0  0  0  0  0  0  0  0  0  0  0  0
   18.6013   18.2840   24.8886 H   0  0  0  0  0  0  0  0  0  0  0  0
   20.0984   19.2437   23.6341 C   0  0  0  0  0  0  0  0  0  0  0  0
   21.0838   19.0017   23.2128 H   0  0  0  0  0  0  0  0  0  0  0  0
   19.4061   19.3545   22.7900 H   0  0  0  0  0  0  0  0  0  0  0  0
   20.1765   20.5843   24.3965 C   0  0  0  0  0  0  0  0  0  0  0  0
   20.8740   20.4879   25.2399 H   0  0  0  0  0  0  0  0  0  0  0  0
   19.1916   20.8222   24.8212 H   0  0  0  0  0  0  0  0  0  0  0  0
   20.6345   21.7379   23.4795 C   0  0  0  0  0  0  0  0  0  0  0  0
   21.6200   21.5033   23.0537 H   0  0  0  0  0  0  0  0  0  0  0  0
   19.9382   21.8384   22.6354 H   0  0  0  0  0  0  0  0  0  0  0  0
   20.7111   23.0752   24.2433 C   0  0  0  0  0  0  0  0  0  0  0  0
   21.4251   23.0122   25.0749 H   0  0  0  0  0  0  0  0  0  0  0  0
   21.0380   23.8835   23.5763 H   0  0  0  0  0  0  0  0  0  0  0  0
   19.7304   23.3499   24.6534 H   0  0  0  0  0  0  0  0  0  0  0  0
  1  2  1  0  0  0  0
  1  3  2  0  0  0  0
  1  4  1  0  0  0  0
  4  5  1  0  0  0  0
  4  6  1  0  0  0  0
  4  7  1  0  0  0  0
  7  8  1  0  0  0  0
  7  9  1  0  0  0  0
  7 10  1  0  0  0  0
 10 11  1  0  0  0  0
 10 12  1  0  0  0  0
 10 13  1  0  0  0  0
 13 14  1  0  0  0  0
 13 15  1  0  0  0  0
 13 16  1  0  0  0  0
 16 17  1  0  0  0  0
 16 18  1  0  0  0  0
 16 19  1  0  0  0  0
 19 20  1  0  0  0  0
 19 21  1  0  0  0  0
 19 22  1  0  0  0  0
 22 23  1  0  0  0  0
 22 24  1  0  0  0  0
 22 25  1  0  0  0  0
M  END
> <VConfSearch Rank>
154

> <Conf_Id>
24

> <Delta U+W>
1.784

> <U+W>
-49.846

> <U>
10.904

> <W>
-60.749

> <W(PB)>
-63.220

> <W(SA)>
2.471

> <Valence>
9.445

> <Coulomb>
0.780

> <VdW>
0.679

> <VdW6>
-10.008

> <VdW12>
10.687

> <Bond>
0.201

> <Angle>
3.198

> <Pdih>
6.039

> <Idih>
0.006

> <Tether>
0.000

$$$$
VeraChem MOL file


 25 24  0  0  0  0  0  0  0  0999 V2000     
   17.2555   18.6581   22.2452 C   0  0  0  0  0  0  0  0  0  0  0  0
   17.4295   18.6856   21.0424 O   0  5  0  0  0  0  0  0  0  0  0  0
   17.0631   17.6345   22.8717 O   0  0  0  0  0  0  0  0  0  0  0  0
   17.2096   19.9843   23.0017 C   0  0  0  0  0  0  0  0  0  0  0  0
   16.9955   19.7847   24.0586 H   0  0  0  0  0  0  0  0  0  0  0  0
   16.3485   20.5350   22.6058 H   0  0  0  0  0  0  0  0  0  0  0  0
   18.4810   20.8690   22.8674 C   0  0  0  0  0  0  0  0  0  0  0  0
   18.8112   20.8936   21.8196 H   0  0  0  0  0  0  0  0  0  0  0  0
   18.2041   21.9012   23.1208 H   0  0  0  0  0  0  0  0  0  0  0  0
   19.6586   20.4576   23.7856 C   0  0  0  0  0  0  0  0  0  0  0  0
   19.3250   20.4467   24.8323 H   0  0  0  0  0  0  0  0  0  0  0  0
   20.4331   21.2338   23.7168 H   0  0  0  0  0  0  0  0  0  0  0  0
   20.2900   19.0932   23.4277 C   0  0  0  0  0  0  0  0  0  0  0  0
   19.5693   18.2878   23.6170 H   0  0  0  0  0  0  0  0  0  0  0  0
   20.5282   19.0668   22.3555 H   0  0  0  0  0  0  0  0  0  0  0  0
   21.5695   18.8229   24.2489 C   0  0  0  0  0  0  0  0  0  0  0  0
   21.3304   18.8545   25.3208 H   0  0  0  0  0  0  0  0  0  0  0  0
   22.3027   19.6192   24.0608 H   0  0  0  0  0  0  0  0  0  0  0  0
   22.1945   17.4556   23.9005 C   0  0  0  0  0  0  0  0  0  0  0  0
   21.4644   16.6561   24.0892 H   0  0  0  0  0  0  0  0  0  0  0  0
   22.4354   17.4209   22.8290 H   0  0  0  0  0  0  0  0  0  0  0  0
   23.4715   17.1882   24.7223 C   0  0  0  0  0  0  0  0  0  0  0  0
   23.2530   17.1860   25.7982 H   0  0  0  0  0  0  0  0  0  0  0  0
   23.9020   16.2125   24.4618 H   0  0  0  0  0  0  0  0  0  0  0  0
   24.2314   17.9566   24.5283 H   0  0  0  0  0  0  0  0  0  0  0  0
  1  2  1  0  0  0  0
  1  3  2  0  0  0  0
  1  4  1  0  0  0  0
  4  5  1  0  0  0  0
  4  6  1  0  0  0  0
  4  7  1  0  0  0  0
  7  8  1  0  0  0  0
  7  9  1  0  0  0  0
  7 10  1  0  0  0  0
 10 11  1  0  0  0  0
 10 12  1  0  0  0  0
 10 13  1  0  0  0  0
 13 14  1  0  0  0  0
 13 15  1  0  0  0  0
 13 16  1  0  0  0  0
 16 17  1  0  0  0  0
 16 18  1  0  0  0  0
 16 19  1  0  0  0  0
 19 20  1  0  0  0  0
 19 21  1  0  0  0  0
 19 22  1  0  0  0  0
 22 23  1  0  0  0  0
 22 24  1  0  0  0  0
 22 25  1  0  0  0  0
M  END
> <VConfSearch Rank>
155

> <Conf_Id>
9

> <Delta U+W>
1.764

> <U+W>
-49.865

> <U>
10.902

> <W>
-60.768

> <W(PB)>
-63.223

> <W(SA)>
2.456

> <Valence>
9.445

> <Coulomb>
0.778

> <VdW>
0.679

> <VdW6>
-10.007

> <VdW12>
10.687

> <Bond>
0.201

> <Angle>
3.198

> <Pdih>
6.040

> <Idih>
0.006

> <Tether>
0.000

$$$$
VeraChem MOL file


 25 24  0  0  0  0  0  0  0  0999 V2000     
   20.6459   22.7896   23.6360 C   0  0  0  0  0  0  0  0  0  0  0  0
   19.9219   22.8936   24.6064 O   0  5  0  0  0  0  0  0  0  0  0  0
   21.4461   23.6397   23.2987 O   0  0  0  0  0  0  0  0  0  0  0  0
   20.5604   21.5130   22.8073 C   0  0  0  0  0  0  0  0  0  0  0  0
   20.7702   21.7734   21.7631 H   0  0  0  0  0  0  0  0  0  0  0  0
   19.5261   21.1579   22.8457 H   0  0  0  0  0  0  0  0  0  0  0  0
   21.5471   20.4173   23.2906 C   0  0  0  0  0  0  0  0  0  0  0  0
   22.5648   20.8262   23.2235 H   0  0  0  0  0  0  0  0  0  0  0  0
   21.3763   20.1965   24.3534 H   0  0  0  0  0  0  0  0  0  0  0  0
   21.4811   19.1139   22.4545 C   0  0  0  0  0  0  0  0  0  0  0  0
   22.4961   18.6985   22.3896 H   0  0  0  0  0  0  0  0  0  0  0  0
   21.1841   19.3383   21.4210 H   0  0  0  0  0  0  0  0  0  0  0  0
   20.5653   18.0125   23.0454 C   0  0  0  0  0  0  0  0  0  0  0  0
   20.6612   17.1133   22.4219 H   0  0  0  0  0  0  0  0  0  0  0  0
   20.9333   17.7380   24.0427 H   0  0  0  0  0  0  0  0  0  0  0  0
   19.0719   18.4067   23.1311 C   0  0  0  0  0  0  0  0  0  0  0  0
   18.7545   18.8251   22.1664 H   0  0  0  0  0  0  0  0  0  0  0  0
   18.9391   19.1976   23.8808 H   0  0  0  0  0  0  0  0  0  0  0  0
   18.1451   17.2196   23.4825 C   0  0  0  0  0  0  0  0  0  0  0  0
   17.1014   17.5581   23.4267 H   0  0  0  0  0  0  0  0  0  0  0  0
   18.2548   16.4272   22.7292 H   0  0  0  0  0  0  0  0  0  0  0  0
   18.4061   16.6385   24.8891 C   0  0  0  0  0  0  0  0  0  0  0  0
   18.3266   17.4188   25.6572 H   0  0  0  0  0  0  0  0  0  0  0  0
   17.6723   15.8566   25.1240 H   0  0  0  0  0  0  0  0  0  0  0  0
   19.4046   16.1888   24.9571 H   0  0  0  0  0  0  0  0  0  0  0  0
  1  2  1  0  0  0  0
  1  3  2  0  0  0  0
  1  4  1  0  0  0  0
  4  5  1  0  0  0  0
  4  6  1  0  0  0  0
  4  7  1  0  0  0  0
  7  8  1  0  0  0  0
  7  9  1  0  0  0  0
  7 10  1  0  0  0  0
 10 11  1  0  0  0  0
 10 12  1  0  0  0  0
 10 13  1  0  0  0  0
 13 14  1  0  0  0  0
 13 15  1  0  0  0  0
 13 16  1  0  0  0  0
 16 17  1  0  0  0  0
 16 18  1  0  0  0  0
 16 19  1  0  0  0  0
 19 20  1  0  0  0  0
 19 21  1  0  0  0  0
 19 22  1  0  0  0  0
 22 23  1  0  0  0  0
 22 24  1  0  0  0  0
 22 25  1  0  0  0  0
M  END
> <VConfSearch Rank>
156

> <Conf_Id>
89

> <Delta U+W>
2.903

> <U+W>
-48.726

> <U>
10.996

> <W>
-59.723

> <W(PB)>
-62.151

> <W(SA)>
2.428

> <Valence>
10.985

> <Coulomb>
-0.995

> <VdW>
1.006

> <VdW6>
-10.062

> <VdW12>
11.069

> <Bond>
0.238

> <Angle>
3.202

> <Pdih>
7.544

> <Idih>
0.001

> <Tether>
0.000

$$$$
VeraChem MOL file


 25 24  0  0  0  0  0  0  0  0999 V2000     
   21.3031   16.2382   25.1416 C   0  0  0  0  0  0  0  0  0  0  0  0
   20.9876   15.3867   24.3336 O   0  5  0  0  0  0  0  0  0  0  0  0
   22.4560   16.5020   25.4220 O   0  0  0  0  0  0  0  0  0  0  0  0
   20.1893   16.9685   25.8896 C   0  0  0  0  0  0  0  0  0  0  0  0
   20.2940   16.6900   26.9446 H   0  0  0  0  0  0  0  0  0  0  0  0
   19.2201   16.5778   25.5569 H   0  0  0  0  0  0  0  0  0  0  0  0
   20.2154   18.5186   25.7711 C   0  0  0  0  0  0  0  0  0  0  0  0
   19.6502   18.9313   26.6177 H   0  0  0  0  0  0  0  0  0  0  0  0
   21.2443   18.8867   25.8876 H   0  0  0  0  0  0  0  0  0  0  0  0
   19.5929   19.0842   24.4702 C   0  0  0  0  0  0  0  0  0  0  0  0
   19.5170   20.1726   24.5843 H   0  0  0  0  0  0  0  0  0  0  0  0
   18.5651   18.7126   24.3606 H   0  0  0  0  0  0  0  0  0  0  0  0
   20.4024   18.7592   23.1913 C   0  0  0  0  0  0  0  0  0  0  0  0
   21.4469   19.0743   23.3200 H   0  0  0  0  0  0  0  0  0  0  0  0
   20.4206   17.6728   23.0417 H   0  0  0  0  0  0  0  0  0  0  0  0
   19.8185   19.4017   21.9101 C   0  0  0  0  0  0  0  0  0  0  0  0
   18.7645   19.1120   21.8001 H   0  0  0  0  0  0  0  0  0  0  0  0
   20.3469   18.9836   21.0424 H   0  0  0  0  0  0  0  0  0  0  0  0
   19.9447   20.9419   21.8748 C   0  0  0  0  0  0  0  0  0  0  0  0
   19.3560   21.3905   22.6854 H   0  0  0  0  0  0  0  0  0  0  0  0
   20.9915   21.2316   22.0404 H   0  0  0  0  0  0  0  0  0  0  0  0
   19.4613   21.5177   20.5284 C   0  0  0  0  0  0  0  0  0  0  0  0
   18.4079   21.2655   20.3494 H   0  0  0  0  0  0  0  0  0  0  0  0
   19.5542   22.6115   20.5198 H   0  0  0  0  0  0  0  0  0  0  0  0
   20.0555   21.1209   19.6948 H   0  0  0  0  0  0  0  0  0  0  0  0
  1  2  1  0  0  0  0
  1  3  2  0  0  0  0
  1  4  1  0  0  0  0
  4  5  1  0  0  0  0
  4  6  1  0  0  0  0
  4  7  1  0  0  0  0
  7  8  1  0  0  0  0
  7  9  1  0  0  0  0
  7 10  1  0  0  0  0
 10 11  1  0  0  0  0
 10 12  1  0  0  0  0
 10 13  1  0  0  0  0
 13 14  1  0  0  0  0
 13 15  1  0  0  0  0
 13 16  1  0  0  0  0
 16 17  1  0  0  0  0
 16 18  1  0  0  0  0
 16 19  1  0  0  0  0
 19 20  1  0  0  0  0
 19 21  1  0  0  0  0
 19 22  1  0  0  0  0
 22 23  1  0  0  0  0
 22 24  1  0  0  0  0
 22 25  1  0  0  0  0
M  END
> <VConfSearch Rank>
157

> <Conf_Id>
114

> <Delta U+W>
2.758

> <U+W>
-48.871

> <U>
11.422

> <W>
-60.293

> <W(PB)>
-62.719

> <W(SA)>
2.425

> <Valence>
10.135

> <Coulomb>
0.369

> <VdW>
0.918

> <VdW6>
-10.482

> <VdW12>
11.400

> <Bond>
0.245

> <Angle>
3.539

> <Pdih>
6.346

> <Idih>
0.006

> <Tether>
0.000

$$$$
VeraChem MOL file


 25 24  0  0  0  0  0  0  0  0999 V2000     
   17.4720   16.7370   24.6712 C   0  0  0  0  0  0  0  0  0  0  0  0
   16.4530   17.0867   24.1089 O   0  5  0  0  0  0  0  0  0  0  0  0
   17.9656   15.6336   24.5447 O   0  0  0  0  0  0  0  0  0  0  0  0
   18.1602   17.7294   25.6042 C   0  0  0  0  0  0  0  0  0  0  0  0
   18.4221   17.1900   26.5220 H   0  0  0  0  0  0  0  0  0  0  0  0
   17.4368   18.5037   25.8867 H   0  0  0  0  0  0  0  0  0  0  0  0
   19.4340   18.3785   25.0032 C   0  0  0  0  0  0  0  0  0  0  0  0
   19.9325   18.9725   25.7810 H   0  0  0  0  0  0  0  0  0  0  0  0
   20.1335   17.5839   24.7125 H   0  0  0  0  0  0  0  0  0  0  0  0
   19.1191   19.2865   23.7900 C   0  0  0  0  0  0  0  0  0  0  0  0
   18.3480   20.0130   24.0805 H   0  0  0  0  0  0  0  0  0  0  0  0
   18.6876   18.6871   22.9765 H   0  0  0  0  0  0  0  0  0  0  0  0
   20.3491   20.0628   23.2618 C   0  0  0  0  0  0  0  0  0  0  0  0
   19.9990   20.7798   22.5085 H   0  0  0  0  0  0  0  0  0  0  0  0
   20.7878   20.6556   24.0758 H   0  0  0  0  0  0  0  0  0  0  0  0
   21.4327   19.1496   22.6370 C   0  0  0  0  0  0  0  0  0  0  0  0
   20.9925   18.5544   21.8254 H   0  0  0  0  0  0  0  0  0  0  0  0
   21.7870   18.4349   23.3905 H   0  0  0  0  0  0  0  0  0  0  0  0
   22.6582   19.9272   22.1024 C   0  0  0  0  0  0  0  0  0  0  0  0
   23.0942   20.5329   22.9089 H   0  0  0  0  0  0  0  0  0  0  0  0
   23.4306   19.2044   21.8056 H   0  0  0  0  0  0  0  0  0  0  0  0
   22.3334   20.8290   20.8915 C   0  0  0  0  0  0  0  0  0  0  0  0
   23.2509   21.2809   20.4930 H   0  0  0  0  0  0  0  0  0  0  0  0
   21.8642   20.2503   20.0852 H   0  0  0  0  0  0  0  0  0  0  0  0
   21.6556   21.6458   21.1691 H   0  0  0  0  0  0  0  0  0  0  0  0
  1  2  1  0  0  0  0
  1  3  2  0  0  0  0
  1  4  1  0  0  0  0
  4  5  1  0  0  0  0
  4  6  1  0  0  0  0
  4  7  1  0  0  0  0
  7  8  1  0  0  0  0
  7  9  1  0  0  0  0
  7 10  1  0  0  0  0
 10 11  1  0  0  0  0
 10 12  1  0  0  0  0
 10 13  1  0  0  0  0
 13 14  1  0  0  0  0
 13 15  1  0  0  0  0
 13 16  1  0  0  0  0
 16 17  1  0  0  0  0
 16 18  1  0  0  0  0
 16 19  1  0  0  0  0
 19 20  1  0  0  0  0
 19 21  1  0  0  0  0
 19 22  1  0  0  0  0
 22 23  1  0  0  0  0
 22 24  1  0  0  0  0
 22 25  1  0  0  0  0
M  END
> <VConfSearch Rank>
158

> <Conf_Id>
87

> <Delta U+W>
1.453

> <U+W>
-50.176

> <U>
9.763

> <W>
-59.940

> <W(PB)>
-62.392

> <W(SA)>
2.452

> <Valence>
8.883

> <Coulomb>
-0.122

> <VdW>
1.003

> <VdW6>
-9.782

> <VdW12>
10.785

> <Bond>
0.212

> <Angle>
2.940

> <Pdih>
5.730

> <Idih>
0.001

> <Tether>
0.000

$$$$
VeraChem MOL file


 25 24  0  0  0  0  0  0  0  0999 V2000     
   21.1187   22.8385   24.1199 C   0  0  0  0  0  0  0  0  0  0  0  0
   21.4851   23.2295   23.0293 O   0  5  0  0  0  0  0  0  0  0  0  0
   20.5958   23.5545   24.9510 O   0  0  0  0  0  0  0  0  0  0  0  0
   21.3087   21.3640   24.4574 C   0  0  0  0  0  0  0  0  0  0  0  0
   21.4901   21.2821   25.5358 H   0  0  0  0  0  0  0  0  0  0  0  0
   22.2139   21.0119   23.9483 H   0  0  0  0  0  0  0  0  0  0  0  0
   20.0947   20.4929   24.0509 C   0  0  0  0  0  0  0  0  0  0  0  0
   19.1947   20.8623   24.5615 H   0  0  0  0  0  0  0  0  0  0  0  0
   19.9211   20.6068   22.9727 H   0  0  0  0  0  0  0  0  0  0  0  0
   20.3165   19.0025   24.3976 C   0  0  0  0  0  0  0  0  0  0  0  0
   20.5571   18.9161   25.4659 H   0  0  0  0  0  0  0  0  0  0  0  0
   21.1924   18.6213   23.8565 H   0  0  0  0  0  0  0  0  0  0  0  0
   19.0847   18.1107   24.1014 C   0  0  0  0  0  0  0  0  0  0  0  0
   19.3021   17.0856   24.4291 H   0  0  0  0  0  0  0  0  0  0  0  0
   18.2449   18.4490   24.7233 H   0  0  0  0  0  0  0  0  0  0  0  0
   18.6247   18.0867   22.6197 C   0  0  0  0  0  0  0  0  0  0  0  0
   18.2510   19.0801   22.3390 H   0  0  0  0  0  0  0  0  0  0  0  0
   17.7634   17.4107   22.5318 H   0  0  0  0  0  0  0  0  0  0  0  0
   19.7061   17.6509   21.6004 C   0  0  0  0  0  0  0  0  0  0  0  0
   19.2748   17.6968   20.5911 H   0  0  0  0  0  0  0  0  0  0  0  0
   20.5406   18.3645   21.6068 H   0  0  0  0  0  0  0  0  0  0  0  0
   20.2387   16.2231   21.8489 C   0  0  0  0  0  0  0  0  0  0  0  0
   19.4177   15.4946   21.8629 H   0  0  0  0  0  0  0  0  0  0  0  0
   20.9381   15.9303   21.0554 H   0  0  0  0  0  0  0  0  0  0  0  0
   20.7735   16.1581   22.8048 H   0  0  0  0  0  0  0  0  0  0  0  0
  1  2  1  0  0  0  0
  1  3  2  0  0  0  0
  1  4  1  0  0  0  0
  4  5  1  0  0  0  0
  4  6  1  0  0  0  0
  4  7  1  0  0  0  0
  7  8  1  0  0  0  0
  7  9  1  0  0  0  0
  7 10  1  0  0  0  0
 10 11  1  0  0  0  0
 10 12  1  0  0  0  0
 10 13  1  0  0  0  0
 13 14  1  0  0  0  0
 13 15  1  0  0  0  0
 13 16  1  0  0  0  0
 16 17  1  0  0  0  0
 16 18  1  0  0  0  0
 16 19  1  0  0  0  0
 19 20  1  0  0  0  0
 19 21  1  0  0  0  0
 19 22  1  0  0  0  0
 22 23  1  0  0  0  0
 22 24  1  0  0  0  0
 22 25  1  0  0  0  0
M  END
> <VConfSearch Rank>
159

> <Conf_Id>
29

> <Delta U+W>
0.850

> <U+W>
-50.780

> <U>
8.646

> <W>
-59.426

> <W(PB)>
-61.868

> <W(SA)>
2.442

> <Valence>
8.924

> <Coulomb>
-1.171

> <VdW>
0.894

> <VdW6>
-10.223

> <VdW12>
11.117

> <Bond>
0.231

> <Angle>
3.232

> <Pdih>
5.461

> <Idih>
0.001

> <Tether>
0.000

$$$$
VeraChem MOL file


 25 24  0  0  0  0  0  0  0  0999 V2000     
   20.7624   20.7538   26.8873 C   0  0  0  0  0  0  0  0  0  0  0  0
   21.2401   19.8089   27.4837 O   0  5  0  0  0  0  0  0  0  0  0  0
   20.1079   21.6267   27.4226 O   0  0  0  0  0  0  0  0  0  0  0  0
   20.9802   20.8390   25.3809 C   0  0  0  0  0  0  0  0  0  0  0  0
   21.9566   20.3953   25.1521 H   0  0  0  0  0  0  0  0  0  0  0  0
   21.0323   21.8987   25.1037 H   0  0  0  0  0  0  0  0  0  0  0  0
   19.8681   20.1278   24.5713 C   0  0  0  0  0  0  0  0  0  0  0  0
   19.8221   19.0751   24.8802 H   0  0  0  0  0  0  0  0  0  0  0  0
   18.8958   20.5769   24.8167 H   0  0  0  0  0  0  0  0  0  0  0  0
   20.1171   20.2230   23.0483 C   0  0  0  0  0  0  0  0  0  0  0  0
   21.0699   19.7390   22.7965 H   0  0  0  0  0  0  0  0  0  0  0  0
   20.2294   21.2796   22.7699 H   0  0  0  0  0  0  0  0  0  0  0  0
   18.9750   19.6132   22.1975 C   0  0  0  0  0  0  0  0  0  0  0  0
   18.0503   20.1729   22.3929 H   0  0  0  0  0  0  0  0  0  0  0  0
   19.1999   19.7738   21.1349 H   0  0  0  0  0  0  0  0  0  0  0  0
   18.7008   18.1052   22.4394 C   0  0  0  0  0  0  0  0  0  0  0  0
   17.8903   17.7854   21.7706 H   0  0  0  0  0  0  0  0  0  0  0  0
   18.3167   17.9645   23.4581 H   0  0  0  0  0  0  0  0  0  0  0  0
   19.9182   17.1715   22.2287 C   0  0  0  0  0  0  0  0  0  0  0  0
   20.7104   17.4152   22.9491 H   0  0  0  0  0  0  0  0  0  0  0  0
   19.6116   16.1404   22.4518 H   0  0  0  0  0  0  0  0  0  0  0  0
   20.4849   17.2221   20.7934 C   0  0  0  0  0  0  0  0  0  0  0  0
   20.9015   18.2110   20.5641 H   0  0  0  0  0  0  0  0  0  0  0  0
   21.2893   16.4854   20.6715 H   0  0  0  0  0  0  0  0  0  0  0  0
   19.7045   16.9972   20.0549 H   0  0  0  0  0  0  0  0  0  0  0  0
  1  2  1  0  0  0  0
  1  3  2  0  0  0  0
  1  4  1  0  0  0  0
  4  5  1  0  0  0  0
  4  6  1  0  0  0  0
  4  7  1  0  0  0  0
  7  8  1  0  0  0  0
  7  9  1  0  0  0  0
  7 10  1  0  0  0  0
 10 11  1  0  0  0  0
 10 12  1  0  0  0  0
 10 13  1  0  0  0  0
 13 14  1  0  0  0  0
 13 15  1  0  0  0  0
 13 16  1  0  0  0  0
 16 17  1  0  0  0  0
 16 18  1  0  0  0  0
 16 19  1  0  0  0  0
 19 20  1  0  0  0  0
 19 21  1  0  0  0  0
 19 22  1  0  0  0  0
 22 23  1  0  0  0  0
 22 24  1  0  0  0  0
 22 25  1  0  0  0  0
M  END
> <VConfSearch Rank>
160

> <Conf_Id>
30

> <Delta U+W>
0.843

> <U+W>
-50.787

> <U>
8.647

> <W>
-59.434

> <W(PB)>
-61.861

> <W(SA)>
2.428

> <Valence>
8.924

> <Coulomb>
-1.170

> <VdW>
0.894

> <VdW6>
-10.224

> <VdW12>
11.118

> <Bond>
0.231

> <Angle>
3.232

> <Pdih>
5.460

> <Idih>
0.000

> <Tether>
0.000

$$$$
VeraChem MOL file


 25 24  0  0  0  0  0  0  0  0999 V2000     
   23.4116   17.7026   26.0965 C   0  0  0  0  0  0  0  0  0  0  0  0
   22.8068   16.6914   26.3971 O   0  5  0  0  0  0  0  0  0  0  0  0
   24.4976   17.9891   26.5598 O   0  0  0  0  0  0  0  0  0  0  0  0
   22.8022   18.6801   25.0903 C   0  0  0  0  0  0  0  0  0  0  0  0
   23.5185   18.7915   24.2678 H   0  0  0  0  0  0  0  0  0  0  0  0
   22.7281   19.6553   25.5857 H   0  0  0  0  0  0  0  0  0  0  0  0
   21.4153   18.2713   24.5265 C   0  0  0  0  0  0  0  0  0  0  0  0
   21.4954   17.2906   24.0372 H   0  0  0  0  0  0  0  0  0  0  0  0
   20.7043   18.1553   25.3563 H   0  0  0  0  0  0  0  0  0  0  0  0
   20.8749   19.3111   23.5208 C   0  0  0  0  0  0  0  0  0  0  0  0
   21.5873   19.4254   22.6922 H   0  0  0  0  0  0  0  0  0  0  0  0
   20.7957   20.2906   24.0121 H   0  0  0  0  0  0  0  0  0  0  0  0
   19.4953   18.9024   22.9612 C   0  0  0  0  0  0  0  0  0  0  0  0
   19.5742   17.9229   22.4698 H   0  0  0  0  0  0  0  0  0  0  0  0
   18.7826   18.7880   23.7896 H   0  0  0  0  0  0  0  0  0  0  0  0
   18.9543   19.9416   21.9556 C   0  0  0  0  0  0  0  0  0  0  0  0
   19.6668   20.0561   21.1271 H   0  0  0  0  0  0  0  0  0  0  0  0
   18.8752   20.9212   22.4468 H   0  0  0  0  0  0  0  0  0  0  0  0
   17.5754   19.5332   21.3962 C   0  0  0  0  0  0  0  0  0  0  0  0
   17.6510   18.5545   20.9023 H   0  0  0  0  0  0  0  0  0  0  0  0
   16.8594   19.4195   22.2220 H   0  0  0  0  0  0  0  0  0  0  0  0
   17.0387   20.5734   20.3924 C   0  0  0  0  0  0  0  0  0  0  0  0
   17.7206   20.6842   19.5392 H   0  0  0  0  0  0  0  0  0  0  0  0
   16.0582   20.2672   20.0050 H   0  0  0  0  0  0  0  0  0  0  0  0
   16.9231   21.5558   20.8688 H   0  0  0  0  0  0  0  0  0  0  0  0
  1  2  1  0  0  0  0
  1  3  2  0  0  0  0
  1  4  1  0  0  0  0
  4  5  1  0  0  0  0
  4  6  1  0  0  0  0
  4  7  1  0  0  0  0
  7  8  1  0  0  0  0
  7  9  1  0  0  0  0
  7 10  1  0  0  0  0
 10 11  1  0  0  0  0
 10 12  1  0  0  0  0
 10 13  1  0  0  0  0
 13 14  1  0  0  0  0
 13 15  1  0  0  0  0
 13 16  1  0  0  0  0
 16 17  1  0  0  0  0
 16 18  1  0  0  0  0
 16 19  1  0  0  0  0
 19 20  1  0  0  0  0
 19 21  1  0  0  0  0
 19 22  1  0  0  0  0
 22 23  1  0  0  0  0
 22 24  1  0  0  0  0
 22 25  1  0  0  0  0
M  END
> <VConfSearch Rank>
161

> <Conf_Id>
0

> <Delta U+W>
0.000

> <U+W>
-51.629

> <U>
6.586

> <W>
-58.216

> <W(PB)>
-60.757

> <W(SA)>
2.541

> <Valence>
8.027

> <Coulomb>
-2.892

> <VdW>
1.451

> <VdW6>
-7.931

> <VdW12>
9.383

> <Bond>
0.149

> <Angle>
2.726

> <Pdih>
5.152

> <Idih>
0.000

> <Tether>
0.000

$$$$
VeraChem MOL file


 25 24  0  0  0  0  0  0  0  0999 V2000     
   20.0605   23.5616   24.6758 C   0  0  0  0  0  0  0  0  0  0  0  0
   19.9550   23.6721   25.8814 O   0  5  0  0  0  0  0  0  0  0  0  0
   20.6750   24.3447   23.9789 O   0  0  0  0  0  0  0  0  0  0  0  0
   19.4046   22.3610   24.0031 C   0  0  0  0  0  0  0  0  0  0  0  0
   19.0905   22.6638   22.9970 H   0  0  0  0  0  0  0  0  0  0  0  0
   18.4966   22.1100   24.5646 H   0  0  0  0  0  0  0  0  0  0  0  0
   20.3413   21.1305   23.9232 C   0  0  0  0  0  0  0  0  0  0  0  0
   21.2509   21.4022   23.3697 H   0  0  0  0  0  0  0  0  0  0  0  0
   20.6572   20.8484   24.9372 H   0  0  0  0  0  0  0  0  0  0  0  0
   19.6547   19.9288   23.2387 C   0  0  0  0  0  0  0  0  0  0  0  0
   19.3392   20.2143   22.2257 H   0  0  0  0  0  0  0  0  0  0  0  0
   18.7452   19.6606   23.7935 H   0  0  0  0  0  0  0  0  0  0  0  0
   20.5908   18.7036   23.1606 C   0  0  0  0  0  0  0  0  0  0  0  0
   21.5004   18.9716   22.6057 H   0  0  0  0  0  0  0  0  0  0  0  0
   20.9065   18.4179   24.1734 H   0  0  0  0  0  0  0  0  0  0  0  0
   19.9049   17.5015   22.4762 C   0  0  0  0  0  0  0  0  0  0  0  0
   19.5892   17.7868   21.4633 H   0  0  0  0  0  0  0  0  0  0  0  0
   18.9953   17.2333   23.0309 H   0  0  0  0  0  0  0  0  0  0  0  0
   20.8404   16.2767   22.3982 C   0  0  0  0  0  0  0  0  0  0  0  0
   21.7508   16.5407   21.8423 H   0  0  0  0  0  0  0  0  0  0  0  0
   21.1568   15.9871   23.4099 H   0  0  0  0  0  0  0  0  0  0  0  0
   20.1519   15.0785   21.7142 C   0  0  0  0  0  0  0  0  0  0  0  0
   20.8309   14.2172   21.6673 H   0  0  0  0  0  0  0  0  0  0  0  0
   19.2544   14.7728   22.2677 H   0  0  0  0  0  0  0  0  0  0  0  0
   19.8528   15.3305   20.6883 H   0  0  0  0  0  0  0  0  0  0  0  0
  1  2  1  0  0  0  0
  1  3  2  0  0  0  0
  1  4  1  0  0  0  0
  4  5  1  0  0  0  0
  4  6  1  0  0  0  0
  4  7  1  0  0  0  0
  7  8  1  0  0  0  0
  7  9  1  0  0  0  0
  7 10  1  0  0  0  0
 10 11  1  0  0  0  0
 10 12  1  0  0  0  0
 10 13  1  0  0  0  0
 13 14  1  0  0  0  0
 13 15  1  0  0  0  0
 13 16  1  0  0  0  0
 16 17  1  0  0  0  0
 16 18  1  0  0  0  0
 16 19  1  0  0  0  0
 19 20  1  0  0  0  0
 19 21  1  0  0  0  0
 19 22  1  0  0  0  0
 22 23  1  0  0  0  0
 22 24  1  0  0  0  0
 22 25  1  0  0  0  0
M  END
> <VConfSearch Rank>
162

> <Conf_Id>
27

> <Delta U+W>
-1.297

> <U+W>
-52.926

> <U>
5.617

> <W>
-58.543

> <W(PB)>
-61.065

> <W(SA)>
2.522

> <Valence>
7.531

> <Coulomb>
-2.818

> <VdW>
0.904

> <VdW6>
-7.640

> <VdW12>
8.544

> <Bond>
0.115

> <Angle>
2.271

> <Pdih>
5.144

> <Idih>
0.001

> <Tether>
0.000

$$$$
VeraChem MOL file


 25 24  0  0  0  0  0  0  0  0999 V2000     
   19.4791   17.1541   19.8885 C   0  0  0  0  0  0  0  0  0  0  0  0
   20.2922   17.3848   19.0151 O   0  5  0  0  0  0  0  0  0  0  0  0
   19.3451   16.0658   20.4125 O   0  0  0  0  0  0  0  0  0  0  0  0
   18.5659   18.2909   20.3387 C   0  0  0  0  0  0  0  0  0  0  0  0
   17.6962   17.8600   20.8494 H   0  0  0  0  0  0  0  0  0  0  0  0
   18.1903   18.7868   19.4359 H   0  0  0  0  0  0  0  0  0  0  0  0
   19.2610   19.3340   21.2518 C   0  0  0  0  0  0  0  0  0  0  0  0
   20.1452   19.7359   20.7377 H   0  0  0  0  0  0  0  0  0  0  0  0
   18.5775   20.1787   21.4124 H   0  0  0  0  0  0  0  0  0  0  0  0
   19.6734   18.7452   22.6196 C   0  0  0  0  0  0  0  0  0  0  0  0
   20.3713   17.9101   22.4680 H   0  0  0  0  0  0  0  0  0  0  0  0
   18.7885   18.3328   23.1235 H   0  0  0  0  0  0  0  0  0  0  0  0
   20.3340   19.8080   23.5239 C   0  0  0  0  0  0  0  0  0  0  0  0
   21.2188   20.2198   23.0192 H   0  0  0  0  0  0  0  0  0  0  0  0
   19.6368   20.6427   23.6793 H   0  0  0  0  0  0  0  0  0  0  0  0
   20.7472   19.2202   24.8905 C   0  0  0  0  0  0  0  0  0  0  0  0
   21.4444   18.3854   24.7351 H   0  0  0  0  0  0  0  0  0  0  0  0
   19.8626   18.8080   25.3952 H   0  0  0  0  0  0  0  0  0  0  0  0
   21.4080   20.2820   25.7944 C   0  0  0  0  0  0  0  0  0  0  0  0
   22.2944   20.6952   25.2934 H   0  0  0  0  0  0  0  0  0  0  0  0
   20.7126   21.1178   25.9536 H   0  0  0  0  0  0  0  0  0  0  0  0
   21.8192   19.6910   27.1580 C   0  0  0  0  0  0  0  0  0  0  0  0
   22.5398   18.8725   27.0301 H   0  0  0  0  0  0  0  0  0  0  0  0
   22.2871   20.4591   27.7874 H   0  0  0  0  0  0  0  0  0  0  0  0
   20.9460   19.2982   27.6952 H   0  0  0  0  0  0  0  0  0  0  0  0
  1  2  1  0  0  0  0
  1  3  2  0  0  0  0
  1  4  1  0  0  0  0
  4  5  1  0  0  0  0
  4  6  1  0  0  0  0
  4  7  1  0  0  0  0
  7  8  1  0  0  0  0
  7  9  1  0  0  0  0
  7 10  1  0  0  0  0
 10 11  1  0  0  0  0
 10 12  1  0  0  0  0
 10 13  1  0  0  0  0
 13 14  1  0  0  0  0
 13 15  1  0  0  0  0
 13 16  1  0  0  0  0
 16 17  1  0  0  0  0
 16 18  1  0  0  0  0
 16 19  1  0  0  0  0
 19 20  1  0  0  0  0
 19 21  1  0  0  0  0
 19 22  1  0  0  0  0
 22 23  1  0  0  0  0
 22 24  1  0  0  0  0
 22 25  1  0  0  0  0
M  END
> <VConfSearch Rank>
163

> <Conf_Id>
37

> <Delta U+W>
-0.230

> <U+W>
-51.860

> <U>
7.816

> <W>
-59.675

> <W(PB)>
-62.180

> <W(SA)>
2.505

> <Valence>
7.785

> <Coulomb>
-0.713

> <VdW>
0.744

> <VdW6>
-8.514

> <VdW12>
9.259

> <Bond>
0.136

> <Angle>
2.433

> <Pdih>
5.216

> <Idih>
0.000

> <Tether>
0.000

$$$$
VeraChem MOL file


 25 24  0  0  0  0  0  0  0  0999 V2000     
   23.4116   18.7118   21.3041 C   0  0  0  0  0  0  0  0  0  0  0  0
   24.2083   19.6243   21.4012 O   0  5  0  0  0  0  0  0  0  0  0  0
   22.8570   18.4104   20.2655 O   0  0  0  0  0  0  0  0  0  0  0  0
   23.1043   17.8901   22.5529 C   0  0  0  0  0  0  0  0  0  0  0  0
   24.0607   17.6582   23.0362 H   0  0  0  0  0  0  0  0  0  0  0  0
   22.6649   16.9340   22.2435 H   0  0  0  0  0  0  0  0  0  0  0  0
   22.1723   18.6057   23.5648 C   0  0  0  0  0  0  0  0  0  0  0  0
   22.1174   18.0069   24.4840 H   0  0  0  0  0  0  0  0  0  0  0  0
   22.6123   19.5734   23.8436 H   0  0  0  0  0  0  0  0  0  0  0  0
   20.7459   18.8198   23.0103 C   0  0  0  0  0  0  0  0  0  0  0  0
   20.3155   17.8513   22.7208 H   0  0  0  0  0  0  0  0  0  0  0  0
   20.7908   19.4331   22.0997 H   0  0  0  0  0  0  0  0  0  0  0  0
   19.8270   19.5045   24.0449 C   0  0  0  0  0  0  0  0  0  0  0  0
   19.7783   18.8916   24.9554 H   0  0  0  0  0  0  0  0  0  0  0  0
   20.2582   20.4729   24.3338 H   0  0  0  0  0  0  0  0  0  0  0  0
   18.4018   19.7194   23.4913 C   0  0  0  0  0  0  0  0  0  0  0  0
   17.9706   18.7511   23.2022 H   0  0  0  0  0  0  0  0  0  0  0  0
   18.4504   20.3323   22.5808 H   0  0  0  0  0  0  0  0  0  0  0  0
   17.4832   20.4044   24.5249 C   0  0  0  0  0  0  0  0  0  0  0  0
   17.4307   19.7931   25.4365 H   0  0  0  0  0  0  0  0  0  0  0  0
   17.9105   21.3743   24.8150 H   0  0  0  0  0  0  0  0  0  0  0  0
   16.0611   20.6171   23.9682 C   0  0  0  0  0  0  0  0  0  0  0  0
   15.5972   19.6591   23.6990 H   0  0  0  0  0  0  0  0  0  0  0  0
   15.4219   21.1049   24.7156 H   0  0  0  0  0  0  0  0  0  0  0  0
   16.0807   21.2521   23.0728 H   0  0  0  0  0  0  0  0  0  0  0  0
  1  2  1  0  0  0  0
  1  3  2  0  0  0  0
  1  4  1  0  0  0  0
  4  5  1  0  0  0  0
  4  6  1  0  0  0  0
  4  7  1  0  0  0  0
  7  8  1  0  0  0  0
  7  9  1  0  0  0  0
  7 10  1  0  0  0  0
 10 11  1  0  0  0  0
 10 12  1  0  0  0  0
 10 13  1  0  0  0  0
 13 14  1  0  0  0  0
 13 15  1  0  0  0  0
 13 16  1  0  0  0  0
 16 17  1  0  0  0  0
 16 18  1  0  0  0  0
 16 19  1  0  0  0  0
 19 20  1  0  0  0  0
 19 21  1  0  0  0  0
 19 22  1  0  0  0  0
 22 23  1  0  0  0  0
 22 24  1  0  0  0  0
 22 25  1  0  0  0  0
M  END
> <VConfSearch Rank>
164

> <Conf_Id>
54

> <Delta U+W>
-0.224

> <U+W>
-51.854

> <U>
7.816

> <W>
-59.670

> <W(PB)>
-62.157

> <W(SA)>
2.487

> <Valence>
7.785

> <Coulomb>
-0.713

> <VdW>
0.744

> <VdW6>
-8.515

> <VdW12>
9.259

> <Bond>
0.136

> <Angle>
2.433

> <Pdih>
5.215

> <Idih>
0.000

> <Tether>
0.000

$$$$
VeraChem MOL file


 25 24  0  0  0  0  0  0  0  0999 V2000     
   21.2668   17.8093   19.6477 C   0  0  0  0  0  0  0  0  0  0  0  0
   21.2985   16.5985   19.7468 O   0  5  0  0  0  0  0  0  0  0  0  0
   20.6860   18.3962   18.7559 O   0  0  0  0  0  0  0  0  0  0  0  0
   22.0121   18.6400   20.6888 C   0  0  0  0  0  0  0  0  0  0  0  0
   22.5854   19.4027   20.1488 H   0  0  0  0  0  0  0  0  0  0  0  0
   22.7402   17.9954   21.1959 H   0  0  0  0  0  0  0  0  0  0  0  0
   21.0889   19.3265   21.7290 C   0  0  0  0  0  0  0  0  0  0  0  0
   21.6956   20.0168   22.3284 H   0  0  0  0  0  0  0  0  0  0  0  0
   20.3397   19.9355   21.2044 H   0  0  0  0  0  0  0  0  0  0  0  0
   20.3820   18.3099   22.6579 C   0  0  0  0  0  0  0  0  0  0  0  0
   21.1318   17.7328   23.2159 H   0  0  0  0  0  0  0  0  0  0  0  0
   19.8300   17.5856   22.0433 H   0  0  0  0  0  0  0  0  0  0  0  0
   19.3873   18.9623   23.6478 C   0  0  0  0  0  0  0  0  0  0  0  0
   18.6490   19.5546   23.0904 H   0  0  0  0  0  0  0  0  0  0  0  0
   18.8296   18.1587   24.1453 H   0  0  0  0  0  0  0  0  0  0  0  0
   20.0710   19.8499   24.7171 C   0  0  0  0  0  0  0  0  0  0  0  0
   20.6234   20.6587   24.2224 H   0  0  0  0  0  0  0  0  0  0  0  0
   20.8128   19.2584   25.2707 H   0  0  0  0  0  0  0  0  0  0  0  0
   19.0748   20.4913   25.7113 C   0  0  0  0  0  0  0  0  0  0  0  0
   19.6199   21.2069   26.3422 H   0  0  0  0  0  0  0  0  0  0  0  0
   18.3235   21.0739   25.1603 H   0  0  0  0  0  0  0  0  0  0  0  0
   18.3702   19.4641   26.6242 C   0  0  0  0  0  0  0  0  0  0  0  0
   17.7132   18.7997   26.0494 H   0  0  0  0  0  0  0  0  0  0  0  0
   19.1029   18.8462   27.1594 H   0  0  0  0  0  0  0  0  0  0  0  0
   17.7508   19.9767   27.3715 H   0  0  0  0  0  0  0  0  0  0  0  0
  1  2  1  0  0  0  0
  1  3  2  0  0  0  0
  1  4  1  0  0  0  0
  4  5  1  0  0  0  0
  4  6  1  0  0  0  0
  4  7  1  0  0  0  0
  7  8  1  0  0  0  0
  7  9  1  0  0  0  0
  7 10  1  0  0  0  0
 10 11  1  0  0  0  0
 10 12  1  0  0  0  0
 10 13  1  0  0  0  0
 13 14  1  0  0  0  0
 13 15  1  0  0  0  0
 13 16  1  0  0  0  0
 16 17  1  0  0  0  0
 16 18  1  0  0  0  0
 16 19  1  0  0  0  0
 19 20  1  0  0  0  0
 19 21  1  0  0  0  0
 19 22  1  0  0  0  0
 22 23  1  0  0  0  0
 22 24  1  0  0  0  0
 22 25  1  0  0  0  0
M  END
> <VConfSearch Rank>
165

> <Conf_Id>
101

> <Delta U+W>
1.534

> <U+W>
-50.095

> <U>
9.416

> <W>
-59.512

> <W(PB)>
-61.988

> <W(SA)>
2.476

> <Valence>
8.939

> <Coulomb>
-0.615

> <VdW>
1.092

> <VdW6>
-9.710

> <VdW12>
10.802

> <Bond>
0.216

> <Angle>
2.979

> <Pdih>
5.743

> <Idih>
0.000

> <Tether>
0.000

$$$$
VeraChem MOL file


 25 24  0  0  0  0  0  0  0  0999 V2000     
   15.9790   19.4370   22.5064 C   0  0  0  0  0  0  0  0  0  0  0  0
   15.5747   18.3050   22.3281 O   0  5  0  0  0  0  0  0  0  0  0  0
   15.2606   20.3676   22.8141 O   0  0  0  0  0  0  0  0  0  0  0  0
   17.4733   19.6998   22.3579 C   0  0  0  0  0  0  0  0  0  0  0  0
   17.6035   20.7269   21.9966 H   0  0  0  0  0  0  0  0  0  0  0  0
   17.8527   19.0298   21.5784 H   0  0  0  0  0  0  0  0  0  0  0  0
   18.2522   19.4960   23.6835 C   0  0  0  0  0  0  0  0  0  0  0  0
   17.7820   20.1095   24.4646 H   0  0  0  0  0  0  0  0  0  0  0  0
   18.1552   18.4514   24.0102 H   0  0  0  0  0  0  0  0  0  0  0  0
   19.7488   19.8779   23.5898 C   0  0  0  0  0  0  0  0  0  0  0  0
   20.1727   19.8362   24.6013 H   0  0  0  0  0  0  0  0  0  0  0  0
   19.8434   20.9193   23.2538 H   0  0  0  0  0  0  0  0  0  0  0  0
   20.5635   18.9502   22.6550 C   0  0  0  0  0  0  0  0  0  0  0  0
   20.4696   17.9095   22.9913 H   0  0  0  0  0  0  0  0  0  0  0  0
   20.1365   18.9834   21.6449 H   0  0  0  0  0  0  0  0  0  0  0  0
   22.0601   19.3391   22.5487 C   0  0  0  0  0  0  0  0  0  0  0  0
   22.1352   20.3514   22.1288 H   0  0  0  0  0  0  0  0  0  0  0  0
   22.5441   18.6734   21.8212 H   0  0  0  0  0  0  0  0  0  0  0  0
   22.8580   19.2893   23.8754 C   0  0  0  0  0  0  0  0  0  0  0  0
   23.8953   19.5875   23.6700 H   0  0  0  0  0  0  0  0  0  0  0  0
   22.4653   20.0312   24.5831 H   0  0  0  0  0  0  0  0  0  0  0  0
   22.8646   17.8930   24.5344 C   0  0  0  0  0  0  0  0  0  0  0  0
   23.2315   17.1303   23.8353 H   0  0  0  0  0  0  0  0  0  0  0  0
   23.5184   17.8872   25.4160 H   0  0  0  0  0  0  0  0  0  0  0  0
   21.8590   17.6035   24.8644 H   0  0  0  0  0  0  0  0  0  0  0  0
  1  2  1  0  0  0  0
  1  3  2  0  0  0  0
  1  4  1  0  0  0  0
  4  5  1  0  0  0  0
  4  6  1  0  0  0  0
  4  7  1  0  0  0  0
  7  8  1  0  0  0  0
  7  9  1  0  0  0  0
  7 10  1  0  0  0  0
 10 11  1  0  0  0  0
 10 12  1  0  0  0  0
 10 13  1  0  0  0  0
 13 14  1  0  0  0  0
 13 15  1  0  0  0  0
 13 16  1  0  0  0  0
 16 17  1  0  0  0  0
 16 18  1  0  0  0  0
 16 19  1  0  0  0  0
 19 20  1  0  0  0  0
 19 21  1  0  0  0  0
 19 22  1  0  0  0  0
 22 23  1  0  0  0  0
 22 24  1  0  0  0  0
 22 25  1  0  0  0  0
M  END
> <VConfSearch Rank>
166

> <Conf_Id>
75

> <Delta U+W>
1.014

> <U+W>
-50.615

> <U>
8.474

> <W>
-59.089

> <W(PB)>
-61.530

> <W(SA)>
2.441

> <Valence>
9.080

> <Coulomb>
-1.772

> <VdW>
1.165

> <VdW6>
-9.830

> <VdW12>
10.996

> <Bond>
0.240

> <Angle>
3.225

> <Pdih>
5.615

> <Idih>
0.001

> <Tether>
0.000

$$$$
VeraChem MOL file


 25 24  0  0  0  0  0  0  0  0999 V2000     
   17.5528   20.0639   26.5548 C   0  0  0  0  0  0  0  0  0  0  0  0
   17.6483   21.2505   26.7988 O   0  5  0  0  0  0  0  0  0  0  0  0
   16.5725   19.3979   26.8236 O   0  0  0  0  0  0  0  0  0  0  0  0
   18.7191   19.3772   25.8532 C   0  0  0  0  0  0  0  0  0  0  0  0
   18.7611   18.3377   26.2000 H   0  0  0  0  0  0  0  0  0  0  0  0
   19.6464   19.8649   26.1771 H   0  0  0  0  0  0  0  0  0  0  0  0
   18.6029   19.4215   24.3096 C   0  0  0  0  0  0  0  0  0  0  0  0
   17.6637   18.9411   24.0022 H   0  0  0  0  0  0  0  0  0  0  0  0
   18.5488   20.4684   23.9799 H   0  0  0  0  0  0  0  0  0  0  0  0
   19.7957   18.7216   23.6229 C   0  0  0  0  0  0  0  0  0  0  0  0
   19.8462   17.6759   23.9558 H   0  0  0  0  0  0  0  0  0  0  0  0
   20.7294   19.1989   23.9433 H   0  0  0  0  0  0  0  0  0  0  0  0
   19.6720   18.7633   22.0816 C   0  0  0  0  0  0  0  0  0  0  0  0
   18.7430   18.2493   21.7992 H   0  0  0  0  0  0  0  0  0  0  0  0
   19.5659   19.8001   21.7342 H   0  0  0  0  0  0  0  0  0  0  0  0
   20.8544   18.0769   21.3515 C   0  0  0  0  0  0  0  0  0  0  0  0
   20.4592   17.5774   20.4565 H   0  0  0  0  0  0  0  0  0  0  0  0
   21.2765   17.2783   21.9768 H   0  0  0  0  0  0  0  0  0  0  0  0
   21.9761   19.0400   20.8899 C   0  0  0  0  0  0  0  0  0  0  0  0
   22.7162   18.4641   20.3174 H   0  0  0  0  0  0  0  0  0  0  0  0
   21.5606   19.7826   20.1947 H   0  0  0  0  0  0  0  0  0  0  0  0
   22.6998   19.7668   22.0424 C   0  0  0  0  0  0  0  0  0  0  0  0
   23.0691   19.0519   22.7891 H   0  0  0  0  0  0  0  0  0  0  0  0
   23.5596   20.3319   21.6600 H   0  0  0  0  0  0  0  0  0  0  0  0
   22.0319   20.4798   22.5416 H   0  0  0  0  0  0  0  0  0  0  0  0
  1  2  1  0  0  0  0
  1  3  2  0  0  0  0
  1  4  1  0  0  0  0
  4  5  1  0  0  0  0
  4  6  1  0  0  0  0
  4  7  1  0  0  0  0
  7  8  1  0  0  0  0
  7  9  1  0  0  0  0
  7 10  1  0  0  0  0
 10 11  1  0  0  0  0
 10 12  1  0  0  0  0
 10 13  1  0  0  0  0
 13 14  1  0  0  0  0
 13 15  1  0  0  0  0
 13 16  1  0  0  0  0
 16 17  1  0  0  0  0
 16 18  1  0  0  0  0
 16 19  1  0  0  0  0
 19 20  1  0  0  0  0
 19 21  1  0  0  0  0
 19 22  1  0  0  0  0
 22 23  1  0  0  0  0
 22 24  1  0  0  0  0
 22 25  1  0  0  0  0
M  END
> <VConfSearch Rank>
167

> <Conf_Id>
125

> <Delta U+W>
2.314

> <U+W>
-49.315

> <U>
9.740

> <W>
-59.054

> <W(PB)>
-61.488

> <W(SA)>
2.433

> <Valence>
10.506

> <Coulomb>
-1.761

> <VdW>
0.994

> <VdW6>
-9.209

> <VdW12>
10.203

> <Bond>
0.193

> <Angle>
2.979

> <Pdih>
7.334

> <Idih>
0.001

> <Tether>
0.000

$$$$
VeraChem MOL file


 25 24  0  0  0  0  0  0  0  0999 V2000     
   17.4580   21.2973   21.0495 C   0  0  0  0  0  0  0  0  0  0  0  0
   16.7805   21.9115   21.8498 O   0  5  0  0  0  0  0  0  0  0  0  0
   17.2289   21.2674   19.8565 O   0  0  0  0  0  0  0  0  0  0  0  0
   18.6472   20.5006   21.5741 C   0  0  0  0  0  0  0  0  0  0  0  0
   19.0564   21.0414   22.4349 H   0  0  0  0  0  0  0  0  0  0  0  0
   19.4205   20.4922   20.7968 H   0  0  0  0  0  0  0  0  0  0  0  0
   18.2692   19.0492   21.9689 C   0  0  0  0  0  0  0  0  0  0  0  0
   17.5287   19.0708   22.7804 H   0  0  0  0  0  0  0  0  0  0  0  0
   17.7767   18.5680   21.1125 H   0  0  0  0  0  0  0  0  0  0  0  0
   19.4827   18.1872   22.3911 C   0  0  0  0  0  0  0  0  0  0  0  0
   20.2168   18.1597   21.5741 H   0  0  0  0  0  0  0  0  0  0  0  0
   19.1411   17.1533   22.5369 H   0  0  0  0  0  0  0  0  0  0  0  0
   20.1656   18.6797   23.6881 C   0  0  0  0  0  0  0  0  0  0  0  0
   20.5705   19.6866   23.5306 H   0  0  0  0  0  0  0  0  0  0  0  0
   19.4192   18.7535   24.4906 H   0  0  0  0  0  0  0  0  0  0  0  0
   21.3040   17.7301   24.1281 C   0  0  0  0  0  0  0  0  0  0  0  0
   22.0755   17.6907   23.3470 H   0  0  0  0  0  0  0  0  0  0  0  0
   20.9041   16.7113   24.2221 H   0  0  0  0  0  0  0  0  0  0  0  0
   21.9515   18.1286   25.4749 C   0  0  0  0  0  0  0  0  0  0  0  0
   21.1835   18.1637   26.2599 H   0  0  0  0  0  0  0  0  0  0  0  0
   22.6612   17.3435   25.7704 H   0  0  0  0  0  0  0  0  0  0  0  0
   22.6992   19.4785   25.4189 C   0  0  0  0  0  0  0  0  0  0  0  0
   22.0084   20.3123   25.2419 H   0  0  0  0  0  0  0  0  0  0  0  0
   23.2152   19.6711   26.3684 H   0  0  0  0  0  0  0  0  0  0  0  0
   23.4515   19.4782   24.6195 H   0  0  0  0  0  0  0  0  0  0  0  0
  1  2  1  0  0  0  0
  1  3  2  0  0  0  0
  1  4  1  0  0  0  0
  4  5  1  0  0  0  0
  4  6  1  0  0  0  0
  4  7  1  0  0  0  0
  7  8  1  0  0  0  0
  7  9  1  0  0  0  0
  7 10  1  0  0  0  0
 10 11  1  0  0  0  0
 10 12  1  0  0  0  0
 10 13  1  0  0  0  0
 13 14  1  0  0  0  0
 13 15  1  0  0  0  0
 13 16  1  0  0  0  0
 16 17  1  0  0  0  0
 16 18  1  0  0  0  0
 16 19  1  0  0  0  0
 19 20  1  0  0  0  0
 19 21  1  0  0  0  0
 19 22  1  0  0  0  0
 22 23  1  0  0  0  0
 22 24  1  0  0  0  0
 22 25  1  0  0  0  0
M  END
> <VConfSearch Rank>
168

> <Conf_Id>
4

> <Delta U+W>
0.189

> <U+W>
-51.441

> <U>
7.701

> <W>
-59.141

> <W(PB)>
-61.609

> <W(SA)>
2.467

> <Valence>
8.550

> <Coulomb>
-1.988

> <VdW>
1.139

> <VdW6>
-8.988

> <VdW12>
10.127

> <Bond>
0.191

> <Angle>
2.738

> <Pdih>
5.621

> <Idih>
0.001

> <Tether>
0.000

$$$$
VeraChem MOL file


 25 24  0  0  0  0  0  0  0  0999 V2000     
   23.6388   19.8381   21.4694 C   0  0  0  0  0  0  0  0  0  0  0  0
   24.4417   19.9609   22.3732 O   0  5  0  0  0  0  0  0  0  0  0  0
   23.9502   19.7736   20.2965 O   0  0  0  0  0  0  0  0  0  0  0  0
   22.1607   19.7359   21.8282 C   0  0  0  0  0  0  0  0  0  0  0  0
   21.5806   20.1784   21.0096 H   0  0  0  0  0  0  0  0  0  0  0  0
   21.9909   20.3522   22.7181 H   0  0  0  0  0  0  0  0  0  0  0  0
   21.7043   18.2750   22.0789 C   0  0  0  0  0  0  0  0  0  0  0  0
   21.9751   17.6663   21.2052 H   0  0  0  0  0  0  0  0  0  0  0  0
   22.2592   17.8585   22.9310 H   0  0  0  0  0  0  0  0  0  0  0  0
   20.1834   18.1363   22.3272 C   0  0  0  0  0  0  0  0  0  0  0  0
   19.9350   17.0672   22.3762 H   0  0  0  0  0  0  0  0  0  0  0  0
   19.6316   18.5446   21.4694 H   0  0  0  0  0  0  0  0  0  0  0  0
   19.7071   18.8241   23.6277 C   0  0  0  0  0  0  0  0  0  0  0  0
   20.2947   18.4502   24.4771 H   0  0  0  0  0  0  0  0  0  0  0  0
   19.8888   19.9035   23.5601 H   0  0  0  0  0  0  0  0  0  0  0  0
   18.2041   18.5705   23.8884 C   0  0  0  0  0  0  0  0  0  0  0  0
   18.0191   17.4876   23.8915 H   0  0  0  0  0  0  0  0  0  0  0  0
   17.6103   18.9852   23.0624 H   0  0  0  0  0  0  0  0  0  0  0  0
   17.7048   19.1567   25.2296 C   0  0  0  0  0  0  0  0  0  0  0  0
   16.6677   18.8321   25.3916 H   0  0  0  0  0  0  0  0  0  0  0  0
   18.2933   18.7400   26.0587 H   0  0  0  0  0  0  0  0  0  0  0  0
   17.7561   20.6993   25.2802 C   0  0  0  0  0  0  0  0  0  0  0  0
   17.2003   21.1386   24.4416 H   0  0  0  0  0  0  0  0  0  0  0  0
   17.3084   21.0677   26.2123 H   0  0  0  0  0  0  0  0  0  0  0  0
   18.7887   21.0676   25.2400 H   0  0  0  0  0  0  0  0  0  0  0  0
  1  2  1  0  0  0  0
  1  3  2  0  0  0  0
  1  4  1  0  0  0  0
  4  5  1  0  0  0  0
  4  6  1  0  0  0  0
  4  7  1  0  0  0  0
  7  8  1  0  0  0  0
  7  9  1  0  0  0  0
  7 10  1  0  0  0  0
 10 11  1  0  0  0  0
 10 12  1  0  0  0  0
 10 13  1  0  0  0  0
 13 14  1  0  0  0  0
 13 15  1  0  0  0  0
 13 16  1  0  0  0  0
 16 17  1  0  0  0  0
 16 18  1  0  0  0  0
 16 19  1  0  0  0  0
 19 20  1  0  0  0  0
 19 21  1  0  0  0  0
 19 22  1  0  0  0  0
 22 23  1  0  0  0  0
 22 24  1  0  0  0  0
 22 25  1  0  0  0  0
M  END
> <VConfSearch Rank>
169

> <Conf_Id>
17

> <Delta U+W>
0.219

> <U+W>
-51.411

> <U>
7.701

> <W>
-59.111

> <W(PB)>
-61.599

> <W(SA)>
2.488

> <Valence>
8.550

> <Coulomb>
-1.988

> <VdW>
1.139

> <VdW6>
-8.988

> <VdW12>
10.127

> <Bond>
0.191

> <Angle>
2.738

> <Pdih>
5.621

> <Idih>
0.001

> <Tether>
0.000

$$$$
VeraChem MOL file


 25 24  0  0  0  0  0  0  0  0999 V2000     
   21.5843   16.5590   25.4282 C   0  0  0  0  0  0  0  0  0  0  0  0
   21.2408   16.6346   26.5915 O   0  5  0  0  0  0  0  0  0  0  0  0
   22.7316   16.7048   25.0547 O   0  0  0  0  0  0  0  0  0  0  0  0
   20.5214   16.2448   24.3793 C   0  0  0  0  0  0  0  0  0  0  0  0
   19.6552   15.7976   24.8818 H   0  0  0  0  0  0  0  0  0  0  0  0
   20.9334   15.4769   23.7140 H   0  0  0  0  0  0  0  0  0  0  0  0
   20.0809   17.4737   23.5422 C   0  0  0  0  0  0  0  0  0  0  0  0
   20.9663   17.9146   23.0653 H   0  0  0  0  0  0  0  0  0  0  0  0
   19.4191   17.1359   22.7334 H   0  0  0  0  0  0  0  0  0  0  0  0
   19.3462   18.5370   24.3932 C   0  0  0  0  0  0  0  0  0  0  0  0
   20.0239   18.9330   25.1621 H   0  0  0  0  0  0  0  0  0  0  0  0
   18.5181   18.0545   24.9302 H   0  0  0  0  0  0  0  0  0  0  0  0
   18.7746   19.7072   23.5580 C   0  0  0  0  0  0  0  0  0  0  0  0
   18.0898   19.3143   22.7942 H   0  0  0  0  0  0  0  0  0  0  0  0
   18.1705   20.3435   24.2191 H   0  0  0  0  0  0  0  0  0  0  0  0
   19.8645   20.5737   22.8854 C   0  0  0  0  0  0  0  0  0  0  0  0
   20.4305   19.9706   22.1638 H   0  0  0  0  0  0  0  0  0  0  0  0
   20.5789   20.9196   23.6450 H   0  0  0  0  0  0  0  0  0  0  0  0
   19.2565   21.7914   22.1578 C   0  0  0  0  0  0  0  0  0  0  0  0
   18.5399   21.4488   21.3985 H   0  0  0  0  0  0  0  0  0  0  0  0
   18.6940   22.4078   22.8727 H   0  0  0  0  0  0  0  0  0  0  0  0
   20.3442   22.6524   21.4846 C   0  0  0  0  0  0  0  0  0  0  0  0
   20.9021   22.0691   20.7403 H   0  0  0  0  0  0  0  0  0  0  0  0
   19.8945   23.5132   20.9728 H   0  0  0  0  0  0  0  0  0  0  0  0
   21.0580   23.0340   22.2263 H   0  0  0  0  0  0  0  0  0  0  0  0
  1  2  1  0  0  0  0
  1  3  2  0  0  0  0
  1  4  1  0  0  0  0
  4  5  1  0  0  0  0
  4  6  1  0  0  0  0
  4  7  1  0  0  0  0
  7  8  1  0  0  0  0
  7  9  1  0  0  0  0
  7 10  1  0  0  0  0
 10 11  1  0  0  0  0
 10 12  1  0  0  0  0
 10 13  1  0  0  0  0
 13 14  1  0  0  0  0
 13 15  1  0  0  0  0
 13 16  1  0  0  0  0
 16 17  1  0  0  0  0
 16 18  1  0  0  0  0
 16 19  1  0  0  0  0
 19 20  1  0  0  0  0
 19 21  1  0  0  0  0
 19 22  1  0  0  0  0
 22 23  1  0  0  0  0
 22 24  1  0  0  0  0
 22 25  1  0  0  0  0
M  END
> <VConfSearch Rank>
170

> <Conf_Id>
142

> <Delta U+W>
0.593

> <U+W>
-51.037

> <U>
8.903

> <W>
-59.940

> <W(PB)>
-62.418

> <W(SA)>
2.478

> <Valence>
8.305

> <Coulomb>
-0.223

> <VdW>
0.821

> <VdW6>
-9.236

> <VdW12>
10.057

> <Bond>
0.173

> <Angle>
2.663

> <Pdih>
5.469

> <Idih>
0.001

> <Tether>
0.000

$$$$
VeraChem MOL file


 25 24  0  0  0  0  0  0  0  0999 V2000     
   23.5633   18.2353   22.7006 C   0  0  0  0  0  0  0  0  0  0  0  0
   24.2831   18.0645   21.7361 O   0  5  0  0  0  0  0  0  0  0  0  0
   23.9206   18.8042   23.7134 O   0  0  0  0  0  0  0  0  0  0  0  0
   22.1430   17.6800   22.6444 C   0  0  0  0  0  0  0  0  0  0  0  0
   21.7309   17.6655   23.6599 H   0  0  0  0  0  0  0  0  0  0  0  0
   22.2139   16.6344   22.3230 H   0  0  0  0  0  0  0  0  0  0  0  0
   21.1985   18.4509   21.6822 C   0  0  0  0  0  0  0  0  0  0  0  0
   21.6054   18.3871   20.6636 H   0  0  0  0  0  0  0  0  0  0  0  0
   20.2249   17.9451   21.6488 H   0  0  0  0  0  0  0  0  0  0  0  0
   20.9980   19.9458   22.0426 C   0  0  0  0  0  0  0  0  0  0  0  0
   20.3238   20.3993   21.3034 H   0  0  0  0  0  0  0  0  0  0  0  0
   21.9574   20.4707   21.9373 H   0  0  0  0  0  0  0  0  0  0  0  0
   20.4398   20.2153   23.4625 C   0  0  0  0  0  0  0  0  0  0  0  0
   21.1569   19.8672   24.2179 H   0  0  0  0  0  0  0  0  0  0  0  0
   20.3584   21.3019   23.6006 H   0  0  0  0  0  0  0  0  0  0  0  0
   19.0570   19.5715   23.7157 C   0  0  0  0  0  0  0  0  0  0  0  0
   19.1371   18.4785   23.6528 H   0  0  0  0  0  0  0  0  0  0  0  0
   18.3555   19.8884   22.9320 H   0  0  0  0  0  0  0  0  0  0  0  0
   18.4933   19.9568   25.0996 C   0  0  0  0  0  0  0  0  0  0  0  0
   19.1949   19.6430   25.8849 H   0  0  0  0  0  0  0  0  0  0  0  0
   18.4012   21.0494   25.1715 H   0  0  0  0  0  0  0  0  0  0  0  0
   17.1170   19.3091   25.3530 C   0  0  0  0  0  0  0  0  0  0  0  0
   17.1861   18.2140   25.3188 H   0  0  0  0  0  0  0  0  0  0  0  0
   16.7315   19.5937   26.3406 H   0  0  0  0  0  0  0  0  0  0  0  0
   16.3870   19.6304   24.5986 H   0  0  0  0  0  0  0  0  0  0  0  0
  1  2  1  0  0  0  0
  1  3  2  0  0  0  0
  1  4  1  0  0  0  0
  4  5  1  0  0  0  0
  4  6  1  0  0  0  0
  4  7  1  0  0  0  0
  7  8  1  0  0  0  0
  7  9  1  0  0  0  0
  7 10  1  0  0  0  0
 10 11  1  0  0  0  0
 10 12  1  0  0  0  0
 10 13  1  0  0  0  0
 13 14  1  0  0  0  0
 13 15  1  0  0  0  0
 13 16  1  0  0  0  0
 16 17  1  0  0  0  0
 16 18  1  0  0  0  0
 16 19  1  0  0  0  0
 19 20  1  0  0  0  0
 19 21  1  0  0  0  0
 19 22  1  0  0  0  0
 22 23  1  0  0  0  0
 22 24  1  0  0  0  0
 22 25  1  0  0  0  0
M  END
> <VConfSearch Rank>
171

> <Conf_Id>
135

> <Delta U+W>
1.314

> <U+W>
-50.316

> <U>
9.773

> <W>
-60.088

> <W(PB)>
-62.535

> <W(SA)>
2.447

> <Valence>
8.741

> <Coulomb>
0.479

> <VdW>
0.552

> <VdW6>
-10.627

> <VdW12>
11.179

> <Bond>
0.227

> <Angle>
3.155

> <Pdih>
5.358

> <Idih>
0.001

> <Tether>
0.000

$$$$
VeraChem MOL file


 25 24  0  0  0  0  0  0  0  0999 V2000     
   15.9408   19.6275   23.8375 C   0  0  0  0  0  0  0  0  0  0  0  0
   15.4757   18.8303   24.6279 O   0  5  0  0  0  0  0  0  0  0  0  0
   15.3906   20.6652   23.5256 O   0  0  0  0  0  0  0  0  0  0  0  0
   17.3004   19.3199   23.2201 C   0  0  0  0  0  0  0  0  0  0  0  0
   17.3220   19.7531   22.2130 H   0  0  0  0  0  0  0  0  0  0  0  0
   17.3761   18.2327   23.1086 H   0  0  0  0  0  0  0  0  0  0  0  0
   18.4798   19.8696   24.0643 C   0  0  0  0  0  0  0  0  0  0  0  0
   18.3168   20.9426   24.2362 H   0  0  0  0  0  0  0  0  0  0  0  0
   18.4774   19.3937   25.0547 H   0  0  0  0  0  0  0  0  0  0  0  0
   19.8629   19.6819   23.3961 C   0  0  0  0  0  0  0  0  0  0  0  0
   20.6012   20.2357   23.9896 H   0  0  0  0  0  0  0  0  0  0  0  0
   19.8551   20.1365   22.3961 H   0  0  0  0  0  0  0  0  0  0  0  0
   20.3043   18.2021   23.2973 C   0  0  0  0  0  0  0  0  0  0  0  0
   20.3665   17.7723   24.3062 H   0  0  0  0  0  0  0  0  0  0  0  0
   19.5390   17.6255   22.7632 H   0  0  0  0  0  0  0  0  0  0  0  0
   21.6528   17.9894   22.5638 C   0  0  0  0  0  0  0  0  0  0  0  0
   21.5724   18.3309   21.5227 H   0  0  0  0  0  0  0  0  0  0  0  0
   21.8312   16.9068   22.5089 H   0  0  0  0  0  0  0  0  0  0  0  0
   22.8769   18.6449   23.2508 C   0  0  0  0  0  0  0  0  0  0  0  0
   22.7008   18.7434   24.3308 H   0  0  0  0  0  0  0  0  0  0  0  0
   23.7413   17.9752   23.1426 H   0  0  0  0  0  0  0  0  0  0  0  0
   23.2544   20.0138   22.6419 C   0  0  0  0  0  0  0  0  0  0  0  0
   22.4351   20.7371   22.7243 H   0  0  0  0  0  0  0  0  0  0  0  0
   24.1274   20.4355   23.1566 H   0  0  0  0  0  0  0  0  0  0  0  0
   23.5088   19.9109   21.5790 H   0  0  0  0  0  0  0  0  0  0  0  0
  1  2  1  0  0  0  0
  1  3  2  0  0  0  0
  1  4  1  0  0  0  0
  4  5  1  0  0  0  0
  4  6  1  0  0  0  0
  4  7  1  0  0  0  0
  7  8  1  0  0  0  0
  7  9  1  0  0  0  0
  7 10  1  0  0  0  0
 10 11  1  0  0  0  0
 10 12  1  0  0  0  0
 10 13  1  0  0  0  0
 13 14  1  0  0  0  0
 13 15  1  0  0  0  0
 13 16  1  0  0  0  0
 16 17  1  0  0  0  0
 16 18  1  0  0  0  0
 16 19  1  0  0  0  0
 19 20  1  0  0  0  0
 19 21  1  0  0  0  0
 19 22  1  0  0  0  0
 22 23  1  0  0  0  0
 22 24  1  0  0  0  0
 22 25  1  0  0  0  0
M  END
> <VConfSearch Rank>
172

> <Conf_Id>
19

> <Delta U+W>
3.222

> <U+W>
-48.407

> <U>
10.617

> <W>
-59.025

> <W(PB)>
-61.462

> <W(SA)>
2.437

> <Valence>
11.188

> <Coulomb>
-1.778

> <VdW>
1.208

> <VdW6>
-9.786

> <VdW12>
10.993

> <Bond>
0.241

> <Angle>
3.294

> <Pdih>
7.653

> <Idih>
0.001

> <Tether>
0.000

$$$$
VeraChem MOL file


 25 24  0  0  0  0  0  0  0  0999 V2000     
   21.9411   21.1416   20.0083 C   0  0  0  0  0  0  0  0  0  0  0  0
   21.6190   20.6918   18.9263 O   0  5  0  0  0  0  0  0  0  0  0  0
   22.9433   21.8043   20.1904 O   0  0  0  0  0  0  0  0  0  0  0  0
   21.0510   20.8381   21.2082 C   0  0  0  0  0  0  0  0  0  0  0  0
   20.0169   20.7875   20.8502 H   0  0  0  0  0  0  0  0  0  0  0  0
   21.1147   21.6854   21.9013 H   0  0  0  0  0  0  0  0  0  0  0  0
   21.4476   19.5244   21.9312 C   0  0  0  0  0  0  0  0  0  0  0  0
   21.3342   18.6759   21.2424 H   0  0  0  0  0  0  0  0  0  0  0  0
   22.5149   19.5746   22.1875 H   0  0  0  0  0  0  0  0  0  0  0  0
   20.6417   19.2599   23.2257 C   0  0  0  0  0  0  0  0  0  0  0  0
   20.7361   20.1201   23.9022 H   0  0  0  0  0  0  0  0  0  0  0  0
   21.0987   18.4034   23.7373 H   0  0  0  0  0  0  0  0  0  0  0  0
   19.1466   18.9540   22.9697 C   0  0  0  0  0  0  0  0  0  0  0  0
   18.6963   19.7754   22.3988 H   0  0  0  0  0  0  0  0  0  0  0  0
   19.0607   18.0575   22.3407 H   0  0  0  0  0  0  0  0  0  0  0  0
   18.3085   18.7602   24.2586 C   0  0  0  0  0  0  0  0  0  0  0  0
   17.2647   18.6049   23.9532 H   0  0  0  0  0  0  0  0  0  0  0  0
   18.3106   19.6852   24.8512 H   0  0  0  0  0  0  0  0  0  0  0  0
   18.7366   17.5585   25.1378 C   0  0  0  0  0  0  0  0  0  0  0  0
   17.8352   17.0911   25.5576 H   0  0  0  0  0  0  0  0  0  0  0  0
   19.2207   16.7883   24.5217 H   0  0  0  0  0  0  0  0  0  0  0  0
   19.6562   17.9622   26.3120 C   0  0  0  0  0  0  0  0  0  0  0  0
   19.1494   18.6731   26.9775 H   0  0  0  0  0  0  0  0  0  0  0  0
   19.9283   17.0810   26.9072 H   0  0  0  0  0  0  0  0  0  0  0  0
   20.5836   18.4297   25.9622 H   0  0  0  0  0  0  0  0  0  0  0  0
  1  2  1  0  0  0  0
  1  3  2  0  0  0  0
  1  4  1  0  0  0  0
  4  5  1  0  0  0  0
  4  6  1  0  0  0  0
  4  7  1  0  0  0  0
  7  8  1  0  0  0  0
  7  9  1  0  0  0  0
  7 10  1  0  0  0  0
 10 11  1  0  0  0  0
 10 12  1  0  0  0  0
 10 13  1  0  0  0  0
 13 14  1  0  0  0  0
 13 15  1  0  0  0  0
 13 16  1  0  0  0  0
 16 17  1  0  0  0  0
 16 18  1  0  0  0  0
 16 19  1  0  0  0  0
 19 20  1  0  0  0  0
 19 21  1  0  0  0  0
 19 22  1  0  0  0  0
 22 23  1  0  0  0  0
 22 24  1  0  0  0  0
 22 25  1  0  0  0  0
M  END
> <VConfSearch Rank>
173

> <Conf_Id>
20

> <Delta U+W>
3.224

> <U+W>
-48.406

> <U>
10.617

> <W>
-59.023

> <W(PB)>
-61.467

> <W(SA)>
2.444

> <Valence>
11.188

> <Coulomb>
-1.778

> <VdW>
1.208

> <VdW6>
-9.786

> <VdW12>
10.993

> <Bond>
0.241

> <Angle>
3.294

> <Pdih>
7.653

> <Idih>
0.001

> <Tether>
0.000

$$$$
VeraChem MOL file


 25 24  0  0  0  0  0  0  0  0999 V2000     
   17.6680   19.2690   25.8768 C   0  0  0  0  0  0  0  0  0  0  0  0
   17.6643   20.3919   26.3422 O   0  5  0  0  0  0  0  0  0  0  0  0
   18.2004   18.3202   26.4187 O   0  0  0  0  0  0  0  0  0  0  0  0
   16.9077   19.0211   24.5753 C   0  0  0  0  0  0  0  0  0  0  0  0
   15.8537   19.2328   24.7893 H   0  0  0  0  0  0  0  0  0  0  0  0
   16.9689   17.9553   24.3241 H   0  0  0  0  0  0  0  0  0  0  0  0
   17.3622   19.8864   23.3663 C   0  0  0  0  0  0  0  0  0  0  0  0
   16.5454   19.8987   22.6321 H   0  0  0  0  0  0  0  0  0  0  0  0
   17.4992   20.9297   23.6830 H   0  0  0  0  0  0  0  0  0  0  0  0
   18.6360   19.3784   22.6463 C   0  0  0  0  0  0  0  0  0  0  0  0
   18.7705   19.9708   21.7309 H   0  0  0  0  0  0  0  0  0  0  0  0
   18.4880   18.3392   22.3222 H   0  0  0  0  0  0  0  0  0  0  0  0
   19.9229   19.4790   23.4962 C   0  0  0  0  0  0  0  0  0  0  0  0
   20.0155   20.4939   23.9067 H   0  0  0  0  0  0  0  0  0  0  0  0
   19.8610   18.7914   24.3491 H   0  0  0  0  0  0  0  0  0  0  0  0
   21.1817   19.1383   22.6692 C   0  0  0  0  0  0  0  0  0  0  0  0
   21.2590   19.8264   21.8162 H   0  0  0  0  0  0  0  0  0  0  0  0
   21.0852   18.1251   22.2555 H   0  0  0  0  0  0  0  0  0  0  0  0
   22.4662   19.2274   23.5198 C   0  0  0  0  0  0  0  0  0  0  0  0
   22.5661   20.2401   23.9345 H   0  0  0  0  0  0  0  0  0  0  0  0
   22.3933   18.5391   24.3734 H   0  0  0  0  0  0  0  0  0  0  0  0
   23.7213   18.8862   22.6917 C   0  0  0  0  0  0  0  0  0  0  0  0
   23.8360   19.5799   21.8484 H   0  0  0  0  0  0  0  0  0  0  0  0
   24.6245   18.9544   23.3119 H   0  0  0  0  0  0  0  0  0  0  0  0
   23.6619   17.8659   22.2907 H   0  0  0  0  0  0  0  0  0  0  0  0
  1  2  1  0  0  0  0
  1  3  2  0  0  0  0
  1  4  1  0  0  0  0
  4  5  1  0  0  0  0
  4  6  1  0  0  0  0
  4  7  1  0  0  0  0
  7  8  1  0  0  0  0
  7  9  1  0  0  0  0
  7 10  1  0  0  0  0
 10 11  1  0  0  0  0
 10 12  1  0  0  0  0
 10 13  1  0  0  0  0
 13 14  1  0  0  0  0
 13 15  1  0  0  0  0
 13 16  1  0  0  0  0
 16 17  1  0  0  0  0
 16 18  1  0  0  0  0
 16 19  1  0  0  0  0
 19 20  1  0  0  0  0
 19 21  1  0  0  0  0
 19 22  1  0  0  0  0
 22 23  1  0  0  0  0
 22 24  1  0  0  0  0
 22 25  1  0  0  0  0
M  END
> <VConfSearch Rank>
174

> <Conf_Id>
24

> <Delta U+W>
1.784

> <U+W>
-49.846

> <U>
10.904

> <W>
-60.749

> <W(PB)>
-63.220

> <W(SA)>
2.471

> <Valence>
9.445

> <Coulomb>
0.780

> <VdW>
0.679

> <VdW6>
-10.008

> <VdW12>
10.687

> <Bond>
0.201

> <Angle>
3.198

> <Pdih>
6.039

> <Idih>
0.006

> <Tether>
0.000

$$$$
VeraChem MOL file


 25 24  0  0  0  0  0  0  0  0999 V2000     
   17.0254   18.3249   23.3684 C   0  0  0  0  0  0  0  0  0  0  0  0
   16.4405   19.3053   23.7860 O   0  5  0  0  0  0  0  0  0  0  0  0
   17.1363   18.0628   22.1868 O   0  0  0  0  0  0  0  0  0  0  0  0
   17.5944   17.3337   24.3819 C   0  0  0  0  0  0  0  0  0  0  0  0
   18.0403   16.4891   23.8429 H   0  0  0  0  0  0  0  0  0  0  0  0
   16.7375   16.9345   24.9367 H   0  0  0  0  0  0  0  0  0  0  0  0
   18.6168   17.9294   25.3903 C   0  0  0  0  0  0  0  0  0  0  0  0
   18.2483   18.8914   25.7731 H   0  0  0  0  0  0  0  0  0  0  0  0
   18.6669   17.2585   26.2586 H   0  0  0  0  0  0  0  0  0  0  0  0
   20.0543   18.0935   24.8375 C   0  0  0  0  0  0  0  0  0  0  0  0
   20.4209   17.1261   24.4678 H   0  0  0  0  0  0  0  0  0  0  0  0
   20.7116   18.3739   25.6720 H   0  0  0  0  0  0  0  0  0  0  0  0
   20.1838   19.1577   23.7243 C   0  0  0  0  0  0  0  0  0  0  0  0
   19.6384   18.8302   22.8303 H   0  0  0  0  0  0  0  0  0  0  0  0
   19.7222   20.0976   24.0569 H   0  0  0  0  0  0  0  0  0  0  0  0
   21.6592   19.4113   23.3454 C   0  0  0  0  0  0  0  0  0  0  0  0
   22.1204   18.4696   23.0177 H   0  0  0  0  0  0  0  0  0  0  0  0
   22.2141   19.7482   24.2317 H   0  0  0  0  0  0  0  0  0  0  0  0
   21.7890   20.4655   22.2259 C   0  0  0  0  0  0  0  0  0  0  0  0
   21.2365   20.1311   21.3368 H   0  0  0  0  0  0  0  0  0  0  0  0
   21.3291   21.4091   22.5508 H   0  0  0  0  0  0  0  0  0  0  0  0
   23.2631   20.7164   21.8493 C   0  0  0  0  0  0  0  0  0  0  0  0
   23.7391   19.7944   21.4905 H   0  0  0  0  0  0  0  0  0  0  0  0
   23.3363   21.4679   21.0525 H   0  0  0  0  0  0  0  0  0  0  0  0
   23.8325   21.0823   22.7138 H   0  0  0  0  0  0  0  0  0  0  0  0
  1  2  1  0  0  0  0
  1  3  2  0  0  0  0
  1  4  1  0  0  0  0
  4  5  1  0  0  0  0
  4  6  1  0  0  0  0
  4  7  1  0  0  0  0
  7  8  1  0  0  0  0
  7  9  1  0  0  0  0
  7 10  1  0  0  0  0
 10 11  1  0  0  0  0
 10 12  1  0  0  0  0
 10 13  1  0  0  0  0
 13 14  1  0  0  0  0
 13 15  1  0  0  0  0
 13 16  1  0  0  0  0
 16 17  1  0  0  0  0
 16 18  1  0  0  0  0
 16 19  1  0  0  0  0
 19 20  1  0  0  0  0
 19 21  1  0  0  0  0
 19 22  1  0  0  0  0
 22 23  1  0  0  0  0
 22 24  1  0  0  0  0
 22 25  1  0  0  0  0
M  END
> <VConfSearch Rank>
175

> <Conf_Id>
9

> <Delta U+W>
1.764

> <U+W>
-49.865

> <U>
10.902

> <W>
-60.768

> <W(PB)>
-63.223

> <W(SA)>
2.456

> <Valence>
9.445

> <Coulomb>
0.778

> <VdW>
0.679

> <VdW6>
-10.007

> <VdW12>
10.687

> <Bond>
0.201

> <Angle>
3.198

> <Pdih>
6.040

> <Idih>
0.006

> <Tether>
0.000

$$$$
VeraChem MOL file


 25 24  0  0  0  0  0  0  0  0999 V2000     
   23.2405   19.9140   21.8094 C   0  0  0  0  0  0  0  0  0  0  0  0
   23.8494   19.3950   22.7240 O   0  5  0  0  0  0  0  0  0  0  0  0
   23.7387   20.1776   20.7328 O   0  0  0  0  0  0  0  0  0  0  0  0
   21.7645   20.2337   22.0167 C   0  0  0  0  0  0  0  0  0  0  0  0
   21.5303   21.1369   21.4407 H   0  0  0  0  0  0  0  0  0  0  0  0
   21.6212   20.4828   23.0726 H   0  0  0  0  0  0  0  0  0  0  0  0
   20.8327   19.0708   21.5842 C   0  0  0  0  0  0  0  0  0  0  0  0
   21.0148   18.8708   20.5191 H   0  0  0  0  0  0  0  0  0  0  0  0
   21.1041   18.1498   22.1185 H   0  0  0  0  0  0  0  0  0  0  0  0
   19.3266   19.3804   21.7793 C   0  0  0  0  0  0  0  0  0  0  0  0
   18.7715   18.9046   20.9593 H   0  0  0  0  0  0  0  0  0  0  0  0
   19.1425   20.4586   21.6778 H   0  0  0  0  0  0  0  0  0  0  0  0
   18.7268   18.8599   23.1098 C   0  0  0  0  0  0  0  0  0  0  0  0
   17.6466   19.0588   23.1022 H   0  0  0  0  0  0  0  0  0  0  0  0
   18.8400   17.7686   23.1508 H   0  0  0  0  0  0  0  0  0  0  0  0
   19.3451   19.4960   24.3772 C   0  0  0  0  0  0  0  0  0  0  0  0
   19.3666   20.5876   24.2576 H   0  0  0  0  0  0  0  0  0  0  0  0
   20.3865   19.1667   24.4874 H   0  0  0  0  0  0  0  0  0  0  0  0
   18.5703   19.1569   25.6719 C   0  0  0  0  0  0  0  0  0  0  0  0
   19.0107   19.7220   26.5049 H   0  0  0  0  0  0  0  0  0  0  0  0
   17.5296   19.4977   25.5819 H   0  0  0  0  0  0  0  0  0  0  0  0
   18.5959   17.6530   26.0212 C   0  0  0  0  0  0  0  0  0  0  0  0
   19.6273   17.2838   26.0916 H   0  0  0  0  0  0  0  0  0  0  0  0
   18.1060   17.4745   26.9871 H   0  0  0  0  0  0  0  0  0  0  0  0
   18.0680   17.0580   25.2655 H   0  0  0  0  0  0  0  0  0  0  0  0
  1  2  1  0  0  0  0
  1  3  2  0  0  0  0
  1  4  1  0  0  0  0
  4  5  1  0  0  0  0
  4  6  1  0  0  0  0
  4  7  1  0  0  0  0
  7  8  1  0  0  0  0
  7  9  1  0  0  0  0
  7 10  1  0  0  0  0
 10 11  1  0  0  0  0
 10 12  1  0  0  0  0
 10 13  1  0  0  0  0
 13 14  1  0  0  0  0
 13 15  1  0  0  0  0
 13 16  1  0  0  0  0
 16 17  1  0  0  0  0
 16 18  1  0  0  0  0
 16 19  1  0  0  0  0
 19 20  1  0  0  0  0
 19 21  1  0  0  0  0
 19 22  1  0  0  0  0
 22 23  1  0  0  0  0
 22 24  1  0  0  0  0
 22 25  1  0  0  0  0
M  END
> <VConfSearch Rank>
176

> <Conf_Id>
89

> <Delta U+W>
2.903

> <U+W>
-48.726

> <U>
10.996

> <W>
-59.723

> <W(PB)>
-62.151

> <W(SA)>
2.428

> <Valence>
10.985

> <Coulomb>
-0.995

> <VdW>
1.006

> <VdW6>
-10.062

> <VdW12>
11.069

> <Bond>
0.238

> <Angle>
3.202

> <Pdih>
7.544

> <Idih>
0.001

> <Tether>
0.000

$$$$
VeraChem MOL file


 25 24  0  0  0  0  0  0  0  0999 V2000     
   19.8157   21.9006   25.4079 C   0  0  0  0  0  0  0  0  0  0  0  0
   19.9104   21.3960   26.5096 O   0  5  0  0  0  0  0  0  0  0  0  0
   20.6331   22.6772   24.9537 O   0  0  0  0  0  0  0  0  0  0  0  0
   18.5706   21.5909   24.5790 C   0  0  0  0  0  0  0  0  0  0  0  0
   18.0301   22.5384   24.4709 H   0  0  0  0  0  0  0  0  0  0  0  0
   17.9178   20.9212   25.1518 H   0  0  0  0  0  0  0  0  0  0  0  0
   18.8430   21.0006   23.1666 C   0  0  0  0  0  0  0  0  0  0  0  0
   17.9537   21.1815   22.5479 H   0  0  0  0  0  0  0  0  0  0  0  0
   19.6634   21.5486   22.6825 H   0  0  0  0  0  0  0  0  0  0  0  0
   19.1322   19.4789   23.1401 C   0  0  0  0  0  0  0  0  0  0  0  0
   19.1354   19.1598   22.0904 H   0  0  0  0  0  0  0  0  0  0  0  0
   18.3083   18.9379   23.6249 H   0  0  0  0  0  0  0  0  0  0  0  0
   20.4749   19.0812   23.7998 C   0  0  0  0  0  0  0  0  0  0  0  0
   21.2949   19.6648   23.3596 H   0  0  0  0  0  0  0  0  0  0  0  0
   20.4447   19.3401   24.8651 H   0  0  0  0  0  0  0  0  0  0  0  0
   20.7937   17.5706   23.6908 C   0  0  0  0  0  0  0  0  0  0  0  0
   19.9585   16.9872   24.1017 H   0  0  0  0  0  0  0  0  0  0  0  0
   21.6642   17.3546   24.3253 H   0  0  0  0  0  0  0  0  0  0  0  0
   21.1001   17.1030   22.2497 C   0  0  0  0  0  0  0  0  0  0  0  0
   20.2161   17.2315   21.6120 H   0  0  0  0  0  0  0  0  0  0  0  0
   21.8983   17.7242   21.8205 H   0  0  0  0  0  0  0  0  0  0  0  0
   21.5299   15.6223   22.2155 C   0  0  0  0  0  0  0  0  0  0  0  0
   20.7384   14.9747   22.6147 H   0  0  0  0  0  0  0  0  0  0  0  0
   21.7409   15.3045   21.1861 H   0  0  0  0  0  0  0  0  0  0  0  0
   22.4376   15.4623   22.8120 H   0  0  0  0  0  0  0  0  0  0  0  0
  1  2  1  0  0  0  0
  1  3  2  0  0  0  0
  1  4  1  0  0  0  0
  4  5  1  0  0  0  0
  4  6  1  0  0  0  0
  4  7  1  0  0  0  0
  7  8  1  0  0  0  0
  7  9  1  0  0  0  0
  7 10  1  0  0  0  0
 10 11  1  0  0  0  0
 10 12  1  0  0  0  0
 10 13  1  0  0  0  0
 13 14  1  0  0  0  0
 13 15  1  0  0  0  0
 13 16  1  0  0  0  0
 16 17  1  0  0  0  0
 16 18  1  0  0  0  0
 16 19  1  0  0  0  0
 19 20  1  0  0  0  0
 19 21  1  0  0  0  0
 19 22  1  0  0  0  0
 22 23  1  0  0  0  0
 22 24  1  0  0  0  0
 22 25  1  0  0  0  0
M  END
> <VConfSearch Rank>
177

> <Conf_Id>
114

> <Delta U+W>
2.758

> <U+W>
-48.871

> <U>
11.422

> <W>
-60.293

> <W(PB)>
-62.719

> <W(SA)>
2.425

> <Valence>
10.135

> <Coulomb>
0.369

> <VdW>
0.918

> <VdW6>
-10.482

> <VdW12>
11.400

> <Bond>
0.245

> <Angle>
3.539

> <Pdih>
6.346

> <Idih>
0.006

> <Tether>
0.000

$$$$
VeraChem MOL file


 25 24  0  0  0  0  0  0  0  0999 V2000     
   22.7238   21.9566   23.1702 C   0  0  0  0  0  0  0  0  0  0  0  0
   23.2929   21.8101   22.1064 O   0  5  0  0  0  0  0  0  0  0  0  0
   22.0595   22.9355   23.4487 O   0  0  0  0  0  0  0  0  0  0  0  0
   22.8667   20.8616   24.2236 C   0  0  0  0  0  0  0  0  0  0  0  0
   23.0759   21.3525   25.1813 H   0  0  0  0  0  0  0  0  0  0  0  0
   23.7465   20.2540   23.9796 H   0  0  0  0  0  0  0  0  0  0  0  0
   21.6139   19.9589   24.3667 C   0  0  0  0  0  0  0  0  0  0  0  0
   21.7528   19.2898   25.2265 H   0  0  0  0  0  0  0  0  0  0  0  0
   20.7452   20.5911   24.5927 H   0  0  0  0  0  0  0  0  0  0  0  0
   21.3464   19.1128   23.0987 C   0  0  0  0  0  0  0  0  0  0  0  0
   22.2608   18.5617   22.8397 H   0  0  0  0  0  0  0  0  0  0  0  0
   21.1324   19.7731   22.2469 H   0  0  0  0  0  0  0  0  0  0  0  0
   20.1923   18.0955   23.2651 C   0  0  0  0  0  0  0  0  0  0  0  0
   20.1781   17.4512   22.3769 H   0  0  0  0  0  0  0  0  0  0  0  0
   20.3996   17.4402   24.1220 H   0  0  0  0  0  0  0  0  0  0  0  0
   18.8046   18.7608   23.4391 C   0  0  0  0  0  0  0  0  0  0  0  0
   18.5994   19.4187   22.5838 H   0  0  0  0  0  0  0  0  0  0  0  0
   18.8159   19.4019   24.3296 H   0  0  0  0  0  0  0  0  0  0  0  0
   17.6507   17.7430   23.5977 C   0  0  0  0  0  0  0  0  0  0  0  0
   17.8583   17.0756   24.4455 H   0  0  0  0  0  0  0  0  0  0  0  0
   16.7324   18.2901   23.8517 H   0  0  0  0  0  0  0  0  0  0  0  0
   17.3915   16.9050   22.3267 C   0  0  0  0  0  0  0  0  0  0  0  0
   16.5056   16.2706   22.4598 H   0  0  0  0  0  0  0  0  0  0  0  0
   17.2156   17.5527   21.4580 H   0  0  0  0  0  0  0  0  0  0  0  0
   18.2391   16.2465   22.0997 H   0  0  0  0  0  0  0  0  0  0  0  0
  1  2  1  0  0  0  0
  1  3  2  0  0  0  0
  1  4  1  0  0  0  0
  4  5  1  0  0  0  0
  4  6  1  0  0  0  0
  4  7  1  0  0  0  0
  7  8  1  0  0  0  0
  7  9  1  0  0  0  0
  7 10  1  0  0  0  0
 10 11  1  0  0  0  0
 10 12  1  0  0  0  0
 10 13  1  0  0  0  0
 13 14  1  0  0  0  0
 13 15  1  0  0  0  0
 13 16  1  0  0  0  0
 16 17  1  0  0  0  0
 16 18  1  0  0  0  0
 16 19  1  0  0  0  0
 19 20  1  0  0  0  0
 19 21  1  0  0  0  0
 19 22  1  0  0  0  0
 22 23  1  0  0  0  0
 22 24  1  0  0  0  0
 22 25  1  0  0  0  0
M  END
> <VConfSearch Rank>
178

> <Conf_Id>
87

> <Delta U+W>
1.453

> <U+W>
-50.176

> <U>
9.763

> <W>
-59.940

> <W(PB)>
-62.392

> <W(SA)>
2.452

> <Valence>
8.883

> <Coulomb>
-0.122

> <VdW>
1.003

> <VdW6>
-9.782

> <VdW12>
10.785

> <Bond>
0.212

> <Angle>
2.940

> <Pdih>
5.730

> <Idih>
0.001

> <Tether>
0.000

$$$$
VeraChem MOL file


 25 24  0  0  0  0  0  0  0  0999 V2000     
   22.8992   21.0728   25.2810 C   0  0  0  0  0  0  0  0  0  0  0  0
   22.4737   21.0671   26.4193 O   0  5  0  0  0  0  0  0  0  0  0  0
   24.0823   21.0527   25.0043 O   0  0  0  0  0  0  0  0  0  0  0  0
   21.8925   21.0873   24.1362 C   0  0  0  0  0  0  0  0  0  0  0  0
   22.3344   21.6439   23.3011 H   0  0  0  0  0  0  0  0  0  0  0  0
   21.0085   21.6456   24.4669 H   0  0  0  0  0  0  0  0  0  0  0  0
   21.4846   19.6661   23.6761 C   0  0  0  0  0  0  0  0  0  0  0  0
   22.3804   19.1163   23.3561 H   0  0  0  0  0  0  0  0  0  0  0  0
   21.0639   19.1227   24.5326 H   0  0  0  0  0  0  0  0  0  0  0  0
   20.4586   19.7097   22.5202 C   0  0  0  0  0  0  0  0  0  0  0  0
   20.8690   20.3152   21.7008 H   0  0  0  0  0  0  0  0  0  0  0  0
   19.5469   20.2239   22.8516 H   0  0  0  0  0  0  0  0  0  0  0  0
   20.1007   18.3101   21.9604 C   0  0  0  0  0  0  0  0  0  0  0  0
   19.4176   18.4326   21.1097 H   0  0  0  0  0  0  0  0  0  0  0  0
   21.0091   17.8509   21.5476 H   0  0  0  0  0  0  0  0  0  0  0  0
   19.4713   17.3280   22.9837 C   0  0  0  0  0  0  0  0  0  0  0  0
   20.2154   17.0758   23.7504 H   0  0  0  0  0  0  0  0  0  0  0  0
   19.2448   16.3844   22.4691 H   0  0  0  0  0  0  0  0  0  0  0  0
   18.1853   17.8365   23.6807 C   0  0  0  0  0  0  0  0  0  0  0  0
   17.8488   17.0729   24.3953 H   0  0  0  0  0  0  0  0  0  0  0  0
   18.4071   18.7324   24.2758 H   0  0  0  0  0  0  0  0  0  0  0  0
   17.0350   18.1365   22.6953 C   0  0  0  0  0  0  0  0  0  0  0  0
   16.8075   17.2578   22.0780 H   0  0  0  0  0  0  0  0  0  0  0  0
   16.1235   18.4124   23.2410 H   0  0  0  0  0  0  0  0  0  0  0  0
   17.2889   18.9699   22.0283 H   0  0  0  0  0  0  0  0  0  0  0  0
  1  2  1  0  0  0  0
  1  3  2  0  0  0  0
  1  4  1  0  0  0  0
  4  5  1  0  0  0  0
  4  6  1  0  0  0  0
  4  7  1  0  0  0  0
  7  8  1  0  0  0  0
  7  9  1  0  0  0  0
  7 10  1  0  0  0  0
 10 11  1  0  0  0  0
 10 12  1  0  0  0  0
 10 13  1  0  0  0  0
 13 14  1  0  0  0  0
 13 15  1  0  0  0  0
 13 16  1  0  0  0  0
 16 17  1  0  0  0  0
 16 18  1  0  0  0  0
 16 19  1  0  0  0  0
 19 20  1  0  0  0  0
 19 21  1  0  0  0  0
 19 22  1  0  0  0  0
 22 23  1  0  0  0  0
 22 24  1  0  0  0  0
 22 25  1  0  0  0  0
M  END
> <VConfSearch Rank>
179

> <Conf_Id>
29

> <Delta U+W>
0.850

> <U+W>
-50.780

> <U>
8.646

> <W>
-59.426

> <W(PB)>
-61.868

> <W(SA)>
2.442

> <Valence>
8.924

> <Coulomb>
-1.171

> <VdW>
0.894

> <VdW6>
-10.223

> <VdW12>
11.117

> <Bond>
0.231

> <Angle>
3.232

> <Pdih>
5.461

> <Idih>
0.001

> <Tether>
0.000

$$$$
VeraChem MOL file


 25 24  0  0  0  0  0  0  0  0999 V2000     
   20.6781   19.9461   27.1611 C   0  0  0  0  0  0  0  0  0  0  0  0
   19.7311   19.4071   27.6991 O   0  5  0  0  0  0  0  0  0  0  0  0
   21.2138   20.9496   27.5887 O   0  0  0  0  0  0  0  0  0  0  0  0
   21.2118   19.3406   25.8678 C   0  0  0  0  0  0  0  0  0  0  0  0
   21.0646   18.2549   25.9136 H   0  0  0  0  0  0  0  0  0  0  0  0
   22.2929   19.5203   25.8284 H   0  0  0  0  0  0  0  0  0  0  0  0
   20.5266   19.9191   24.6053 C   0  0  0  0  0  0  0  0  0  0  0  0
   19.4448   19.7450   24.6773 H   0  0  0  0  0  0  0  0  0  0  0  0
   20.6751   21.0074   24.5772 H   0  0  0  0  0  0  0  0  0  0  0  0
   21.0808   19.2833   23.3095 C   0  0  0  0  0  0  0  0  0  0  0  0
   20.8969   18.2009   23.3185 H   0  0  0  0  0  0  0  0  0  0  0  0
   22.1721   19.4067   23.2893 H   0  0  0  0  0  0  0  0  0  0  0  0
   20.4955   19.9068   22.0176 C   0  0  0  0  0  0  0  0  0  0  0  0
   20.7716   20.9692   21.9806 H   0  0  0  0  0  0  0  0  0  0  0  0
   20.9815   19.4437   21.1488 H   0  0  0  0  0  0  0  0  0  0  0  0
   18.9558   19.7902   21.8640 C   0  0  0  0  0  0  0  0  0  0  0  0
   18.6642   20.2468   20.9085 H   0  0  0  0  0  0  0  0  0  0  0  0
   18.4665   20.3920   22.6410 H   0  0  0  0  0  0  0  0  0  0  0  0
   18.3949   18.3479   21.9189 C   0  0  0  0  0  0  0  0  0  0  0  0
   18.5973   17.9009   22.9013 H   0  0  0  0  0  0  0  0  0  0  0  0
   17.3012   18.3936   21.8255 H   0  0  0  0  0  0  0  0  0  0  0  0
   18.9511   17.4341   20.8055 C   0  0  0  0  0  0  0  0  0  0  0  0
   20.0302   17.2739   20.9235 H   0  0  0  0  0  0  0  0  0  0  0  0
   18.4633   16.4513   20.8353 H   0  0  0  0  0  0  0  0  0  0  0  0
   18.7737   17.8705   19.8140 H   0  0  0  0  0  0  0  0  0  0  0  0
  1  2  1  0  0  0  0
  1  3  2  0  0  0  0
  1  4  1  0  0  0  0
  4  5  1  0  0  0  0
  4  6  1  0  0  0  0
  4  7  1  0  0  0  0
  7  8  1  0  0  0  0
  7  9  1  0  0  0  0
  7 10  1  0  0  0  0
 10 11  1  0  0  0  0
 10 12  1  0  0  0  0
 10 13  1  0  0  0  0
 13 14  1  0  0  0  0
 13 15  1  0  0  0  0
 13 16  1  0  0  0  0
 16 17  1  0  0  0  0
 16 18  1  0  0  0  0
 16 19  1  0  0  0  0
 19 20  1  0  0  0  0
 19 21  1  0  0  0  0
 19 22  1  0  0  0  0
 22 23  1  0  0  0  0
 22 24  1  0  0  0  0
 22 25  1  0  0  0  0
M  END
> <VConfSearch Rank>
180

> <Conf_Id>
30

> <Delta U+W>
0.843

> <U+W>
-50.787

> <U>
8.647

> <W>
-59.434

> <W(PB)>
-61.861

> <W(SA)>
2.428

> <Valence>
8.924

> <Coulomb>
-1.170

> <VdW>
0.894

> <VdW6>
-10.224

> <VdW12>
11.118

> <Bond>
0.231

> <Angle>
3.232

> <Pdih>
5.460

> <Idih>
0.000

> <Tether>
0.000

$$$$
VeraChem MOL file


 25 24  0  0  0  0  0  0  0  0999 V2000     
   23.3278   22.5452   23.5406 C   0  0  0  0  0  0  0  0  0  0  0  0
   24.2332   21.7552   23.7272 O   0  5  0  0  0  0  0  0  0  0  0  0
   23.4912   23.7489   23.5181 O   0  0  0  0  0  0  0  0  0  0  0  0
   21.9046   22.0298   23.3208 C   0  0  0  0  0  0  0  0  0  0  0  0
   21.5637   22.4142   22.3523 H   0  0  0  0  0  0  0  0  0  0  0  0
   21.2694   22.4863   24.0889 H   0  0  0  0  0  0  0  0  0  0  0  0
   21.7461   20.4865   23.3580 C   0  0  0  0  0  0  0  0  0  0  0  0
   22.3900   20.0353   22.5903 H   0  0  0  0  0  0  0  0  0  0  0  0
   22.0953   20.1075   24.3285 H   0  0  0  0  0  0  0  0  0  0  0  0
   20.2817   20.0538   23.1277 C   0  0  0  0  0  0  0  0  0  0  0  0
   19.9347   20.4338   22.1570 H   0  0  0  0  0  0  0  0  0  0  0  0
   19.6399   20.5060   23.8963 H   0  0  0  0  0  0  0  0  0  0  0  0
   20.1263   18.5182   23.1651 C   0  0  0  0  0  0  0  0  0  0  0  0
   20.7680   18.0657   22.3966 H   0  0  0  0  0  0  0  0  0  0  0  0
   20.4732   18.1379   24.1358 H   0  0  0  0  0  0  0  0  0  0  0  0
   18.6624   18.0849   22.9350 C   0  0  0  0  0  0  0  0  0  0  0  0
   18.3153   18.4650   21.9643 H   0  0  0  0  0  0  0  0  0  0  0  0
   18.0205   18.5372   23.7034 H   0  0  0  0  0  0  0  0  0  0  0  0
   18.5070   16.5500   22.9723 C   0  0  0  0  0  0  0  0  0  0  0  0
   19.1462   16.0941   22.2036 H   0  0  0  0  0  0  0  0  0  0  0  0
   18.8514   16.1662   23.9426 H   0  0  0  0  0  0  0  0  0  0  0  0
   17.0438   16.1213   22.7421 C   0  0  0  0  0  0  0  0  0  0  0  0
   16.6830   16.4653   21.7639 H   0  0  0  0  0  0  0  0  0  0  0  0
   16.9517   15.0278   22.7718 H   0  0  0  0  0  0  0  0  0  0  0  0
   16.3860   16.5380   23.5160 H   0  0  0  0  0  0  0  0  0  0  0  0
  1  2  1  0  0  0  0
  1  3  2  0  0  0  0
  1  4  1  0  0  0  0
  4  5  1  0  0  0  0
  4  6  1  0  0  0  0
  4  7  1  0  0  0  0
  7  8  1  0  0  0  0
  7  9  1  0  0  0  0
  7 10  1  0  0  0  0
 10 11  1  0  0  0  0
 10 12  1  0  0  0  0
 10 13  1  0  0  0  0
 13 14  1  0  0  0  0
 13 15  1  0  0  0  0
 13 16  1  0  0  0  0
 16 17  1  0  0  0  0
 16 18  1  0  0  0  0
 16 19  1  0  0  0  0
 19 20  1  0  0  0  0
 19 21  1  0  0  0  0
 19 22  1  0  0  0  0
 22 23  1  0  0  0  0
 22 24  1  0  0  0  0
 22 25  1  0  0  0  0
M  END
> <VConfSearch Rank>
181

> <Conf_Id>
0

> <Delta U+W>
0.000

> <U+W>
-51.629

> <U>
6.586

> <W>
-58.216

> <W(PB)>
-60.757

> <W(SA)>
2.541

> <Valence>
8.027

> <Coulomb>
-2.892

> <VdW>
1.451

> <VdW6>
-7.931

> <VdW12>
9.383

> <Bond>
0.149

> <Angle>
2.726

> <Pdih>
5.152

> <Idih>
0.000

> <Tether>
0.000

$$$$
VeraChem MOL file


 25 24  0  0  0  0  0  0  0  0999 V2000     
   16.0626   16.9633   22.3644 C   0  0  0  0  0  0  0  0  0  0  0  0
   16.0757   15.7752   22.6190 O   0  5  0  0  0  0  0  0  0  0  0  0
   15.0804   17.6679   22.4887 O   0  0  0  0  0  0  0  0  0  0  0  0
   17.3566   17.6106   21.8842 C   0  0  0  0  0  0  0  0  0  0  0  0
   17.0957   18.4255   21.1983 H   0  0  0  0  0  0  0  0  0  0  0  0
   17.9156   16.8658   21.3051 H   0  0  0  0  0  0  0  0  0  0  0  0
   18.2275   18.1480   23.0464 C   0  0  0  0  0  0  0  0  0  0  0  0
   17.6489   18.8824   23.6239 H   0  0  0  0  0  0  0  0  0  0  0  0
   18.4687   17.3227   23.7308 H   0  0  0  0  0  0  0  0  0  0  0  0
   19.5312   18.7981   22.5349 C   0  0  0  0  0  0  0  0  0  0  0  0
   19.2867   19.6219   21.8503 H   0  0  0  0  0  0  0  0  0  0  0  0
   20.1066   18.0618   21.9570 H   0  0  0  0  0  0  0  0  0  0  0  0
   20.3974   19.3327   23.6958 C   0  0  0  0  0  0  0  0  0  0  0  0
   19.8223   20.0691   24.2738 H   0  0  0  0  0  0  0  0  0  0  0  0
   20.6421   18.5090   24.3805 H   0  0  0  0  0  0  0  0  0  0  0  0
   21.7013   19.9829   23.1850 C   0  0  0  0  0  0  0  0  0  0  0  0
   21.4570   20.8067   22.5003 H   0  0  0  0  0  0  0  0  0  0  0  0
   22.2767   19.2468   22.6069 H   0  0  0  0  0  0  0  0  0  0  0  0
   22.5673   20.5172   24.3452 C   0  0  0  0  0  0  0  0  0  0  0  0
   21.9957   21.2554   24.9247 H   0  0  0  0  0  0  0  0  0  0  0  0
   22.8153   19.6955   25.0313 H   0  0  0  0  0  0  0  0  0  0  0  0
   23.8684   21.1657   23.8311 C   0  0  0  0  0  0  0  0  0  0  0  0
   24.4714   21.5399   24.6687 H   0  0  0  0  0  0  0  0  0  0  0  0
   24.4754   20.4402   23.2739 H   0  0  0  0  0  0  0  0  0  0  0  0
   23.6496   22.0118   23.1665 H   0  0  0  0  0  0  0  0  0  0  0  0
  1  2  1  0  0  0  0
  1  3  2  0  0  0  0
  1  4  1  0  0  0  0
  4  5  1  0  0  0  0
  4  6  1  0  0  0  0
  4  7  1  0  0  0  0
  7  8  1  0  0  0  0
  7  9  1  0  0  0  0
  7 10  1  0  0  0  0
 10 11  1  0  0  0  0
 10 12  1  0  0  0  0
 10 13  1  0  0  0  0
 13 14  1  0  0  0  0
 13 15  1  0  0  0  0
 13 16  1  0  0  0  0
 16 17  1  0  0  0  0
 16 18  1  0  0  0  0
 16 19  1  0  0  0  0
 19 20  1  0  0  0  0
 19 21  1  0  0  0  0
 19 22  1  0  0  0  0
 22 23  1  0  0  0  0
 22 24  1  0  0  0  0
 22 25  1  0  0  0  0
M  END
> <VConfSearch Rank>
182

> <Conf_Id>
27

> <Delta U+W>
-1.297

> <U+W>
-52.926

> <U>
5.617

> <W>
-58.543

> <W(PB)>
-61.065

> <W(SA)>
2.522

> <Valence>
7.531

> <Coulomb>
-2.818

> <VdW>
0.904

> <VdW6>
-7.640

> <VdW12>
8.544

> <Bond>
0.115

> <Angle>
2.271

> <Pdih>
5.144

> <Idih>
0.001

> <Tether>
0.000

$$$$
VeraChem MOL file


 25 24  0  0  0  0  0  0  0  0999 V2000     
   21.4035   15.3308   24.1748 C   0  0  0  0  0  0  0  0  0  0  0  0
   22.5976   15.2281   24.3765 O   0  5  0  0  0  0  0  0  0  0  0  0
   20.5588   15.1497   25.0295 O   0  0  0  0  0  0  0  0  0  0  0  0
   20.9410   15.6908   22.7657 C   0  0  0  0  0  0  0  0  0  0  0  0
   19.8856   15.4113   22.6615 H   0  0  0  0  0  0  0  0  0  0  0  0
   21.5059   15.0645   22.0652 H   0  0  0  0  0  0  0  0  0  0  0  0
   21.1382   17.1849   22.4000 C   0  0  0  0  0  0  0  0  0  0  0  0
   22.1944   17.4565   22.5358 H   0  0  0  0  0  0  0  0  0  0  0  0
   20.9106   17.3240   21.3344 H   0  0  0  0  0  0  0  0  0  0  0  0
   20.2439   18.1251   23.2390 C   0  0  0  0  0  0  0  0  0  0  0  0
   20.4781   18.0044   24.3058 H   0  0  0  0  0  0  0  0  0  0  0  0
   19.1904   17.8410   23.1105 H   0  0  0  0  0  0  0  0  0  0  0  0
   20.4328   19.6036   22.8366 C   0  0  0  0  0  0  0  0  0  0  0  0
   21.4865   19.8868   22.9655 H   0  0  0  0  0  0  0  0  0  0  0  0
   20.1962   19.7273   21.7709 H   0  0  0  0  0  0  0  0  0  0  0  0
   19.5401   20.5437   23.6752 C   0  0  0  0  0  0  0  0  0  0  0  0
   19.7766   20.4201   24.7410 H   0  0  0  0  0  0  0  0  0  0  0  0
   18.4864   20.2605   23.5467 H   0  0  0  0  0  0  0  0  0  0  0  0
   19.7290   22.0217   23.2737 C   0  0  0  0  0  0  0  0  0  0  0  0
   20.7817   22.3091   23.4027 H   0  0  0  0  0  0  0  0  0  0  0  0
   19.4915   22.1495   22.2085 H   0  0  0  0  0  0  0  0  0  0  0  0
   18.8360   22.9571   24.1135 C   0  0  0  0  0  0  0  0  0  0  0  0
   19.0743   22.8729   25.1819 H   0  0  0  0  0  0  0  0  0  0  0  0
   18.9830   24.0033   23.8150 H   0  0  0  0  0  0  0  0  0  0  0  0
   17.7743   22.7122   23.9787 H   0  0  0  0  0  0  0  0  0  0  0  0
  1  2  1  0  0  0  0
  1  3  2  0  0  0  0
  1  4  1  0  0  0  0
  4  5  1  0  0  0  0
  4  6  1  0  0  0  0
  4  7  1  0  0  0  0
  7  8  1  0  0  0  0
  7  9  1  0  0  0  0
  7 10  1  0  0  0  0
 10 11  1  0  0  0  0
 10 12  1  0  0  0  0
 10 13  1  0  0  0  0
 13 14  1  0  0  0  0
 13 15  1  0  0  0  0
 13 16  1  0  0  0  0
 16 17  1  0  0  0  0
 16 18  1  0  0  0  0
 16 19  1  0  0  0  0
 19 20  1  0  0  0  0
 19 21  1  0  0  0  0
 19 22  1  0  0  0  0
 22 23  1  0  0  0  0
 22 24  1  0  0  0  0
 22 25  1  0  0  0  0
M  END
> <VConfSearch Rank>
183

> <Conf_Id>
37

> <Delta U+W>
-0.230

> <U+W>
-51.860

> <U>
7.816

> <W>
-59.675

> <W(PB)>
-62.180

> <W(SA)>
2.505

> <Valence>
7.785

> <Coulomb>
-0.713

> <VdW>
0.744

> <VdW6>
-8.514

> <VdW12>
9.259

> <Bond>
0.136

> <Angle>
2.433

> <Pdih>
5.216

> <Idih>
0.000

> <Tether>
0.000

$$$$
VeraChem MOL file


 25 24  0  0  0  0  0  0  0  0999 V2000     
   16.1737   20.5168   22.8144 C   0  0  0  0  0  0  0  0  0  0  0  0
   15.3740   19.8843   23.4758 O   0  5  0  0  0  0  0  0  0  0  0  0
   16.2227   20.4784   21.6007 O   0  0  0  0  0  0  0  0  0  0  0  0
   17.1590   21.4210   23.5497 C   0  0  0  0  0  0  0  0  0  0  0  0
   16.5913   21.9811   24.3020 H   0  0  0  0  0  0  0  0  0  0  0  0
   17.5565   22.1562   22.8396 H   0  0  0  0  0  0  0  0  0  0  0  0
   18.3207   20.6588   24.2385 C   0  0  0  0  0  0  0  0  0  0  0  0
   18.8961   21.3651   24.8521 H   0  0  0  0  0  0  0  0  0  0  0  0
   17.9064   19.9077   24.9254 H   0  0  0  0  0  0  0  0  0  0  0  0
   19.2668   19.9761   23.2252 C   0  0  0  0  0  0  0  0  0  0  0  0
   19.6677   20.7289   22.5327 H   0  0  0  0  0  0  0  0  0  0  0  0
   18.7016   19.2548   22.6188 H   0  0  0  0  0  0  0  0  0  0  0  0
   20.4327   19.2506   23.9308 C   0  0  0  0  0  0  0  0  0  0  0  0
   21.0011   19.9705   24.5355 H   0  0  0  0  0  0  0  0  0  0  0  0
   20.0308   18.4980   24.6230 H   0  0  0  0  0  0  0  0  0  0  0  0
   21.3781   18.5676   22.9190 C   0  0  0  0  0  0  0  0  0  0  0  0
   21.7799   19.3200   22.2265 H   0  0  0  0  0  0  0  0  0  0  0  0
   20.8098   17.8477   22.3141 H   0  0  0  0  0  0  0  0  0  0  0  0
   22.5433   17.8417   23.6238 C   0  0  0  0  0  0  0  0  0  0  0  0
   23.1152   18.5592   24.2285 H   0  0  0  0  0  0  0  0  0  0  0  0
   22.1451   17.0869   24.3160 H   0  0  0  0  0  0  0  0  0  0  0  0
   23.4849   17.1611   22.6101 C   0  0  0  0  0  0  0  0  0  0  0  0
   23.9227   17.8982   21.9242 H   0  0  0  0  0  0  0  0  0  0  0  0
   24.3070   16.6502   23.1281 H   0  0  0  0  0  0  0  0  0  0  0  0
   22.9452   16.4149   22.0123 H   0  0  0  0  0  0  0  0  0  0  0  0
  1  2  1  0  0  0  0
  1  3  2  0  0  0  0
  1  4  1  0  0  0  0
  4  5  1  0  0  0  0
  4  6  1  0  0  0  0
  4  7  1  0  0  0  0
  7  8  1  0  0  0  0
  7  9  1  0  0  0  0
  7 10  1  0  0  0  0
 10 11  1  0  0  0  0
 10 12  1  0  0  0  0
 10 13  1  0  0  0  0
 13 14  1  0  0  0  0
 13 15  1  0  0  0  0
 13 16  1  0  0  0  0
 16 17  1  0  0  0  0
 16 18  1  0  0  0  0
 16 19  1  0  0  0  0
 19 20  1  0  0  0  0
 19 21  1  0  0  0  0
 19 22  1  0  0  0  0
 22 23  1  0  0  0  0
 22 24  1  0  0  0  0
 22 25  1  0  0  0  0
M  END
> <VConfSearch Rank>
184

> <Conf_Id>
54

> <Delta U+W>
-0.224

> <U+W>
-51.854

> <U>
7.816

> <W>
-59.670

> <W(PB)>
-62.157

> <W(SA)>
2.487

> <Valence>
7.785

> <Coulomb>
-0.713

> <VdW>
0.744

> <VdW6>
-8.515

> <VdW12>
9.259

> <Bond>
0.136

> <Angle>
2.433

> <Pdih>
5.215

> <Idih>
0.000

> <Tether>
0.000

$$$$
VeraChem MOL file


 25 24  0  0  0  0  0  0  0  0999 V2000     
   22.4996   19.7885   20.0873 C   0  0  0  0  0  0  0  0  0  0  0  0
   21.9713   19.1730   19.1822 O   0  5  0  0  0  0  0  0  0  0  0  0
   22.8349   20.9536   20.0024 O   0  0  0  0  0  0  0  0  0  0  0  0
   22.7749   19.0547   21.3968 C   0  0  0  0  0  0  0  0  0  0  0  0
   23.8030   19.2922   21.6946 H   0  0  0  0  0  0  0  0  0  0  0  0
   22.7407   17.9749   21.2075 H   0  0  0  0  0  0  0  0  0  0  0  0
   21.8037   19.4277   22.5471 C   0  0  0  0  0  0  0  0  0  0  0  0
   22.1752   18.9748   23.4748 H   0  0  0  0  0  0  0  0  0  0  0  0
   21.8183   20.5162   22.6968 H   0  0  0  0  0  0  0  0  0  0  0  0
   20.3547   18.9544   22.2777 C   0  0  0  0  0  0  0  0  0  0  0  0
   20.3345   17.8610   22.1736 H   0  0  0  0  0  0  0  0  0  0  0  0
   20.0169   19.3622   21.3152 H   0  0  0  0  0  0  0  0  0  0  0  0
   19.3473   19.3904   23.3686 C   0  0  0  0  0  0  0  0  0  0  0  0
   19.3817   20.4821   23.4855 H   0  0  0  0  0  0  0  0  0  0  0  0
   18.3380   19.1474   23.0130 H   0  0  0  0  0  0  0  0  0  0  0  0
   19.5860   18.7094   24.7390 C   0  0  0  0  0  0  0  0  0  0  0  0
   20.5920   18.9569   25.1002 H   0  0  0  0  0  0  0  0  0  0  0  0
   19.5566   17.6177   24.6205 H   0  0  0  0  0  0  0  0  0  0  0  0
   18.5705   19.1392   25.8236 C   0  0  0  0  0  0  0  0  0  0  0  0
   18.8906   18.7232   26.7889 H   0  0  0  0  0  0  0  0  0  0  0  0
   18.5880   20.2321   25.9363 H   0  0  0  0  0  0  0  0  0  0  0  0
   17.1280   18.6685   25.5362 C   0  0  0  0  0  0  0  0  0  0  0  0
   16.7172   19.1545   24.6427 H   0  0  0  0  0  0  0  0  0  0  0  0
   17.0920   17.5817   25.3854 H   0  0  0  0  0  0  0  0  0  0  0  0
   16.4694   18.9143   26.3793 H   0  0  0  0  0  0  0  0  0  0  0  0
  1  2  1  0  0  0  0
  1  3  2  0  0  0  0
  1  4  1  0  0  0  0
  4  5  1  0  0  0  0
  4  6  1  0  0  0  0
  4  7  1  0  0  0  0
  7  8  1  0  0  0  0
  7  9  1  0  0  0  0
  7 10  1  0  0  0  0
 10 11  1  0  0  0  0
 10 12  1  0  0  0  0
 10 13  1  0  0  0  0
 13 14  1  0  0  0  0
 13 15  1  0  0  0  0
 13 16  1  0  0  0  0
 16 17  1  0  0  0  0
 16 18  1  0  0  0  0
 16 19  1  0  0  0  0
 19 20  1  0  0  0  0
 19 21  1  0  0  0  0
 19 22  1  0  0  0  0
 22 23  1  0  0  0  0
 22 24  1  0  0  0  0
 22 25  1  0  0  0  0
M  END
> <VConfSearch Rank>
185

> <Conf_Id>
101

> <Delta U+W>
1.534

> <U+W>
-50.095

> <U>
9.416

> <W>
-59.512

> <W(PB)>
-61.988

> <W(SA)>
2.476

> <Valence>
8.939

> <Coulomb>
-0.615

> <VdW>
1.092

> <VdW6>
-9.710

> <VdW12>
10.802

> <Bond>
0.216

> <Angle>
2.979

> <Pdih>
5.743

> <Idih>
0.000

> <Tether>
0.000

$$$$
VeraChem MOL file


 25 24  0  0  0  0  0  0  0  0999 V2000     
   21.7647   21.3290   26.4651 C   0  0  0  0  0  0  0  0  0  0  0  0
   21.2655   20.9036   27.4881 O   0  5  0  0  0  0  0  0  0  0  0  0
   22.8183   21.9338   26.4312 O   0  0  0  0  0  0  0  0  0  0  0  0
   21.0408   21.0702   25.1486 C   0  0  0  0  0  0  0  0  0  0  0  0
   21.2503   21.9096   24.4748 H   0  0  0  0  0  0  0  0  0  0  0  0
   19.9647   21.0781   25.3541 H   0  0  0  0  0  0  0  0  0  0  0  0
   21.4631   19.7333   24.4854 C   0  0  0  0  0  0  0  0  0  0  0  0
   22.5573   19.7215   24.3853 H   0  0  0  0  0  0  0  0  0  0  0  0
   21.2038   18.8960   25.1480 H   0  0  0  0  0  0  0  0  0  0  0  0
   20.8370   19.5079   23.0883 C   0  0  0  0  0  0  0  0  0  0  0  0
   21.3036   18.6174   22.6481 H   0  0  0  0  0  0  0  0  0  0  0  0
   21.0893   20.3507   22.4307 H   0  0  0  0  0  0  0  0  0  0  0  0
   19.3010   19.3149   23.1260 C   0  0  0  0  0  0  0  0  0  0  0  0
   19.0488   18.4721   23.7826 H   0  0  0  0  0  0  0  0  0  0  0  0
   18.8325   20.2003   23.5736 H   0  0  0  0  0  0  0  0  0  0  0  0
   18.6697   19.1027   21.7264 C   0  0  0  0  0  0  0  0  0  0  0  0
   18.8587   19.9939   21.1125 H   0  0  0  0  0  0  0  0  0  0  0  0
   17.5789   19.0398   21.8400 H   0  0  0  0  0  0  0  0  0  0  0  0
   19.1620   17.8527   20.9553 C   0  0  0  0  0  0  0  0  0  0  0  0
   18.6477   17.8165   19.9851 H   0  0  0  0  0  0  0  0  0  0  0  0
   20.2318   17.9444   20.7264 H   0  0  0  0  0  0  0  0  0  0  0  0
   18.9009   16.5283   21.7048 C   0  0  0  0  0  0  0  0  0  0  0  0
   17.8394   16.4269   21.9654 H   0  0  0  0  0  0  0  0  0  0  0  0
   19.1795   15.6710   21.0786 H   0  0  0  0  0  0  0  0  0  0  0  0
   19.4902   16.4706   22.6287 H   0  0  0  0  0  0  0  0  0  0  0  0
  1  2  1  0  0  0  0
  1  3  2  0  0  0  0
  1  4  1  0  0  0  0
  4  5  1  0  0  0  0
  4  6  1  0  0  0  0
  4  7  1  0  0  0  0
  7  8  1  0  0  0  0
  7  9  1  0  0  0  0
  7 10  1  0  0  0  0
 10 11  1  0  0  0  0
 10 12  1  0  0  0  0
 10 13  1  0  0  0  0
 13 14  1  0  0  0  0
 13 15  1  0  0  0  0
 13 16  1  0  0  0  0
 16 17  1  0  0  0  0
 16 18  1  0  0  0  0
 16 19  1  0  0  0  0
 19 20  1  0  0  0  0
 19 21  1  0  0  0  0
 19 22  1  0  0  0  0
 22 23  1  0  0  0  0
 22 24  1  0  0  0  0
 22 25  1  0  0  0  0
M  END
> <VConfSearch Rank>
186

> <Conf_Id>
75

> <Delta U+W>
1.014

> <U+W>
-50.615

> <U>
8.474

> <W>
-59.089

> <W(PB)>
-61.530

> <W(SA)>
2.441

> <Valence>
9.080

> <Coulomb>
-1.772

> <VdW>
1.165

> <VdW6>
-9.830

> <VdW12>
10.996

> <Bond>
0.240

> <Angle>
3.225

> <Pdih>
5.615

> <Idih>
0.001

> <Tether>
0.000

$$$$
VeraChem MOL file


 25 24  0  0  0  0  0  0  0  0999 V2000     
   24.2968   18.8440   22.9064 C   0  0  0  0  0  0  0  0  0  0  0  0
   24.7621   19.9646   22.8405 O   0  5  0  0  0  0  0  0  0  0  0  0
   24.9169   17.8800   23.3100 O   0  0  0  0  0  0  0  0  0  0  0  0
   22.8477   18.6400   22.4789 C   0  0  0  0  0  0  0  0  0  0  0  0
   22.7555   17.6319   22.0572 H   0  0  0  0  0  0  0  0  0  0  0  0
   22.6272   19.3502   21.6729 H   0  0  0  0  0  0  0  0  0  0  0  0
   21.8450   18.8259   23.6442 C   0  0  0  0  0  0  0  0  0  0  0  0
   22.0870   18.1169   24.4481 H   0  0  0  0  0  0  0  0  0  0  0  0
   21.9593   19.8351   24.0636 H   0  0  0  0  0  0  0  0  0  0  0  0
   20.3855   18.6159   23.1859 C   0  0  0  0  0  0  0  0  0  0  0  0
   20.2761   17.6062   22.7671 H   0  0  0  0  0  0  0  0  0  0  0  0
   20.1552   19.3187   22.3764 H   0  0  0  0  0  0  0  0  0  0  0  0
   19.3884   18.7967   24.3546 C   0  0  0  0  0  0  0  0  0  0  0  0
   19.6315   18.0563   25.1290 H   0  0  0  0  0  0  0  0  0  0  0  0
   19.5205   19.7824   24.8213 H   0  0  0  0  0  0  0  0  0  0  0  0
   17.9090   18.6013   23.9357 C   0  0  0  0  0  0  0  0  0  0  0  0
   17.3811   18.1118   24.7655 H   0  0  0  0  0  0  0  0  0  0  0  0
   17.8414   17.9060   23.0879 H   0  0  0  0  0  0  0  0  0  0  0  0
   17.1505   19.9120   23.6104 C   0  0  0  0  0  0  0  0  0  0  0  0
   16.0993   19.6651   23.4077 H   0  0  0  0  0  0  0  0  0  0  0  0
   17.1477   20.5647   24.4943 H   0  0  0  0  0  0  0  0  0  0  0  0
   17.7174   20.6879   22.4033 C   0  0  0  0  0  0  0  0  0  0  0  0
   17.7946   20.0409   21.5199 H   0  0  0  0  0  0  0  0  0  0  0  0
   17.0642   21.5325   22.1489 H   0  0  0  0  0  0  0  0  0  0  0  0
   18.7114   21.0949   22.6264 H   0  0  0  0  0  0  0  0  0  0  0  0
  1  2  1  0  0  0  0
  1  3  2  0  0  0  0
  1  4  1  0  0  0  0
  4  5  1  0  0  0  0
  4  6  1  0  0  0  0
  4  7  1  0  0  0  0
  7  8  1  0  0  0  0
  7  9  1  0  0  0  0
  7 10  1  0  0  0  0
 10 11  1  0  0  0  0
 10 12  1  0  0  0  0
 10 13  1  0  0  0  0
 13 14  1  0  0  0  0
 13 15  1  0  0  0  0
 13 16  1  0  0  0  0
 16 17  1  0  0  0  0
 16 18  1  0  0  0  0
 16 19  1  0  0  0  0
 19 20  1  0  0  0  0
 19 21  1  0  0  0  0
 19 22  1  0  0  0  0
 22 23  1  0  0  0  0
 22 24  1  0  0  0  0
 22 25  1  0  0  0  0
M  END
> <VConfSearch Rank>
187

> <Conf_Id>
125

> <Delta U+W>
2.314

> <U+W>
-49.315

> <U>
9.740

> <W>
-59.054

> <W(PB)>
-61.488

> <W(SA)>
2.433

> <Valence>
10.506

> <Coulomb>
-1.761

> <VdW>
0.994

> <VdW6>
-9.209

> <VdW12>
10.203

> <Bond>
0.193

> <Angle>
2.979

> <Pdih>
7.334

> <Idih>
0.001

> <Tether>
0.000

$$$$
VeraChem MOL file


 25 24  0  0  0  0  0  0  0  0999 V2000     
   22.2524   22.4256   24.4461 C   0  0  0  0  0  0  0  0  0  0  0  0
   21.8150   23.3444   23.7820 O   0  5  0  0  0  0  0  0  0  0  0  0
   23.2287   22.5189   25.1637 O   0  0  0  0  0  0  0  0  0  0  0  0
   21.5523   21.0745   24.3556 C   0  0  0  0  0  0  0  0  0  0  0  0
   20.4841   21.2629   24.2001 H   0  0  0  0  0  0  0  0  0  0  0  0
   21.6569   20.5717   25.3245 H   0  0  0  0  0  0  0  0  0  0  0  0
   22.1206   20.1793   23.2238 C   0  0  0  0  0  0  0  0  0  0  0  0
   21.9677   20.6728   22.2541 H   0  0  0  0  0  0  0  0  0  0  0  0
   23.2075   20.0893   23.3578 H   0  0  0  0  0  0  0  0  0  0  0  0
   21.5062   18.7596   23.1908 C   0  0  0  0  0  0  0  0  0  0  0  0
   21.6692   18.2654   24.1583 H   0  0  0  0  0  0  0  0  0  0  0  0
   22.0468   18.1640   22.4425 H   0  0  0  0  0  0  0  0  0  0  0  0
   19.9982   18.7497   22.8486 C   0  0  0  0  0  0  0  0  0  0  0  0
   19.4414   19.2848   23.6273 H   0  0  0  0  0  0  0  0  0  0  0  0
   19.8324   19.2877   21.9054 H   0  0  0  0  0  0  0  0  0  0  0  0
   19.4522   17.3084   22.7234 C   0  0  0  0  0  0  0  0  0  0  0  0
   19.5740   16.7824   23.6802 H   0  0  0  0  0  0  0  0  0  0  0  0
   20.0558   16.7597   21.9876 H   0  0  0  0  0  0  0  0  0  0  0  0
   17.9704   17.2478   22.2848 C   0  0  0  0  0  0  0  0  0  0  0  0
   17.8459   17.7685   21.3253 H   0  0  0  0  0  0  0  0  0  0  0  0
   17.6988   16.1983   22.1057 H   0  0  0  0  0  0  0  0  0  0  0  0
   16.9986   17.8413   23.3279 C   0  0  0  0  0  0  0  0  0  0  0  0
   17.1557   18.9197   23.4541 H   0  0  0  0  0  0  0  0  0  0  0  0
   15.9581   17.6923   23.0113 H   0  0  0  0  0  0  0  0  0  0  0  0
   17.1272   17.3574   24.3048 H   0  0  0  0  0  0  0  0  0  0  0  0
  1  2  1  0  0  0  0
  1  3  2  0  0  0  0
  1  4  1  0  0  0  0
  4  5  1  0  0  0  0
  4  6  1  0  0  0  0
  4  7  1  0  0  0  0
  7  8  1  0  0  0  0
  7  9  1  0  0  0  0
  7 10  1  0  0  0  0
 10 11  1  0  0  0  0
 10 12  1  0  0  0  0
 10 13  1  0  0  0  0
 13 14  1  0  0  0  0
 13 15  1  0  0  0  0
 13 16  1  0  0  0  0
 16 17  1  0  0  0  0
 16 18  1  0  0  0  0
 16 19  1  0  0  0  0
 19 20  1  0  0  0  0
 19 21  1  0  0  0  0
 19 22  1  0  0  0  0
 22 23  1  0  0  0  0
 22 24  1  0  0  0  0
 22 25  1  0  0  0  0
M  END
> <VConfSearch Rank>
188

> <Conf_Id>
4

> <Delta U+W>
0.189

> <U+W>
-51.441

> <U>
7.701

> <W>
-59.141

> <W(PB)>
-61.609

> <W(SA)>
2.467

> <Valence>
8.550

> <Coulomb>
-1.988

> <VdW>
1.139

> <VdW6>
-8.988

> <VdW12>
10.127

> <Bond>
0.191

> <Angle>
2.738

> <Pdih>
5.621

> <Idih>
0.001

> <Tether>
0.000

$$$$
VeraChem MOL file


 25 24  0  0  0  0  0  0  0  0999 V2000     
   22.3363   16.2393   24.9054 C   0  0  0  0  0  0  0  0  0  0  0  0
   23.4804   16.6425   24.8334 O   0  5  0  0  0  0  0  0  0  0  0  0
   22.0166   15.2219   25.4880 O   0  0  0  0  0  0  0  0  0  0  0  0
   21.2381   17.0677   24.2484 C   0  0  0  0  0  0  0  0  0  0  0  0
   20.4519   16.3826   23.9095 H   0  0  0  0  0  0  0  0  0  0  0  0
   21.6655   17.5397   23.3567 H   0  0  0  0  0  0  0  0  0  0  0  0
   20.6423   18.1366   25.2012 C   0  0  0  0  0  0  0  0  0  0  0  0
   20.3097   17.6406   26.1235 H   0  0  0  0  0  0  0  0  0  0  0  0
   21.4293   18.8444   25.4964 H   0  0  0  0  0  0  0  0  0  0  0  0
   19.4461   18.9080   24.5944 C   0  0  0  0  0  0  0  0  0  0  0  0
   19.0173   19.5534   25.3732 H   0  0  0  0  0  0  0  0  0  0  0  0
   18.6571   18.1986   24.3095 H   0  0  0  0  0  0  0  0  0  0  0  0
   19.8297   19.7775   23.3746 C   0  0  0  0  0  0  0  0  0  0  0  0
   20.6527   20.4514   23.6486 H   0  0  0  0  0  0  0  0  0  0  0  0
   20.1956   19.1340   22.5654 H   0  0  0  0  0  0  0  0  0  0  0  0
   18.6286   20.6092   22.8679 C   0  0  0  0  0  0  0  0  0  0  0  0
   18.2280   21.2034   23.7005 H   0  0  0  0  0  0  0  0  0  0  0  0
   17.8210   19.9362   22.5491 H   0  0  0  0  0  0  0  0  0  0  0  0
   18.9896   21.5689   21.7101 C   0  0  0  0  0  0  0  0  0  0  0  0
   18.1181   22.2017   21.4924 H   0  0  0  0  0  0  0  0  0  0  0  0
   19.7937   22.2471   22.0273 H   0  0  0  0  0  0  0  0  0  0  0  0
   19.4075   20.8370   20.4161 C   0  0  0  0  0  0  0  0  0  0  0  0
   18.6314   20.1293   20.0968 H   0  0  0  0  0  0  0  0  0  0  0  0
   19.5644   21.5564   19.6020 H   0  0  0  0  0  0  0  0  0  0  0  0
   20.3441   20.2826   20.5539 H   0  0  0  0  0  0  0  0  0  0  0  0
  1  2  1  0  0  0  0
  1  3  2  0  0  0  0
  1  4  1  0  0  0  0
  4  5  1  0  0  0  0
  4  6  1  0  0  0  0
  4  7  1  0  0  0  0
  7  8  1  0  0  0  0
  7  9  1  0  0  0  0
  7 10  1  0  0  0  0
 10 11  1  0  0  0  0
 10 12  1  0  0  0  0
 10 13  1  0  0  0  0
 13 14  1  0  0  0  0
 13 15  1  0  0  0  0
 13 16  1  0  0  0  0
 16 17  1  0  0  0  0
 16 18  1  0  0  0  0
 16 19  1  0  0  0  0
 19 20  1  0  0  0  0
 19 21  1  0  0  0  0
 19 22  1  0  0  0  0
 22 23  1  0  0  0  0
 22 24  1  0  0  0  0
 22 25  1  0  0  0  0
M  END
> <VConfSearch Rank>
189

> <Conf_Id>
17

> <Delta U+W>
0.219

> <U+W>
-51.411

> <U>
7.701

> <W>
-59.111

> <W(PB)>
-61.599

> <W(SA)>
2.488

> <Valence>
8.550

> <Coulomb>
-1.988

> <VdW>
1.139

> <VdW6>
-8.988

> <VdW12>
10.127

> <Bond>
0.191

> <Angle>
2.738

> <Pdih>
5.621

> <Idih>
0.001

> <Tether>
0.000

$$$$
VeraChem MOL file


 25 24  0  0  0  0  0  0  0  0999 V2000     
   20.9242   18.1121   26.8611 C   0  0  0  0  0  0  0  0  0  0  0  0
   21.4138   17.0014   26.8005 O   0  5  0  0  0  0  0  0  0  0  0  0
   19.8758   18.3554   27.4258 O   0  0  0  0  0  0  0  0  0  0  0  0
   21.6752   19.2700   26.2097 C   0  0  0  0  0  0  0  0  0  0  0  0
   22.7228   18.9753   26.0738 H   0  0  0  0  0  0  0  0  0  0  0  0
   21.6701   20.1055   26.9196 H   0  0  0  0  0  0  0  0  0  0  0  0
   21.0684   19.7332   24.8598 C   0  0  0  0  0  0  0  0  0  0  0  0
   20.0161   20.0040   25.0175 H   0  0  0  0  0  0  0  0  0  0  0  0
   21.5854   20.6444   24.5302 H   0  0  0  0  0  0  0  0  0  0  0  0
   21.1836   18.6532   23.7575 C   0  0  0  0  0  0  0  0  0  0  0  0
   20.6099   17.7619   24.0469 H   0  0  0  0  0  0  0  0  0  0  0  0
   22.2318   18.3339   23.6788 H   0  0  0  0  0  0  0  0  0  0  0  0
   20.7125   19.1399   22.3665 C   0  0  0  0  0  0  0  0  0  0  0  0
   21.2909   20.0260   22.0711 H   0  0  0  0  0  0  0  0  0  0  0  0
   20.9422   18.3589   21.6288 H   0  0  0  0  0  0  0  0  0  0  0  0
   19.2009   19.4595   22.3053 C   0  0  0  0  0  0  0  0  0  0  0  0
   18.9658   20.2908   22.9824 H   0  0  0  0  0  0  0  0  0  0  0  0
   18.6275   18.5896   22.6537 H   0  0  0  0  0  0  0  0  0  0  0  0
   18.7541   19.8318   20.8757 C   0  0  0  0  0  0  0  0  0  0  0  0
   19.3273   20.7007   20.5235 H   0  0  0  0  0  0  0  0  0  0  0  0
   18.9769   19.0029   20.1897 H   0  0  0  0  0  0  0  0  0  0  0  0
   17.2473   20.1539   20.8170 C   0  0  0  0  0  0  0  0  0  0  0  0
   17.0010   21.0013   21.4701 H   0  0  0  0  0  0  0  0  0  0  0  0
   16.9471   20.4158   19.7941 H   0  0  0  0  0  0  0  0  0  0  0  0
   16.6485   19.2904   21.1354 H   0  0  0  0  0  0  0  0  0  0  0  0
  1  2  1  0  0  0  0
  1  3  2  0  0  0  0
  1  4  1  0  0  0  0
  4  5  1  0  0  0  0
  4  6  1  0  0  0  0
  4  7  1  0  0  0  0
  7  8  1  0  0  0  0
  7  9  1  0  0  0  0
  7 10  1  0  0  0  0
 10 11  1  0  0  0  0
 10 12  1  0  0  0  0
 10 13  1  0  0  0  0
 13 14  1  0  0  0  0
 13 15  1  0  0  0  0
 13 16  1  0  0  0  0
 16 17  1  0  0  0  0
 16 18  1  0  0  0  0
 16 19  1  0  0  0  0
 19 20  1  0  0  0  0
 19 21  1  0  0  0  0
 19 22  1  0  0  0  0
 22 23  1  0  0  0  0
 22 24  1  0  0  0  0
 22 25  1  0  0  0  0
M  END
> <VConfSearch Rank>
190

> <Conf_Id>
142

> <Delta U+W>
0.593

> <U+W>
-51.037

> <U>
8.903

> <W>
-59.940

> <W(PB)>
-62.418

> <W(SA)>
2.478

> <Valence>
8.305

> <Coulomb>
-0.223

> <VdW>
0.821

> <VdW6>
-9.236

> <VdW12>
10.057

> <Bond>
0.173

> <Angle>
2.663

> <Pdih>
5.469

> <Idih>
0.001

> <Tether>
0.000

$$$$
VeraChem MOL file


 25 24  0  0  0  0  0  0  0  0999 V2000     
   19.0485   18.7546   20.1329 C   0  0  0  0  0  0  0  0  0  0  0  0
   18.0039   18.5165   19.5586 O   0  5  0  0  0  0  0  0  0  0  0  0
   19.8465   19.5906   19.7570 O   0  0  0  0  0  0  0  0  0  0  0  0
   19.3862   17.9387   21.3776 C   0  0  0  0  0  0  0  0  0  0  0  0
   20.4502   18.0699   21.6057 H   0  0  0  0  0  0  0  0  0  0  0  0
   19.2516   16.8815   21.1212 H   0  0  0  0  0  0  0  0  0  0  0  0
   18.5151   18.2825   22.6166 C   0  0  0  0  0  0  0  0  0  0  0  0
   17.4634   18.0747   22.3759 H   0  0  0  0  0  0  0  0  0  0  0  0
   18.7743   17.6047   23.4401 H   0  0  0  0  0  0  0  0  0  0  0  0
   18.6327   19.7531   23.0943 C   0  0  0  0  0  0  0  0  0  0  0  0
   17.9780   19.8944   23.9649 H   0  0  0  0  0  0  0  0  0  0  0  0
   18.2397   20.4159   22.3111 H   0  0  0  0  0  0  0  0  0  0  0  0
   20.0643   20.2170   23.4625 C   0  0  0  0  0  0  0  0  0  0  0  0
   20.7067   20.1884   22.5722 H   0  0  0  0  0  0  0  0  0  0  0  0
   20.0174   21.2711   23.7680 H   0  0  0  0  0  0  0  0  0  0  0  0
   20.7080   19.3920   24.6009 C   0  0  0  0  0  0  0  0  0  0  0  0
   20.8286   18.3482   24.2830 H   0  0  0  0  0  0  0  0  0  0  0  0
   20.0408   19.3876   25.4735 H   0  0  0  0  0  0  0  0  0  0  0  0
   22.0851   19.9577   25.0068 C   0  0  0  0  0  0  0  0  0  0  0  0
   22.7533   19.9655   24.1345 H   0  0  0  0  0  0  0  0  0  0  0  0
   21.9757   21.0008   25.3346 H   0  0  0  0  0  0  0  0  0  0  0  0
   22.7284   19.1303   26.1379 C   0  0  0  0  0  0  0  0  0  0  0  0
   22.8793   18.0887   25.8255 H   0  0  0  0  0  0  0  0  0  0  0  0
   23.7060   19.5464   26.4138 H   0  0  0  0  0  0  0  0  0  0  0  0
   22.0944   19.1310   27.0342 H   0  0  0  0  0  0  0  0  0  0  0  0
  1  2  1  0  0  0  0
  1  3  2  0  0  0  0
  1  4  1  0  0  0  0
  4  5  1  0  0  0  0
  4  6  1  0  0  0  0
  4  7  1  0  0  0  0
  7  8  1  0  0  0  0
  7  9  1  0  0  0  0
  7 10  1  0  0  0  0
 10 11  1  0  0  0  0
 10 12  1  0  0  0  0
 10 13  1  0  0  0  0
 13 14  1  0  0  0  0
 13 15  1  0  0  0  0
 13 16  1  0  0  0  0
 16 17  1  0  0  0  0
 16 18  1  0  0  0  0
 16 19  1  0  0  0  0
 19 20  1  0  0  0  0
 19 21  1  0  0  0  0
 19 22  1  0  0  0  0
 22 23  1  0  0  0  0
 22 24  1  0  0  0  0
 22 25  1  0  0  0  0
M  END
> <VConfSearch Rank>
191

> <Conf_Id>
135

> <Delta U+W>
1.314

> <U+W>
-50.316

> <U>
9.773

> <W>
-60.088

> <W(PB)>
-62.535

> <W(SA)>
2.447

> <Valence>
8.741

> <Coulomb>
0.479

> <VdW>
0.552

> <VdW6>
-10.627

> <VdW12>
11.179

> <Bond>
0.227

> <Angle>
3.155

> <Pdih>
5.358

> <Idih>
0.001

> <Tether>
0.000

$$$$
VeraChem MOL file


 25 24  0  0  0  0  0  0  0  0999 V2000     
   21.3685   19.1440   19.2429 C   0  0  0  0  0  0  0  0  0  0  0  0
   22.4635   18.6403   19.0880 O   0  5  0  0  0  0  0  0  0  0  0  0
   20.5569   19.2786   18.3485 O   0  0  0  0  0  0  0  0  0  0  0  0
   20.9826   19.6125   20.6415 C   0  0  0  0  0  0  0  0  0  0  0  0
   20.3131   20.4747   20.5382 H   0  0  0  0  0  0  0  0  0  0  0  0
   21.8939   19.9654   21.1366 H   0  0  0  0  0  0  0  0  0  0  0  0
   20.2977   18.5003   21.4780 C   0  0  0  0  0  0  0  0  0  0  0  0
   19.4470   18.1055   20.9053 H   0  0  0  0  0  0  0  0  0  0  0  0
   20.9938   17.6616   21.6162 H   0  0  0  0  0  0  0  0  0  0  0  0
   19.7825   18.9860   22.8541 C   0  0  0  0  0  0  0  0  0  0  0  0
   19.1847   18.1778   23.2938 H   0  0  0  0  0  0  0  0  0  0  0  0
   19.1065   19.8405   22.7152 H   0  0  0  0  0  0  0  0  0  0  0  0
   20.9152   19.3663   23.8374 C   0  0  0  0  0  0  0  0  0  0  0  0
   21.5520   18.4893   24.0164 H   0  0  0  0  0  0  0  0  0  0  0  0
   21.5595   20.1267   23.3790 H   0  0  0  0  0  0  0  0  0  0  0  0
   20.4171   19.9255   25.1941 C   0  0  0  0  0  0  0  0  0  0  0  0
   19.8567   20.8568   25.0339 H   0  0  0  0  0  0  0  0  0  0  0  0
   21.3027   20.2080   25.7796 H   0  0  0  0  0  0  0  0  0  0  0  0
   19.5786   18.9330   26.0379 C   0  0  0  0  0  0  0  0  0  0  0  0
   19.8500   17.8975   25.7899 H   0  0  0  0  0  0  0  0  0  0  0  0
   19.8338   19.0695   27.0978 H   0  0  0  0  0  0  0  0  0  0  0  0
   18.0553   19.1399   25.8830 C   0  0  0  0  0  0  0  0  0  0  0  0
   17.7290   19.0089   24.8450 H   0  0  0  0  0  0  0  0  0  0  0  0
   17.5049   18.4191   26.5013 H   0  0  0  0  0  0  0  0  0  0  0  0
   17.7642   20.1485   26.2040 H   0  0  0  0  0  0  0  0  0  0  0  0
  1  2  1  0  0  0  0
  1  3  2  0  0  0  0
  1  4  1  0  0  0  0
  4  5  1  0  0  0  0
  4  6  1  0  0  0  0
  4  7  1  0  0  0  0
  7  8  1  0  0  0  0
  7  9  1  0  0  0  0
  7 10  1  0  0  0  0
 10 11  1  0  0  0  0
 10 12  1  0  0  0  0
 10 13  1  0  0  0  0
 13 14  1  0  0  0  0
 13 15  1  0  0  0  0
 13 16  1  0  0  0  0
 16 17  1  0  0  0  0
 16 18  1  0  0  0  0
 16 19  1  0  0  0  0
 19 20  1  0  0  0  0
 19 21  1  0  0  0  0
 19 22  1  0  0  0  0
 22 23  1  0  0  0  0
 22 24  1  0  0  0  0
 22 25  1  0  0  0  0
M  END
> <VConfSearch Rank>
192

> <Conf_Id>
19

> <Delta U+W>
3.222

> <U+W>
-48.407

> <U>
10.617

> <W>
-59.025

> <W(PB)>
-61.462

> <W(SA)>
2.437

> <Valence>
11.188

> <Coulomb>
-1.778

> <VdW>
1.208

> <VdW6>
-9.786

> <VdW12>
10.993

> <Bond>
0.241

> <Angle>
3.294

> <Pdih>
7.653

> <Idih>
0.001

> <Tether>
0.000

$$$$
VeraChem MOL file


 25 24  0  0  0  0  0  0  0  0999 V2000     
   19.7917   18.9554   27.4542 C   0  0  0  0  0  0  0  0  0  0  0  0
   20.5317   18.1274   27.9477 O   0  5  0  0  0  0  0  0  0  0  0  0
   18.8115   19.4023   28.0165 O   0  0  0  0  0  0  0  0  0  0  0  0
   20.0967   19.4433   26.0424 C   0  0  0  0  0  0  0  0  0  0  0  0
   21.1853   19.4453   25.9197 H   0  0  0  0  0  0  0  0  0  0  0  0
   19.7578   20.4829   25.9617 H   0  0  0  0  0  0  0  0  0  0  0  0
   19.4217   18.5741   24.9493 C   0  0  0  0  0  0  0  0  0  0  0  0
   19.8040   17.5456   25.0081 H   0  0  0  0  0  0  0  0  0  0  0  0
   18.3454   18.5169   25.1630 H   0  0  0  0  0  0  0  0  0  0  0  0
   19.6111   19.1224   23.5146 C   0  0  0  0  0  0  0  0  0  0  0  0
   19.2514   20.1590   23.4645 H   0  0  0  0  0  0  0  0  0  0  0  0
   18.9739   18.5336   22.8427 H   0  0  0  0  0  0  0  0  0  0  0  0
   21.0735   19.0487   23.0142 C   0  0  0  0  0  0  0  0  0  0  0  0
   21.7290   19.5782   23.7167 H   0  0  0  0  0  0  0  0  0  0  0  0
   21.4054   18.0016   23.0117 H   0  0  0  0  0  0  0  0  0  0  0  0
   21.2952   19.6618   21.6084 C   0  0  0  0  0  0  0  0  0  0  0  0
   22.3696   19.6008   21.3875 H   0  0  0  0  0  0  0  0  0  0  0  0
   21.0549   20.7337   21.6235 H   0  0  0  0  0  0  0  0  0  0  0  0
   20.5274   18.9557   20.4629 C   0  0  0  0  0  0  0  0  0  0  0  0
   21.1667   18.9384   19.5694 H   0  0  0  0  0  0  0  0  0  0  0  0
   20.3372   17.9050   20.7221 H   0  0  0  0  0  0  0  0  0  0  0  0
   19.2056   19.6639   20.0907 C   0  0  0  0  0  0  0  0  0  0  0  0
   19.3952   20.6916   19.7545 H   0  0  0  0  0  0  0  0  0  0  0  0
   18.7013   19.1315   19.2740 H   0  0  0  0  0  0  0  0  0  0  0  0
   18.5135   19.7088   20.9392 H   0  0  0  0  0  0  0  0  0  0  0  0
  1  2  1  0  0  0  0
  1  3  2  0  0  0  0
  1  4  1  0  0  0  0
  4  5  1  0  0  0  0
  4  6  1  0  0  0  0
  4  7  1  0  0  0  0
  7  8  1  0  0  0  0
  7  9  1  0  0  0  0
  7 10  1  0  0  0  0
 10 11  1  0  0  0  0
 10 12  1  0  0  0  0
 10 13  1  0  0  0  0
 13 14  1  0  0  0  0
 13 15  1  0  0  0  0
 13 16  1  0  0  0  0
 16 17  1  0  0  0  0
 16 18  1  0  0  0  0
 16 19  1  0  0  0  0
 19 20  1  0  0  0  0
 19 21  1  0  0  0  0
 19 22  1  0  0  0  0
 22 23  1  0  0  0  0
 22 24  1  0  0  0  0
 22 25  1  0  0  0  0
M  END
> <VConfSearch Rank>
193

> <Conf_Id>
20

> <Delta U+W>
3.224

> <U+W>
-48.406

> <U>
10.617

> <W>
-59.023

> <W(PB)>
-61.467

> <W(SA)>
2.444

> <Valence>
11.188

> <Coulomb>
-1.778

> <VdW>
1.208

> <VdW6>
-9.786

> <VdW12>
10.993

> <Bond>
0.241

> <Angle>
3.294

> <Pdih>
7.653

> <Idih>
0.001

> <Tether>
0.000

$$$$
VeraChem MOL file


 25 24  0  0  0  0  0  0  0  0999 V2000     
   20.8145   20.5014   26.3737 C   0  0  0  0  0  0  0  0  0  0  0  0
   19.7966   20.7081   27.0053 O   0  5  0  0  0  0  0  0  0  0  0  0
   21.4420   21.3752   25.8081 O   0  0  0  0  0  0  0  0  0  0  0  0
   21.3725   19.0797   26.3430 C   0  0  0  0  0  0  0  0  0  0  0  0
   21.6283   18.8268   27.3784 H   0  0  0  0  0  0  0  0  0  0  0  0
   22.3125   19.0779   25.7781 H   0  0  0  0  0  0  0  0  0  0  0  0
   20.4051   17.9994   25.7825 C   0  0  0  0  0  0  0  0  0  0  0  0
   20.7474   17.0191   26.1407 H   0  0  0  0  0  0  0  0  0  0  0  0
   19.4004   18.1410   26.2046 H   0  0  0  0  0  0  0  0  0  0  0  0
   20.3275   17.9358   24.2369 C   0  0  0  0  0  0  0  0  0  0  0  0
   19.7412   17.0489   23.9602 H   0  0  0  0  0  0  0  0  0  0  0  0
   21.3331   17.7825   23.8221 H   0  0  0  0  0  0  0  0  0  0  0  0
   19.6819   19.1803   23.5865 C   0  0  0  0  0  0  0  0  0  0  0  0
   18.7212   19.3951   24.0744 H   0  0  0  0  0  0  0  0  0  0  0  0
   20.3239   20.0568   23.7407 H   0  0  0  0  0  0  0  0  0  0  0  0
   19.4601   18.9828   22.0711 C   0  0  0  0  0  0  0  0  0  0  0  0
   18.8111   18.1121   21.9046 H   0  0  0  0  0  0  0  0  0  0  0  0
   20.4210   18.7634   21.5858 H   0  0  0  0  0  0  0  0  0  0  0  0
   18.8260   20.2293   21.4187 C   0  0  0  0  0  0  0  0  0  0  0  0
   17.8641   20.4509   21.9016 H   0  0  0  0  0  0  0  0  0  0  0  0
   19.4733   21.1022   21.5818 H   0  0  0  0  0  0  0  0  0  0  0  0
   18.6062   20.0293   19.9057 C   0  0  0  0  0  0  0  0  0  0  0  0
   17.9362   19.1809   19.7148 H   0  0  0  0  0  0  0  0  0  0  0  0
   18.1551   20.9247   19.4586 H   0  0  0  0  0  0  0  0  0  0  0  0
   19.5577   19.8370   19.3927 H   0  0  0  0  0  0  0  0  0  0  0  0
  1  2  1  0  0  0  0
  1  3  2  0  0  0  0
  1  4  1  0  0  0  0
  4  5  1  0  0  0  0
  4  6  1  0  0  0  0
  4  7  1  0  0  0  0
  7  8  1  0  0  0  0
  7  9  1  0  0  0  0
  7 10  1  0  0  0  0
 10 11  1  0  0  0  0
 10 12  1  0  0  0  0
 10 13  1  0  0  0  0
 13 14  1  0  0  0  0
 13 15  1  0  0  0  0
 13 16  1  0  0  0  0
 16 17  1  0  0  0  0
 16 18  1  0  0  0  0
 16 19  1  0  0  0  0
 19 20  1  0  0  0  0
 19 21  1  0  0  0  0
 19 22  1  0  0  0  0
 22 23  1  0  0  0  0
 22 24  1  0  0  0  0
 22 25  1  0  0  0  0
M  END
> <VConfSearch Rank>
194

> <Conf_Id>
24

> <Delta U+W>
1.784

> <U+W>
-49.846

> <U>
10.904

> <W>
-60.749

> <W(PB)>
-63.220

> <W(SA)>
2.471

> <Valence>
9.445

> <Coulomb>
0.780

> <VdW>
0.679

> <VdW6>
-10.008

> <VdW12>
10.687

> <Bond>
0.201

> <Angle>
3.198

> <Pdih>
6.039

> <Idih>
0.006

> <Tether>
0.000

$$$$
VeraChem MOL file


 25 24  0  0  0  0  0  0  0  0999 V2000     
   23.1813   18.6480   22.5989 C   0  0  0  0  0  0  0  0  0  0  0  0
   23.2656   17.5210   22.1511 O   0  5  0  0  0  0  0  0  0  0  0  0
   23.0954   19.6411   21.9036 O   0  0  0  0  0  0  0  0  0  0  0  0
   23.2539   18.8337   24.1134 C   0  0  0  0  0  0  0  0  0  0  0  0
   23.2146   19.9053   24.3434 H   0  0  0  0  0  0  0  0  0  0  0  0
   24.2464   18.4833   24.4194 H   0  0  0  0  0  0  0  0  0  0  0  0
   22.1737   18.0679   24.9281 C   0  0  0  0  0  0  0  0  0  0  0  0
   22.0743   17.0421   24.5469 H   0  0  0  0  0  0  0  0  0  0  0  0
   22.5331   17.9722   25.9616 H   0  0  0  0  0  0  0  0  0  0  0  0
   20.7860   18.7544   24.9732 C   0  0  0  0  0  0  0  0  0  0  0  0
   20.8909   19.7749   25.3664 H   0  0  0  0  0  0  0  0  0  0  0  0
   20.1584   18.2099   25.6919 H   0  0  0  0  0  0  0  0  0  0  0  0
   20.0585   18.7954   23.6102 C   0  0  0  0  0  0  0  0  0  0  0  0
   20.6052   19.4454   22.9154 H   0  0  0  0  0  0  0  0  0  0  0  0
   20.0462   17.7897   23.1682 H   0  0  0  0  0  0  0  0  0  0  0  0
   18.6119   19.3171   23.7503 C   0  0  0  0  0  0  0  0  0  0  0  0
   18.6259   20.3208   24.1969 H   0  0  0  0  0  0  0  0  0  0  0  0
   18.0518   18.6686   24.4378 H   0  0  0  0  0  0  0  0  0  0  0  0
   17.8884   19.3692   22.3882 C   0  0  0  0  0  0  0  0  0  0  0  0
   18.4450   20.0187   21.6982 H   0  0  0  0  0  0  0  0  0  0  0  0
   17.8720   18.3665   21.9391 H   0  0  0  0  0  0  0  0  0  0  0  0
   16.4444   19.8908   22.5311 C   0  0  0  0  0  0  0  0  0  0  0  0
   16.4330   20.9059   22.9492 H   0  0  0  0  0  0  0  0  0  0  0  0
   15.9456   19.9213   21.5536 H   0  0  0  0  0  0  0  0  0  0  0  0
   15.8557   19.2411   23.1919 H   0  0  0  0  0  0  0  0  0  0  0  0
  1  2  1  0  0  0  0
  1  3  2  0  0  0  0
  1  4  1  0  0  0  0
  4  5  1  0  0  0  0
  4  6  1  0  0  0  0
  4  7  1  0  0  0  0
  7  8  1  0  0  0  0
  7  9  1  0  0  0  0
  7 10  1  0  0  0  0
 10 11  1  0  0  0  0
 10 12  1  0  0  0  0
 10 13  1  0  0  0  0
 13 14  1  0  0  0  0
 13 15  1  0  0  0  0
 13 16  1  0  0  0  0
 16 17  1  0  0  0  0
 16 18  1  0  0  0  0
 16 19  1  0  0  0  0
 19 20  1  0  0  0  0
 19 21  1  0  0  0  0
 19 22  1  0  0  0  0
 22 23  1  0  0  0  0
 22 24  1  0  0  0  0
 22 25  1  0  0  0  0
M  END
> <VConfSearch Rank>
195

> <Conf_Id>
9

> <Delta U+W>
1.764

> <U+W>
-49.865

> <U>
10.902

> <W>
-60.768

> <W(PB)>
-63.223

> <W(SA)>
2.456

> <Valence>
9.445

> <Coulomb>
0.778

> <VdW>
0.679

> <VdW6>
-10.007

> <VdW12>
10.687

> <Bond>
0.201

> <Angle>
3.198

> <Pdih>
6.040

> <Idih>
0.006

> <Tether>
0.000

$$$$
VeraChem MOL file


 25 24  0  0  0  0  0  0  0  0999 V2000     
   23.5366   19.9851   24.0427 C   0  0  0  0  0  0  0  0  0  0  0  0
   23.6866   20.3821   22.9040 O   0  5  0  0  0  0  0  0  0  0  0  0
   24.3145   20.2211   24.9460 O   0  0  0  0  0  0  0  0  0  0  0  0
   22.2932   19.1625   24.3606 C   0  0  0  0  0  0  0  0  0  0  0  0
   22.5563   18.4411   25.1433 H   0  0  0  0  0  0  0  0  0  0  0  0
   22.0370   18.5846   23.4674 H   0  0  0  0  0  0  0  0  0  0  0  0
   21.0980   20.0371   24.8236 C   0  0  0  0  0  0  0  0  0  0  0  0
   21.4099   20.5859   25.7230 H   0  0  0  0  0  0  0  0  0  0  0  0
   20.8701   20.7986   24.0650 H   0  0  0  0  0  0  0  0  0  0  0  0
   19.8262   19.2175   25.1600 C   0  0  0  0  0  0  0  0  0  0  0  0
   19.3180   19.7066   26.0022 H   0  0  0  0  0  0  0  0  0  0  0  0
   20.1014   18.2163   25.5187 H   0  0  0  0  0  0  0  0  0  0  0  0
   18.8035   19.1065   24.0014 C   0  0  0  0  0  0  0  0  0  0  0  0
   17.9137   18.5824   24.3759 H   0  0  0  0  0  0  0  0  0  0  0  0
   18.4725   20.1143   23.7182 H   0  0  0  0  0  0  0  0  0  0  0  0
   19.3355   18.3628   22.7535 C   0  0  0  0  0  0  0  0  0  0  0  0
   19.8041   17.4208   23.0690 H   0  0  0  0  0  0  0  0  0  0  0  0
   20.1181   18.9620   22.2700 H   0  0  0  0  0  0  0  0  0  0  0  0
   18.2340   18.0425   21.7164 C   0  0  0  0  0  0  0  0  0  0  0  0
   18.6713   17.4322   20.9143 H   0  0  0  0  0  0  0  0  0  0  0  0
   17.4523   17.4273   22.1831 H   0  0  0  0  0  0  0  0  0  0  0  0
   17.5987   19.3042   21.0929 C   0  0  0  0  0  0  0  0  0  0  0  0
   18.3652   19.9477   20.6419 H   0  0  0  0  0  0  0  0  0  0  0  0
   16.8848   19.0264   20.3067 H   0  0  0  0  0  0  0  0  0  0  0  0
   17.0548   19.8909   21.8438 H   0  0  0  0  0  0  0  0  0  0  0  0
  1  2  1  0  0  0  0
  1  3  2  0  0  0  0
  1  4  1  0  0  0  0
  4  5  1  0  0  0  0
  4  6  1  0  0  0  0
  4  7  1  0  0  0  0
  7  8  1  0  0  0  0
  7  9  1  0  0  0  0
  7 10  1  0  0  0  0
 10 11  1  0  0  0  0
 10 12  1  0  0  0  0
 10 13  1  0  0  0  0
 13 14  1  0  0  0  0
 13 15  1  0  0  0  0
 13 16  1  0  0  0  0
 16 17  1  0  0  0  0
 16 18  1  0  0  0  0
 16 19  1  0  0  0  0
 19 20  1  0  0  0  0
 19 21  1  0  0  0  0
 19 22  1  0  0  0  0
 22 23  1  0  0  0  0
 22 24  1  0  0  0  0
 22 25  1  0  0  0  0
M  END
> <VConfSearch Rank>
196

> <Conf_Id>
89

> <Delta U+W>
2.903

> <U+W>
-48.726

> <U>
10.996

> <W>
-59.723

> <W(PB)>
-62.151

> <W(SA)>
2.428

> <Valence>
10.985

> <Coulomb>
-0.995

> <VdW>
1.006

> <VdW6>
-10.062

> <VdW12>
11.069

> <Bond>
0.238

> <Angle>
3.202

> <Pdih>
7.544

> <Idih>
0.001

> <Tether>
0.000

$$$$
VeraChem MOL file


 25 24  0  0  0  0  0  0  0  0999 V2000     
   21.5209   16.9778   25.8812 C   0  0  0  0  0  0  0  0  0  0  0  0
   22.4427   16.5352   25.2242 O   0  5  0  0  0  0  0  0  0  0  0  0
   21.6729   17.6805   26.8614 O   0  0  0  0  0  0  0  0  0  0  0  0
   20.1001   16.5755   25.4905 C   0  0  0  0  0  0  0  0  0  0  0  0
   19.7078   15.9837   26.3256 H   0  0  0  0  0  0  0  0  0  0  0  0
   20.1446   15.9043   24.6243 H   0  0  0  0  0  0  0  0  0  0  0  0
   19.1292   17.7567   25.2083 C   0  0  0  0  0  0  0  0  0  0  0  0
   18.1023   17.3844   25.3229 H   0  0  0  0  0  0  0  0  0  0  0  0
   19.2542   18.5362   25.9727 H   0  0  0  0  0  0  0  0  0  0  0  0
   19.2492   18.3762   23.7934 C   0  0  0  0  0  0  0  0  0  0  0  0
   18.4096   19.0701   23.6625 H   0  0  0  0  0  0  0  0  0  0  0  0
   19.1229   17.5918   23.0349 H   0  0  0  0  0  0  0  0  0  0  0  0
   20.5787   19.1295   23.5461 C   0  0  0  0  0  0  0  0  0  0  0  0
   20.7392   19.8742   24.3376 H   0  0  0  0  0  0  0  0  0  0  0  0
   21.4130   18.4206   23.6112 H   0  0  0  0  0  0  0  0  0  0  0  0
   20.6513   19.8171   22.1615 C   0  0  0  0  0  0  0  0  0  0  0  0
   20.4584   19.0776   21.3723 H   0  0  0  0  0  0  0  0  0  0  0  0
   21.6786   20.1745   22.0068 H   0  0  0  0  0  0  0  0  0  0  0  0
   19.6810   21.0107   22.0092 C   0  0  0  0  0  0  0  0  0  0  0  0
   18.6410   20.6666   22.0774 H   0  0  0  0  0  0  0  0  0  0  0  0
   19.8378   21.7227   22.8312 H   0  0  0  0  0  0  0  0  0  0  0  0
   19.8810   21.7332   20.6616 C   0  0  0  0  0  0  0  0  0  0  0  0
   19.7039   21.0503   19.8203 H   0  0  0  0  0  0  0  0  0  0  0  0
   19.1836   22.5756   20.5670 H   0  0  0  0  0  0  0  0  0  0  0  0
   20.9020   22.1274   20.5742 H   0  0  0  0  0  0  0  0  0  0  0  0
  1  2  1  0  0  0  0
  1  3  2  0  0  0  0
  1  4  1  0  0  0  0
  4  5  1  0  0  0  0
  4  6  1  0  0  0  0
  4  7  1  0  0  0  0
  7  8  1  0  0  0  0
  7  9  1  0  0  0  0
  7 10  1  0  0  0  0
 10 11  1  0  0  0  0
 10 12  1  0  0  0  0
 10 13  1  0  0  0  0
 13 14  1  0  0  0  0
 13 15  1  0  0  0  0
 13 16  1  0  0  0  0
 16 17  1  0  0  0  0
 16 18  1  0  0  0  0
 16 19  1  0  0  0  0
 19 20  1  0  0  0  0
 19 21  1  0  0  0  0
 19 22  1  0  0  0  0
 22 23  1  0  0  0  0
 22 24  1  0  0  0  0
 22 25  1  0  0  0  0
M  END
> <VConfSearch Rank>
197

> <Conf_Id>
114

> <Delta U+W>
2.758

> <U+W>
-48.871

> <U>
11.422

> <W>
-60.293

> <W(PB)>
-62.719

> <W(SA)>
2.425

> <Valence>
10.135

> <Coulomb>
0.369

> <VdW>
0.918

> <VdW6>
-10.482

> <VdW12>
11.400

> <Bond>
0.245

> <Angle>
3.539

> <Pdih>
6.346

> <Idih>
0.006

> <Tether>
0.000

$$$$
VeraChem MOL file


 25 24  0  0  0  0  0  0  0  0999 V2000     
   22.7812   20.9222   21.2418 C   0  0  0  0  0  0  0  0  0  0  0  0
   23.2538   20.0782   20.5059 O   0  5  0  0  0  0  0  0  0  0  0  0
   22.1725   21.8963   20.8448 O   0  0  0  0  0  0  0  0  0  0  0  0
   22.9795   20.7627   22.7465 C   0  0  0  0  0  0  0  0  0  0  0  0
   23.2834   21.7386   23.1430 H   0  0  0  0  0  0  0  0  0  0  0  0
   23.8169   20.0756   22.9182 H   0  0  0  0  0  0  0  0  0  0  0  0
   21.7166   20.2682   23.4986 C   0  0  0  0  0  0  0  0  0  0  0  0
   21.9074   20.3067   24.5795 H   0  0  0  0  0  0  0  0  0  0  0  0
   20.8896   20.9614   23.2967 H   0  0  0  0  0  0  0  0  0  0  0  0
   21.3178   18.8266   23.1010 C   0  0  0  0  0  0  0  0  0  0  0  0
   22.1901   18.1701   23.2230 H   0  0  0  0  0  0  0  0  0  0  0  0
   21.0526   18.7925   22.0353 H   0  0  0  0  0  0  0  0  0  0  0  0
   20.1518   18.2527   23.9410 C   0  0  0  0  0  0  0  0  0  0  0  0
   20.0434   17.1904   23.6884 H   0  0  0  0  0  0  0  0  0  0  0  0
   20.4109   18.2944   25.0076 H   0  0  0  0  0  0  0  0  0  0  0  0
   18.8044   18.9776   23.7013 C   0  0  0  0  0  0  0  0  0  0  0  0
   18.5476   18.9388   22.6339 H   0  0  0  0  0  0  0  0  0  0  0  0
   18.9100   20.0393   23.9577 H   0  0  0  0  0  0  0  0  0  0  0  0
   17.6379   18.3982   24.5356 C   0  0  0  0  0  0  0  0  0  0  0  0
   17.8961   18.4248   25.6032 H   0  0  0  0  0  0  0  0  0  0  0  0
   16.7611   19.0489   24.4126 H   0  0  0  0  0  0  0  0  0  0  0  0
   17.2473   16.9602   24.1300 C   0  0  0  0  0  0  0  0  0  0  0  0
   16.3571   16.6342   24.6834 H   0  0  0  0  0  0  0  0  0  0  0  0
   17.0182   16.9027   23.0580 H   0  0  0  0  0  0  0  0  0  0  0  0
   18.0525   16.2481   24.3493 H   0  0  0  0  0  0  0  0  0  0  0  0
  1  2  1  0  0  0  0
  1  3  2  0  0  0  0
  1  4  1  0  0  0  0
  4  5  1  0  0  0  0
  4  6  1  0  0  0  0
  4  7  1  0  0  0  0
  7  8  1  0  0  0  0
  7  9  1  0  0  0  0
  7 10  1  0  0  0  0
 10 11  1  0  0  0  0
 10 12  1  0  0  0  0
 10 13  1  0  0  0  0
 13 14  1  0  0  0  0
 13 15  1  0  0  0  0
 13 16  1  0  0  0  0
 16 17  1  0  0  0  0
 16 18  1  0  0  0  0
 16 19  1  0  0  0  0
 19 20  1  0  0  0  0
 19 21  1  0  0  0  0
 19 22  1  0  0  0  0
 22 23  1  0  0  0  0
 22 24  1  0  0  0  0
 22 25  1  0  0  0  0
M  END
> <VConfSearch Rank>
198

> <Conf_Id>
87

> <Delta U+W>
1.453

> <U+W>
-50.176

> <U>
9.763

> <W>
-59.940

> <W(PB)>
-62.392

> <W(SA)>
2.452

> <Valence>
8.883

> <Coulomb>
-0.122

> <VdW>
1.003

> <VdW6>
-9.782

> <VdW12>
10.785

> <Bond>
0.212

> <Angle>
2.940

> <Pdih>
5.730

> <Idih>
0.001

> <Tether>
0.000

$$$$
VeraChem MOL file


 25 24  0  0  0  0  0  0  0  0999 V2000     
   23.9954   19.2564   23.8120 C   0  0  0  0  0  0  0  0  0  0  0  0
   24.3923   18.7279   22.7923 O   0  5  0  0  0  0  0  0  0  0  0  0
   24.5969   20.1394   24.3908 O   0  0  0  0  0  0  0  0  0  0  0  0
   22.6596   18.7989   24.3871 C   0  0  0  0  0  0  0  0  0  0  0  0
   22.7096   18.8904   25.4787 H   0  0  0  0  0  0  0  0  0  0  0  0
   22.5359   17.7341   24.1560 H   0  0  0  0  0  0  0  0  0  0  0  0
   21.4593   19.6075   23.8364 C   0  0  0  0  0  0  0  0  0  0  0  0
   21.6011   20.6721   24.0677 H   0  0  0  0  0  0  0  0  0  0  0  0
   21.4422   19.5167   22.7422 H   0  0  0  0  0  0  0  0  0  0  0  0
   20.1178   19.1189   24.4299 C   0  0  0  0  0  0  0  0  0  0  0  0
   20.1791   19.1514   25.5262 H   0  0  0  0  0  0  0  0  0  0  0  0
   19.9559   18.0657   24.1653 H   0  0  0  0  0  0  0  0  0  0  0  0
   18.9008   19.9677   23.9841 C   0  0  0  0  0  0  0  0  0  0  0  0
   18.0026   19.5943   24.4933 H   0  0  0  0  0  0  0  0  0  0  0  0
   19.0376   20.9975   24.3409 H   0  0  0  0  0  0  0  0  0  0  0  0
   18.6429   20.0043   22.4544 C   0  0  0  0  0  0  0  0  0  0  0  0
   19.4710   20.5277   21.9587 H   0  0  0  0  0  0  0  0  0  0  0  0
   17.7504   20.6159   22.2648 H   0  0  0  0  0  0  0  0  0  0  0  0
   18.4509   18.6213   21.7847 C   0  0  0  0  0  0  0  0  0  0  0  0
   18.3023   18.7718   20.7066 H   0  0  0  0  0  0  0  0  0  0  0  0
   19.3662   18.0229   21.8844 H   0  0  0  0  0  0  0  0  0  0  0  0
   17.2483   17.8328   22.3470 C   0  0  0  0  0  0  0  0  0  0  0  0
   16.3240   18.4201   22.2721 H   0  0  0  0  0  0  0  0  0  0  0  0
   17.1038   16.9005   21.7860 H   0  0  0  0  0  0  0  0  0  0  0  0
   17.4034   17.5671   23.4002 H   0  0  0  0  0  0  0  0  0  0  0  0
  1  2  1  0  0  0  0
  1  3  2  0  0  0  0
  1  4  1  0  0  0  0
  4  5  1  0  0  0  0
  4  6  1  0  0  0  0
  4  7  1  0  0  0  0
  7  8  1  0  0  0  0
  7  9  1  0  0  0  0
  7 10  1  0  0  0  0
 10 11  1  0  0  0  0
 10 12  1  0  0  0  0
 10 13  1  0  0  0  0
 13 14  1  0  0  0  0
 13 15  1  0  0  0  0
 13 16  1  0  0  0  0
 16 17  1  0  0  0  0
 16 18  1  0  0  0  0
 16 19  1  0  0  0  0
 19 20  1  0  0  0  0
 19 21  1  0  0  0  0
 19 22  1  0  0  0  0
 22 23  1  0  0  0  0
 22 24  1  0  0  0  0
 22 25  1  0  0  0  0
M  END
> <VConfSearch Rank>
199

> <Conf_Id>
29

> <Delta U+W>
0.850

> <U+W>
-50.780

> <U>
8.646

> <W>
-59.426

> <W(PB)>
-61.868

> <W(SA)>
2.442

> <Valence>
8.924

> <Coulomb>
-1.171

> <VdW>
0.894

> <VdW6>
-10.223

> <VdW12>
11.117

> <Bond>
0.231

> <Angle>
3.232

> <Pdih>
5.461

> <Idih>
0.001

> <Tether>
0.000

$$$$
VeraChem MOL file


 25 24  0  0  0  0  0  0  0  0999 V2000     
   23.6351   17.6346   23.5582 C   0  0  0  0  0  0  0  0  0  0  0  0
   24.0658   17.8470   22.4419 O   0  5  0  0  0  0  0  0  0  0  0  0
   23.9482   16.6706   24.2285 O   0  0  0  0  0  0  0  0  0  0  0  0
   22.6319   18.6225   24.1428 C   0  0  0  0  0  0  0  0  0  0  0  0
   22.8686   19.6196   23.7526 H   0  0  0  0  0  0  0  0  0  0  0  0
   22.7796   18.6554   25.2289 H   0  0  0  0  0  0  0  0  0  0  0  0
   21.1641   18.2551   23.8130 C   0  0  0  0  0  0  0  0  0  0  0  0
   21.0462   18.2088   22.7223 H   0  0  0  0  0  0  0  0  0  0  0  0
   20.9442   17.2515   24.2023 H   0  0  0  0  0  0  0  0  0  0  0  0
   20.1689   19.2762   24.4109 C   0  0  0  0  0  0  0  0  0  0  0  0
   20.3621   20.2725   23.9921 H   0  0  0  0  0  0  0  0  0  0  0  0
   20.3488   19.3599   25.4913 H   0  0  0  0  0  0  0  0  0  0  0  0
   18.6843   18.8911   24.1920 C   0  0  0  0  0  0  0  0  0  0  0  0
   18.4875   17.9371   24.6997 H   0  0  0  0  0  0  0  0  0  0  0  0
   18.0482   19.6313   24.6949 H   0  0  0  0  0  0  0  0  0  0  0  0
   18.2446   18.7624   22.7095 C   0  0  0  0  0  0  0  0  0  0  0  0
   17.1765   18.5074   22.6824 H   0  0  0  0  0  0  0  0  0  0  0  0
   18.7637   17.9117   22.2490 H   0  0  0  0  0  0  0  0  0  0  0  0
   18.4781   20.0229   21.8406 C   0  0  0  0  0  0  0  0  0  0  0  0
   19.5515   20.2462   21.7797 H   0  0  0  0  0  0  0  0  0  0  0  0
   18.1544   19.8052   20.8136 H   0  0  0  0  0  0  0  0  0  0  0  0
   17.7150   21.2649   22.3497 C   0  0  0  0  0  0  0  0  0  0  0  0
   18.0828   21.5830   23.3333 H   0  0  0  0  0  0  0  0  0  0  0  0
   17.8451   22.1065   21.6573 H   0  0  0  0  0  0  0  0  0  0  0  0
   16.6402   21.0582   22.4338 H   0  0  0  0  0  0  0  0  0  0  0  0
  1  2  1  0  0  0  0
  1  3  2  0  0  0  0
  1  4  1  0  0  0  0
  4  5  1  0  0  0  0
  4  6  1  0  0  0  0
  4  7  1  0  0  0  0
  7  8  1  0  0  0  0
  7  9  1  0  0  0  0
  7 10  1  0  0  0  0
 10 11  1  0  0  0  0
 10 12  1  0  0  0  0
 10 13  1  0  0  0  0
 13 14  1  0  0  0  0
 13 15  1  0  0  0  0
 13 16  1  0  0  0  0
 16 17  1  0  0  0  0
 16 18  1  0  0  0  0
 16 19  1  0  0  0  0
 19 20  1  0  0  0  0
 19 21  1  0  0  0  0
 19 22  1  0  0  0  0
 22 23  1  0  0  0  0
 22 24  1  0  0  0  0
 22 25  1  0  0  0  0
M  END
> <VConfSearch Rank>
200

> <Conf_Id>
30

> <Delta U+W>
0.843

> <U+W>
-50.787

> <U>
8.647

> <W>
-59.434

> <W(PB)>
-61.861

> <W(SA)>
2.428

> <Valence>
8.924

> <Coulomb>
-1.170

> <VdW>
0.894

> <VdW6>
-10.224

> <VdW12>
11.118

> <Bond>
0.231

> <Angle>
3.232

> <Pdih>
5.460

> <Idih>
0.000

> <Tether>
0.000

$$$$
VeraChem MOL file


 25 24  0  0  0  0  0  0  0  0999 V2000     
   17.6695   15.4859   24.7844 C   0  0  0  0  0  0  0  0  0  0  0  0
   18.1697   14.7078   23.9951 O   0  5  0  0  0  0  0  0  0  0  0  0
   16.8490   15.1522   25.6160 O   0  0  0  0  0  0  0  0  0  0  0  0
   18.0718   16.9612   24.7536 C   0  0  0  0  0  0  0  0  0  0  0  0
   18.4542   17.2166   25.7488 H   0  0  0  0  0  0  0  0  0  0  0  0
   17.1573   17.5463   24.6012 H   0  0  0  0  0  0  0  0  0  0  0  0
   19.1220   17.3388   23.6752 C   0  0  0  0  0  0  0  0  0  0  0  0
   20.0332   16.7444   23.8299 H   0  0  0  0  0  0  0  0  0  0  0  0
   18.7351   17.0745   22.6813 H   0  0  0  0  0  0  0  0  0  0  0  0
   19.4700   18.8428   23.7142 C   0  0  0  0  0  0  0  0  0  0  0  0
   19.8565   19.1048   24.7087 H   0  0  0  0  0  0  0  0  0  0  0  0
   18.5576   19.4350   23.5593 H   0  0  0  0  0  0  0  0  0  0  0  0
   20.5148   19.2162   22.6407 C   0  0  0  0  0  0  0  0  0  0  0  0
   21.4273   18.6242   22.7953 H   0  0  0  0  0  0  0  0  0  0  0  0
   20.1286   18.9544   21.6460 H   0  0  0  0  0  0  0  0  0  0  0  0
   20.8632   20.7199   22.6790 C   0  0  0  0  0  0  0  0  0  0  0  0
   21.2496   20.9819   23.6736 H   0  0  0  0  0  0  0  0  0  0  0  0
   19.9508   21.3121   22.5243 H   0  0  0  0  0  0  0  0  0  0  0  0
   21.9076   21.0932   21.6061 C   0  0  0  0  0  0  0  0  0  0  0  0
   22.8225   20.5041   21.7588 H   0  0  0  0  0  0  0  0  0  0  0  0
   21.5238   20.8343   20.6096 H   0  0  0  0  0  0  0  0  0  0  0  0
   22.2528   22.5955   21.6477 C   0  0  0  0  0  0  0  0  0  0  0  0
   22.6689   22.8761   22.6242 H   0  0  0  0  0  0  0  0  0  0  0  0
   22.9962   22.8431   20.8788 H   0  0  0  0  0  0  0  0  0  0  0  0
   21.3604   23.2088   21.4662 H   0  0  0  0  0  0  0  0  0  0  0  0
  1  2  1  0  0  0  0
  1  3  2  0  0  0  0
  1  4  1  0  0  0  0
  4  5  1  0  0  0  0
  4  6  1  0  0  0  0
  4  7  1  0  0  0  0
  7  8  1  0  0  0  0
  7  9  1  0  0  0  0
  7 10  1  0  0  0  0
 10 11  1  0  0  0  0
 10 12  1  0  0  0  0
 10 13  1  0  0  0  0
 13 14  1  0  0  0  0
 13 15  1  0  0  0  0
 13 16  1  0  0  0  0
 16 17  1  0  0  0  0
 16 18  1  0  0  0  0
 16 19  1  0  0  0  0
 19 20  1  0  0  0  0
 19 21  1  0  0  0  0
 19 22  1  0  0  0  0
 22 23  1  0  0  0  0
 22 24  1  0  0  0  0
 22 25  1  0  0  0  0
M  END
> <VConfSearch Rank>
201

> <Conf_Id>
0

> <Delta U+W>
0.000

> <U+W>
-51.629

> <U>
6.586

> <W>
-58.216

> <W(PB)>
-60.757

> <W(SA)>
2.541

> <Valence>
8.027

> <Coulomb>
-2.892

> <VdW>
1.451

> <VdW6>
-7.931

> <VdW12>
9.383

> <Bond>
0.149

> <Angle>
2.726

> <Pdih>
5.152

> <Idih>
0.000

> <Tether>
0.000

$$$$
VeraChem MOL file


 25 24  0  0  0  0  0  0  0  0999 V2000     
   16.5914   16.9009   21.0573 C   0  0  0  0  0  0  0  0  0  0  0  0
   16.6135   16.9471   19.8432 O   0  5  0  0  0  0  0  0  0  0  0  0
   16.1543   15.9584   21.6875 O   0  0  0  0  0  0  0  0  0  0  0  0
   17.1651   18.0813   21.8330 C   0  0  0  0  0  0  0  0  0  0  0  0
   16.6046   18.1775   22.7706 H   0  0  0  0  0  0  0  0  0  0  0  0
   16.9824   18.9925   21.2509 H   0  0  0  0  0  0  0  0  0  0  0  0
   18.6778   17.9292   22.1274 C   0  0  0  0  0  0  0  0  0  0  0  0
   18.8451   17.0057   22.6991 H   0  0  0  0  0  0  0  0  0  0  0  0
   19.2229   17.8206   21.1794 H   0  0  0  0  0  0  0  0  0  0  0  0
   19.2348   19.1361   22.9130 C   0  0  0  0  0  0  0  0  0  0  0  0
   18.6871   19.2425   23.8595 H   0  0  0  0  0  0  0  0  0  0  0  0
   19.0647   20.0577   22.3395 H   0  0  0  0  0  0  0  0  0  0  0  0
   20.7429   18.9817   23.2049 C   0  0  0  0  0  0  0  0  0  0  0  0
   20.9132   18.0603   23.7785 H   0  0  0  0  0  0  0  0  0  0  0  0
   21.2908   18.8753   22.2585 H   0  0  0  0  0  0  0  0  0  0  0  0
   21.3006   20.1883   23.9904 C   0  0  0  0  0  0  0  0  0  0  0  0
   20.7530   20.2950   24.9369 H   0  0  0  0  0  0  0  0  0  0  0  0
   21.1305   21.1099   23.4170 H   0  0  0  0  0  0  0  0  0  0  0  0
   22.8081   20.0342   24.2822 C   0  0  0  0  0  0  0  0  0  0  0  0
   22.9820   19.1142   24.8573 H   0  0  0  0  0  0  0  0  0  0  0  0
   23.3595   19.9292   23.3375 H   0  0  0  0  0  0  0  0  0  0  0  0
   23.3612   21.2410   25.0667 C   0  0  0  0  0  0  0  0  0  0  0  0
   24.4334   21.1148   25.2653 H   0  0  0  0  0  0  0  0  0  0  0  0
   23.2288   22.1720   24.5000 H   0  0  0  0  0  0  0  0  0  0  0  0
   22.8485   21.3509   26.0313 H   0  0  0  0  0  0  0  0  0  0  0  0
  1  2  1  0  0  0  0
  1  3  2  0  0  0  0
  1  4  1  0  0  0  0
  4  5  1  0  0  0  0
  4  6  1  0  0  0  0
  4  7  1  0  0  0  0
  7  8  1  0  0  0  0
  7  9  1  0  0  0  0
  7 10  1  0  0  0  0
 10 11  1  0  0  0  0
 10 12  1  0  0  0  0
 10 13  1  0  0  0  0
 13 14  1  0  0  0  0
 13 15  1  0  0  0  0
 13 16  1  0  0  0  0
 16 17  1  0  0  0  0
 16 18  1  0  0  0  0
 16 19  1  0  0  0  0
 19 20  1  0  0  0  0
 19 21  1  0  0  0  0
 19 22  1  0  0  0  0
 22 23  1  0  0  0  0
 22 24  1  0  0  0  0
 22 25  1  0  0  0  0
M  END
> <VConfSearch Rank>
202

> <Conf_Id>
27

> <Delta U+W>
-1.297

> <U+W>
-52.926

> <U>
5.617

> <W>
-58.543

> <W(PB)>
-61.065

> <W(SA)>
2.522

> <Valence>
7.531

> <Coulomb>
-2.818

> <VdW>
0.904

> <VdW6>
-7.640

> <VdW12>
8.544

> <Bond>
0.115

> <Angle>
2.271

> <Pdih>
5.144

> <Idih>
0.001

> <Tether>
0.000

$$$$
VeraChem MOL file


 25 24  0  0  0  0  0  0  0  0999 V2000     
   22.7056   21.0017   25.8746 C   0  0  0  0  0  0  0  0  0  0  0  0
   23.3669   20.2524   26.5662 O   0  5  0  0  0  0  0  0  0  0  0  0
   23.1810   21.7252   25.0216 O   0  0  0  0  0  0  0  0  0  0  0  0
   21.1974   21.0473   26.1032 C   0  0  0  0  0  0  0  0  0  0  0  0
   20.8063   21.9779   25.6743 H   0  0  0  0  0  0  0  0  0  0  0  0
   21.0314   21.1023   27.1855 H   0  0  0  0  0  0  0  0  0  0  0  0
   20.4348   19.8279   25.5231 C   0  0  0  0  0  0  0  0  0  0  0  0
   20.8561   18.9029   25.9409 H   0  0  0  0  0  0  0  0  0  0  0  0
   19.3873   19.8741   25.8503 H   0  0  0  0  0  0  0  0  0  0  0  0
   20.4846   19.7753   23.9796 C   0  0  0  0  0  0  0  0  0  0  0  0
   21.5292   19.7113   23.6448 H   0  0  0  0  0  0  0  0  0  0  0  0
   20.0749   20.7076   23.5672 H   0  0  0  0  0  0  0  0  0  0  0  0
   19.6929   18.5725   23.4226 C   0  0  0  0  0  0  0  0  0  0  0  0
   20.1033   17.6408   23.8356 H   0  0  0  0  0  0  0  0  0  0  0  0
   18.6473   18.6361   23.7537 H   0  0  0  0  0  0  0  0  0  0  0  0
   19.7429   18.5189   21.8804 C   0  0  0  0  0  0  0  0  0  0  0  0
   20.7886   18.4554   21.5492 H   0  0  0  0  0  0  0  0  0  0  0  0
   19.3329   19.4507   21.4673 H   0  0  0  0  0  0  0  0  0  0  0  0
   18.9522   17.3165   21.3233 C   0  0  0  0  0  0  0  0  0  0  0  0
   19.3609   16.3824   21.7331 H   0  0  0  0  0  0  0  0  0  0  0  0
   17.9051   17.3777   21.6511 H   0  0  0  0  0  0  0  0  0  0  0  0
   19.0047   17.2664   19.7830 C   0  0  0  0  0  0  0  0  0  0  0  0
   20.0395   17.1732   19.4281 H   0  0  0  0  0  0  0  0  0  0  0  0
   18.4378   16.4061   19.4043 H   0  0  0  0  0  0  0  0  0  0  0  0
   18.5729   18.1761   19.3455 H   0  0  0  0  0  0  0  0  0  0  0  0
  1  2  1  0  0  0  0
  1  3  2  0  0  0  0
  1  4  1  0  0  0  0
  4  5  1  0  0  0  0
  4  6  1  0  0  0  0
  4  7  1  0  0  0  0
  7  8  1  0  0  0  0
  7  9  1  0  0  0  0
  7 10  1  0  0  0  0
 10 11  1  0  0  0  0
 10 12  1  0  0  0  0
 10 13  1  0  0  0  0
 13 14  1  0  0  0  0
 13 15  1  0  0  0  0
 13 16  1  0  0  0  0
 16 17  1  0  0  0  0
 16 18  1  0  0  0  0
 16 19  1  0  0  0  0
 19 20  1  0  0  0  0
 19 21  1  0  0  0  0
 19 22  1  0  0  0  0
 22 23  1  0  0  0  0
 22 24  1  0  0  0  0
 22 25  1  0  0  0  0
M  END
> <VConfSearch Rank>
203

> <Conf_Id>
37

> <Delta U+W>
-0.230

> <U+W>
-51.860

> <U>
7.816

> <W>
-59.675

> <W(PB)>
-62.180

> <W(SA)>
2.505

> <Valence>
7.785

> <Coulomb>
-0.713

> <VdW>
0.744

> <VdW6>
-8.514

> <VdW12>
9.259

> <Bond>
0.136

> <Angle>
2.433

> <Pdih>
5.216

> <Idih>
0.000

> <Tether>
0.000

$$$$
VeraChem MOL file


 25 24  0  0  0  0  0  0  0  0999 V2000     
   16.3561   20.5293   22.0698 C   0  0  0  0  0  0  0  0  0  0  0  0
   16.0302   21.6228   22.4881 O   0  5  0  0  0  0  0  0  0  0  0  0
   15.7981   19.4958   22.3821 O   0  0  0  0  0  0  0  0  0  0  0  0
   17.5201   20.4539   21.0857 C   0  0  0  0  0  0  0  0  0  0  0  0
   17.3686   21.2410   20.3378 H   0  0  0  0  0  0  0  0  0  0  0  0
   17.4675   19.4961   20.5540 H   0  0  0  0  0  0  0  0  0  0  0  0
   18.9139   20.6255   21.7437 C   0  0  0  0  0  0  0  0  0  0  0  0
   19.6744   20.6960   20.9542 H   0  0  0  0  0  0  0  0  0  0  0  0
   18.9415   21.5757   22.2951 H   0  0  0  0  0  0  0  0  0  0  0  0
   19.2709   19.4592   22.6924 C   0  0  0  0  0  0  0  0  0  0  0  0
   19.2289   18.5106   22.1397 H   0  0  0  0  0  0  0  0  0  0  0  0
   18.5237   19.3931   23.4953 H   0  0  0  0  0  0  0  0  0  0  0  0
   20.6744   19.6346   23.3111 C   0  0  0  0  0  0  0  0  0  0  0  0
   21.4237   19.6981   22.5101 H   0  0  0  0  0  0  0  0  0  0  0  0
   20.7154   20.5834   23.8636 H   0  0  0  0  0  0  0  0  0  0  0  0
   21.0316   18.4700   24.2597 C   0  0  0  0  0  0  0  0  0  0  0  0
   20.9904   17.5210   23.7075 H   0  0  0  0  0  0  0  0  0  0  0  0
   20.2824   18.4063   25.0608 H   0  0  0  0  0  0  0  0  0  0  0  0
   22.4342   18.6452   24.8789 C   0  0  0  0  0  0  0  0  0  0  0  0
   23.1865   18.7074   24.0804 H   0  0  0  0  0  0  0  0  0  0  0  0
   22.4784   19.5926   25.4338 H   0  0  0  0  0  0  0  0  0  0  0  0
   22.7869   17.4802   25.8255 C   0  0  0  0  0  0  0  0  0  0  0  0
   22.7810   16.5224   25.2888 H   0  0  0  0  0  0  0  0  0  0  0  0
   23.7866   17.6209   26.2565 H   0  0  0  0  0  0  0  0  0  0  0  0
   22.0676   17.4142   26.6523 H   0  0  0  0  0  0  0  0  0  0  0  0
  1  2  1  0  0  0  0
  1  3  2  0  0  0  0
  1  4  1  0  0  0  0
  4  5  1  0  0  0  0
  4  6  1  0  0  0  0
  4  7  1  0  0  0  0
  7  8  1  0  0  0  0
  7  9  1  0  0  0  0
  7 10  1  0  0  0  0
 10 11  1  0  0  0  0
 10 12  1  0  0  0  0
 10 13  1  0  0  0  0
 13 14  1  0  0  0  0
 13 15  1  0  0  0  0
 13 16  1  0  0  0  0
 16 17  1  0  0  0  0
 16 18  1  0  0  0  0
 16 19  1  0  0  0  0
 19 20  1  0  0  0  0
 19 21  1  0  0  0  0
 19 22  1  0  0  0  0
 22 23  1  0  0  0  0
 22 24  1  0  0  0  0
 22 25  1  0  0  0  0
M  END
> <VConfSearch Rank>
204

> <Conf_Id>
54

> <Delta U+W>
-0.224

> <U+W>
-51.854

> <U>
7.816

> <W>
-59.670

> <W(PB)>
-62.157

> <W(SA)>
2.487

> <Valence>
7.785

> <Coulomb>
-0.713

> <VdW>
0.744

> <VdW6>
-8.515

> <VdW12>
9.259

> <Bond>
0.136

> <Angle>
2.433

> <Pdih>
5.215

> <Idih>
0.000

> <Tether>
0.000

$$$$
VeraChem MOL file


 25 24  0  0  0  0  0  0  0  0999 V2000     
   23.1740   20.4796   20.9963 C   0  0  0  0  0  0  0  0  0  0  0  0
   24.0865   19.7011   21.1921 O   0  5  0  0  0  0  0  0  0  0  0  0
   22.7912   20.8024   19.8889 O   0  0  0  0  0  0  0  0  0  0  0  0
   22.4814   21.1012   22.2059 C   0  0  0  0  0  0  0  0  0  0  0  0
   22.3893   22.1765   22.0128 H   0  0  0  0  0  0  0  0  0  0  0  0
   23.1352   20.9904   23.0795 H   0  0  0  0  0  0  0  0  0  0  0  0
   21.0804   20.5077   22.5068 C   0  0  0  0  0  0  0  0  0  0  0  0
   20.6050   21.1187   23.2843 H   0  0  0  0  0  0  0  0  0  0  0  0
   20.4509   20.5886   21.6098 H   0  0  0  0  0  0  0  0  0  0  0  0
   21.1477   19.0320   22.9694 C   0  0  0  0  0  0  0  0  0  0  0  0
   21.7395   18.9586   23.8920 H   0  0  0  0  0  0  0  0  0  0  0  0
   21.6823   18.4424   22.2122 H   0  0  0  0  0  0  0  0  0  0  0  0
   19.7581   18.3883   23.1919 C   0  0  0  0  0  0  0  0  0  0  0  0
   19.1599   18.4788   22.2750 H   0  0  0  0  0  0  0  0  0  0  0  0
   19.9064   17.3143   23.3615 H   0  0  0  0  0  0  0  0  0  0  0  0
   18.9799   18.9934   24.3865 C   0  0  0  0  0  0  0  0  0  0  0  0
   18.8238   20.0660   24.2158 H   0  0  0  0  0  0  0  0  0  0  0  0
   19.5806   18.9072   25.3020 H   0  0  0  0  0  0  0  0  0  0  0  0
   17.5962   18.3400   24.6125 C   0  0  0  0  0  0  0  0  0  0  0  0
   17.0584   18.9132   25.3802 H   0  0  0  0  0  0  0  0  0  0  0  0
   16.9968   18.4132   23.6946 H   0  0  0  0  0  0  0  0  0  0  0  0
   17.6792   16.8654   25.0639 C   0  0  0  0  0  0  0  0  0  0  0  0
   18.1000   16.2273   24.2771 H   0  0  0  0  0  0  0  0  0  0  0  0
   18.3033   16.7637   25.9613 H   0  0  0  0  0  0  0  0  0  0  0  0
   16.6793   16.4808   25.3028 H   0  0  0  0  0  0  0  0  0  0  0  0
  1  2  1  0  0  0  0
  1  3  2  0  0  0  0
  1  4  1  0  0  0  0
  4  5  1  0  0  0  0
  4  6  1  0  0  0  0
  4  7  1  0  0  0  0
  7  8  1  0  0  0  0
  7  9  1  0  0  0  0
  7 10  1  0  0  0  0
 10 11  1  0  0  0  0
 10 12  1  0  0  0  0
 10 13  1  0  0  0  0
 13 14  1  0  0  0  0
 13 15  1  0  0  0  0
 13 16  1  0  0  0  0
 16 17  1  0  0  0  0
 16 18  1  0  0  0  0
 16 19  1  0  0  0  0
 19 20  1  0  0  0  0
 19 21  1  0  0  0  0
 19 22  1  0  0  0  0
 22 23  1  0  0  0  0
 22 24  1  0  0  0  0
 22 25  1  0  0  0  0
M  END
> <VConfSearch Rank>
205

> <Conf_Id>
101

> <Delta U+W>
1.534

> <U+W>
-50.095

> <U>
9.416

> <W>
-59.512

> <W(PB)>
-61.988

> <W(SA)>
2.476

> <Valence>
8.939

> <Coulomb>
-0.615

> <VdW>
1.092

> <VdW6>
-9.710

> <VdW12>
10.802

> <Bond>
0.216

> <Angle>
2.979

> <Pdih>
5.743

> <Idih>
0.000

> <Tether>
0.000

$$$$
VeraChem MOL file


 25 24  0  0  0  0  0  0  0  0999 V2000     
   21.2933   20.8765   19.6247 C   0  0  0  0  0  0  0  0  0  0  0  0
   22.3488   21.4473   19.8173 O   0  5  0  0  0  0  0  0  0  0  0  0
   20.9103   20.5220   18.5273 O   0  0  0  0  0  0  0  0  0  0  0  0
   20.4112   20.5680   20.8292 C   0  0  0  0  0  0  0  0  0  0  0  0
   19.3654   20.5961   20.5007 H   0  0  0  0  0  0  0  0  0  0  0  0
   20.5463   21.3768   21.5558 H   0  0  0  0  0  0  0  0  0  0  0  0
   20.7336   19.1936   21.4716 C   0  0  0  0  0  0  0  0  0  0  0  0
   20.6836   18.4213   20.6916 H   0  0  0  0  0  0  0  0  0  0  0  0
   21.7684   19.1940   21.8412 H   0  0  0  0  0  0  0  0  0  0  0  0
   19.7695   18.8017   22.6169 C   0  0  0  0  0  0  0  0  0  0  0  0
   19.9889   17.7655   22.9042 H   0  0  0  0  0  0  0  0  0  0  0  0
   18.7350   18.8115   22.2478 H   0  0  0  0  0  0  0  0  0  0  0  0
   19.8896   19.7144   23.8621 C   0  0  0  0  0  0  0  0  0  0  0  0
   20.9233   19.7040   24.2315 H   0  0  0  0  0  0  0  0  0  0  0  0
   19.6791   20.7524   23.5758 H   0  0  0  0  0  0  0  0  0  0  0  0
   18.9152   19.3324   25.0053 C   0  0  0  0  0  0  0  0  0  0  0  0
   17.8836   19.4328   24.6414 H   0  0  0  0  0  0  0  0  0  0  0  0
   19.0223   20.0653   25.8165 H   0  0  0  0  0  0  0  0  0  0  0  0
   19.1004   17.9109   25.5924 C   0  0  0  0  0  0  0  0  0  0  0  0
   18.3544   17.7610   26.3849 H   0  0  0  0  0  0  0  0  0  0  0  0
   18.8849   17.1530   24.8279 H   0  0  0  0  0  0  0  0  0  0  0  0
   20.5066   17.6704   26.1830 C   0  0  0  0  0  0  0  0  0  0  0  0
   20.7532   18.4323   26.9337 H   0  0  0  0  0  0  0  0  0  0  0  0
   20.5564   16.6874   26.6688 H   0  0  0  0  0  0  0  0  0  0  0  0
   21.2763   17.6941   25.4013 H   0  0  0  0  0  0  0  0  0  0  0  0
  1  2  1  0  0  0  0
  1  3  2  0  0  0  0
  1  4  1  0  0  0  0
  4  5  1  0  0  0  0
  4  6  1  0  0  0  0
  4  7  1  0  0  0  0
  7  8  1  0  0  0  0
  7  9  1  0  0  0  0
  7 10  1  0  0  0  0
 10 11  1  0  0  0  0
 10 12  1  0  0  0  0
 10 13  1  0  0  0  0
 13 14  1  0  0  0  0
 13 15  1  0  0  0  0
 13 16  1  0  0  0  0
 16 17  1  0  0  0  0
 16 18  1  0  0  0  0
 16 19  1  0  0  0  0
 19 20  1  0  0  0  0
 19 21  1  0  0  0  0
 19 22  1  0  0  0  0
 22 23  1  0  0  0  0
 22 24  1  0  0  0  0
 22 25  1  0  0  0  0
M  END
> <VConfSearch Rank>
206

> <Conf_Id>
75

> <Delta U+W>
1.014

> <U+W>
-50.615

> <U>
8.474

> <W>
-59.089

> <W(PB)>
-61.530

> <W(SA)>
2.441

> <Valence>
9.080

> <Coulomb>
-1.772

> <VdW>
1.165

> <VdW6>
-9.830

> <VdW12>
10.996

> <Bond>
0.240

> <Angle>
3.225

> <Pdih>
5.615

> <Idih>
0.001

> <Tether>
0.000

$$$$
VeraChem MOL file


 25 24  0  0  0  0  0  0  0  0999 V2000     
   17.9732   22.7703   22.5527 C   0  0  0  0  0  0  0  0  0  0  0  0
   17.9958   22.9891   21.3576 O   0  5  0  0  0  0  0  0  0  0  0  0
   17.1045   23.1816   23.2963 O   0  0  0  0  0  0  0  0  0  0  0  0
   19.0849   21.9144   23.1490 C   0  0  0  0  0  0  0  0  0  0  0  0
   19.2684   22.2595   24.1735 H   0  0  0  0  0  0  0  0  0  0  0  0
   20.0014   22.0987   22.5756 H   0  0  0  0  0  0  0  0  0  0  0  0
   18.7476   20.4030   23.1462 C   0  0  0  0  0  0  0  0  0  0  0  0
   17.8210   20.2367   23.7131 H   0  0  0  0  0  0  0  0  0  0  0  0
   18.5539   20.0765   22.1150 H   0  0  0  0  0  0  0  0  0  0  0  0
   19.8887   19.5581   23.7530 C   0  0  0  0  0  0  0  0  0  0  0  0
   20.0792   19.8882   24.7833 H   0  0  0  0  0  0  0  0  0  0  0  0
   20.8120   19.7380   23.1895 H   0  0  0  0  0  0  0  0  0  0  0  0
   19.5445   18.0501   23.7535 C   0  0  0  0  0  0  0  0  0  0  0  0
   18.6346   17.9073   24.3524 H   0  0  0  0  0  0  0  0  0  0  0  0
   19.2980   17.7136   22.7372 H   0  0  0  0  0  0  0  0  0  0  0  0
   20.6681   17.1636   24.3486 C   0  0  0  0  0  0  0  0  0  0  0  0
   20.1962   16.3381   24.8988 H   0  0  0  0  0  0  0  0  0  0  0  0
   21.2443   17.7281   25.0944 H   0  0  0  0  0  0  0  0  0  0  0  0
   21.6224   16.5390   23.3007 C   0  0  0  0  0  0  0  0  0  0  0  0
   22.3224   15.8710   23.8212 H   0  0  0  0  0  0  0  0  0  0  0  0
   21.0478   15.9048   22.6115 H   0  0  0  0  0  0  0  0  0  0  0  0
   22.4343   17.5706   22.4902 C   0  0  0  0  0  0  0  0  0  0  0  0
   22.9680   18.2622   23.1548 H   0  0  0  0  0  0  0  0  0  0  0  0
   23.1771   17.0649   21.8600 H   0  0  0  0  0  0  0  0  0  0  0  0
   21.7828   18.1547   21.8284 H   0  0  0  0  0  0  0  0  0  0  0  0
  1  2  1  0  0  0  0
  1  3  2  0  0  0  0
  1  4  1  0  0  0  0
  4  5  1  0  0  0  0
  4  6  1  0  0  0  0
  4  7  1  0  0  0  0
  7  8  1  0  0  0  0
  7  9  1  0  0  0  0
  7 10  1  0  0  0  0
 10 11  1  0  0  0  0
 10 12  1  0  0  0  0
 10 13  1  0  0  0  0
 13 14  1  0  0  0  0
 13 15  1  0  0  0  0
 13 16  1  0  0  0  0
 16 17  1  0  0  0  0
 16 18  1  0  0  0  0
 16 19  1  0  0  0  0
 19 20  1  0  0  0  0
 19 21  1  0  0  0  0
 19 22  1  0  0  0  0
 22 23  1  0  0  0  0
 22 24  1  0  0  0  0
 22 25  1  0  0  0  0
M  END
> <VConfSearch Rank>
207

> <Conf_Id>
125

> <Delta U+W>
2.314

> <U+W>
-49.315

> <U>
9.740

> <W>
-59.054

> <W(PB)>
-61.488

> <W(SA)>
2.433

> <Valence>
10.506

> <Coulomb>
-1.761

> <VdW>
0.994

> <VdW6>
-9.209

> <VdW12>
10.203

> <Bond>
0.193

> <Angle>
2.979

> <Pdih>
7.334

> <Idih>
0.001

> <Tether>
0.000

$$$$
VeraChem MOL file


 25 24  0  0  0  0  0  0  0  0999 V2000     
   23.2014   21.6904   22.5074 C   0  0  0  0  0  0  0  0  0  0  0  0
   24.1734   20.9778   22.3517 O   0  5  0  0  0  0  0  0  0  0  0  0
   23.2567   22.9034   22.5549 O   0  0  0  0  0  0  0  0  0  0  0  0
   21.8403   21.0249   22.6767 C   0  0  0  0  0  0  0  0  0  0  0  0
   21.8389   20.1115   22.0714 H   0  0  0  0  0  0  0  0  0  0  0  0
   21.0798   21.6947   22.2578 H   0  0  0  0  0  0  0  0  0  0  0  0
   21.5114   20.7009   24.1572 C   0  0  0  0  0  0  0  0  0  0  0  0
   22.2534   19.9928   24.5514 H   0  0  0  0  0  0  0  0  0  0  0  0
   21.6144   21.6201   24.7505 H   0  0  0  0  0  0  0  0  0  0  0  0
   20.0864   20.1346   24.3645 C   0  0  0  0  0  0  0  0  0  0  0  0
   19.3466   20.8490   23.9782 H   0  0  0  0  0  0  0  0  0  0  0  0
   19.9003   20.0474   25.4437 H   0  0  0  0  0  0  0  0  0  0  0  0
   19.8712   18.7535   23.7031 C   0  0  0  0  0  0  0  0  0  0  0  0
   19.9880   18.8443   22.6165 H   0  0  0  0  0  0  0  0  0  0  0  0
   20.6426   18.0545   24.0536 H   0  0  0  0  0  0  0  0  0  0  0  0
   18.4713   18.1804   24.0242 C   0  0  0  0  0  0  0  0  0  0  0  0
   17.6970   18.8546   23.6332 H   0  0  0  0  0  0  0  0  0  0  0  0
   18.3375   18.1521   25.1142 H   0  0  0  0  0  0  0  0  0  0  0  0
   18.2468   16.7558   23.4657 C   0  0  0  0  0  0  0  0  0  0  0  0
   19.0164   16.0774   23.8591 H   0  0  0  0  0  0  0  0  0  0  0  0
   17.2832   16.3799   23.8365 H   0  0  0  0  0  0  0  0  0  0  0  0
   18.2422   16.6970   21.9226 C   0  0  0  0  0  0  0  0  0  0  0  0
   19.2257   16.9524   21.5088 H   0  0  0  0  0  0  0  0  0  0  0  0
   17.9895   15.6860   21.5779 H   0  0  0  0  0  0  0  0  0  0  0  0
   17.5014   17.3913   21.5051 H   0  0  0  0  0  0  0  0  0  0  0  0
  1  2  1  0  0  0  0
  1  3  2  0  0  0  0
  1  4  1  0  0  0  0
  4  5  1  0  0  0  0
  4  6  1  0  0  0  0
  4  7  1  0  0  0  0
  7  8  1  0  0  0  0
  7  9  1  0  0  0  0
  7 10  1  0  0  0  0
 10 11  1  0  0  0  0
 10 12  1  0  0  0  0
 10 13  1  0  0  0  0
 13 14  1  0  0  0  0
 13 15  1  0  0  0  0
 13 16  1  0  0  0  0
 16 17  1  0  0  0  0
 16 18  1  0  0  0  0
 16 19  1  0  0  0  0
 19 20  1  0  0  0  0
 19 21  1  0  0  0  0
 19 22  1  0  0  0  0
 22 23  1  0  0  0  0
 22 24  1  0  0  0  0
 22 25  1  0  0  0  0
M  END
> <VConfSearch Rank>
208

> <Conf_Id>
4

> <Delta U+W>
0.189

> <U+W>
-51.441

> <U>
7.701

> <W>
-59.141

> <W(PB)>
-61.609

> <W(SA)>
2.467

> <Valence>
8.550

> <Coulomb>
-1.988

> <VdW>
1.139

> <VdW6>
-8.988

> <VdW12>
10.127

> <Bond>
0.191

> <Angle>
2.738

> <Pdih>
5.621

> <Idih>
0.001

> <Tether>
0.000

$$$$
VeraChem MOL file


 25 24  0  0  0  0  0  0  0  0999 V2000     
   18.6818   22.8098   21.9044 C   0  0  0  0  0  0  0  0  0  0  0  0
   19.3526   23.6486   22.4729 O   0  5  0  0  0  0  0  0  0  0  0  0
   17.9004   23.0659   21.0097 O   0  0  0  0  0  0  0  0  0  0  0  0
   18.8468   21.3526   22.3206 C   0  0  0  0  0  0  0  0  0  0  0  0
   17.8846   20.8468   22.1770 H   0  0  0  0  0  0  0  0  0  0  0  0
   19.0667   21.3358   23.3939 H   0  0  0  0  0  0  0  0  0  0  0  0
   19.9591   20.6235   21.5226 C   0  0  0  0  0  0  0  0  0  0  0  0
   19.7573   20.7412   20.4489 H   0  0  0  0  0  0  0  0  0  0  0  0
   20.9256   21.1107   21.7117 H   0  0  0  0  0  0  0  0  0  0  0  0
   20.0627   19.1136   21.8447 C   0  0  0  0  0  0  0  0  0  0  0  0
   20.7877   18.6598   21.1552 H   0  0  0  0  0  0  0  0  0  0  0  0
   19.0978   18.6276   21.6453 H   0  0  0  0  0  0  0  0  0  0  0  0
   20.5010   18.8235   23.2990 C   0  0  0  0  0  0  0  0  0  0  0  0
   21.4408   19.3512   23.5113 H   0  0  0  0  0  0  0  0  0  0  0  0
   19.7480   19.2136   23.9943 H   0  0  0  0  0  0  0  0  0  0  0  0
   20.6929   17.3089   23.5445 C   0  0  0  0  0  0  0  0  0  0  0  0
   21.4006   16.9130   22.8033 H   0  0  0  0  0  0  0  0  0  0  0  0
   19.7423   16.7839   23.3783 H   0  0  0  0  0  0  0  0  0  0  0  0
   21.2267   16.9774   24.9576 C   0  0  0  0  0  0  0  0  0  0  0  0
   21.4463   15.9020   25.0079 H   0  0  0  0  0  0  0  0  0  0  0  0
   22.1803   17.4968   25.1254 H   0  0  0  0  0  0  0  0  0  0  0  0
   20.2349   17.3350   26.0859 C   0  0  0  0  0  0  0  0  0  0  0  0
   19.2628   16.8518   25.9225 H   0  0  0  0  0  0  0  0  0  0  0  0
   20.6206   16.9983   27.0569 H   0  0  0  0  0  0  0  0  0  0  0  0
   20.0747   18.4185   26.1504 H   0  0  0  0  0  0  0  0  0  0  0  0
  1  2  1  0  0  0  0
  1  3  2  0  0  0  0
  1  4  1  0  0  0  0
  4  5  1  0  0  0  0
  4  6  1  0  0  0  0
  4  7  1  0  0  0  0
  7  8  1  0  0  0  0
  7  9  1  0  0  0  0
  7 10  1  0  0  0  0
 10 11  1  0  0  0  0
 10 12  1  0  0  0  0
 10 13  1  0  0  0  0
 13 14  1  0  0  0  0
 13 15  1  0  0  0  0
 13 16  1  0  0  0  0
 16 17  1  0  0  0  0
 16 18  1  0  0  0  0
 16 19  1  0  0  0  0
 19 20  1  0  0  0  0
 19 21  1  0  0  0  0
 19 22  1  0  0  0  0
 22 23  1  0  0  0  0
 22 24  1  0  0  0  0
 22 25  1  0  0  0  0
M  END
> <VConfSearch Rank>
209

> <Conf_Id>
17

> <Delta U+W>
0.219

> <U+W>
-51.411

> <U>
7.701

> <W>
-59.111

> <W(PB)>
-61.599

> <W(SA)>
2.488

> <Valence>
8.550

> <Coulomb>
-1.988

> <VdW>
1.139

> <VdW6>
-8.988

> <VdW12>
10.127

> <Bond>
0.191

> <Angle>
2.738

> <Pdih>
5.621

> <Idih>
0.001

> <Tether>
0.000

$$$$
VeraChem MOL file


 25 24  0  0  0  0  0  0  0  0999 V2000     
   23.2871   20.1046   25.0835 C   0  0  0  0  0  0  0  0  0  0  0  0
   23.3220   19.6111   26.1936 O   0  5  0  0  0  0  0  0  0  0  0  0
   23.3142   21.3023   24.8785 O   0  0  0  0  0  0  0  0  0  0  0  0
   23.2255   19.1704   23.8784 C   0  0  0  0  0  0  0  0  0  0  0  0
   23.5650   18.1750   24.1895 H   0  0  0  0  0  0  0  0  0  0  0  0
   23.9500   19.5367   23.1415 H   0  0  0  0  0  0  0  0  0  0  0  0
   21.8224   19.0789   23.2244 C   0  0  0  0  0  0  0  0  0  0  0  0
   21.4966   20.0881   22.9396 H   0  0  0  0  0  0  0  0  0  0  0  0
   21.8983   18.4956   22.2969 H   0  0  0  0  0  0  0  0  0  0  0  0
   20.7764   18.4223   24.1569 C   0  0  0  0  0  0  0  0  0  0  0  0
   20.6412   19.0371   25.0575 H   0  0  0  0  0  0  0  0  0  0  0  0
   21.1628   17.4527   24.4999 H   0  0  0  0  0  0  0  0  0  0  0  0
   19.4047   18.1926   23.4791 C   0  0  0  0  0  0  0  0  0  0  0  0
   19.5363   17.5707   22.5831 H   0  0  0  0  0  0  0  0  0  0  0  0
   18.7695   17.6171   24.1662 H   0  0  0  0  0  0  0  0  0  0  0  0
   18.6771   19.5038   23.1017 C   0  0  0  0  0  0  0  0  0  0  0  0
   19.2636   20.0569   22.3567 H   0  0  0  0  0  0  0  0  0  0  0  0
   18.5962   20.1470   23.9886 H   0  0  0  0  0  0  0  0  0  0  0  0
   17.2685   19.2310   22.5331 C   0  0  0  0  0  0  0  0  0  0  0  0
   17.3458   18.5861   21.6467 H   0  0  0  0  0  0  0  0  0  0  0  0
   16.6687   18.6846   23.2742 H   0  0  0  0  0  0  0  0  0  0  0  0
   16.5456   20.5391   22.1538 C   0  0  0  0  0  0  0  0  0  0  0  0
   17.1079   21.0912   21.3893 H   0  0  0  0  0  0  0  0  0  0  0  0
   15.5464   20.3266   21.7521 H   0  0  0  0  0  0  0  0  0  0  0  0
   16.4274   21.1906   23.0296 H   0  0  0  0  0  0  0  0  0  0  0  0
  1  2  1  0  0  0  0
  1  3  2  0  0  0  0
  1  4  1  0  0  0  0
  4  5  1  0  0  0  0
  4  6  1  0  0  0  0
  4  7  1  0  0  0  0
  7  8  1  0  0  0  0
  7  9  1  0  0  0  0
  7 10  1  0  0  0  0
 10 11  1  0  0  0  0
 10 12  1  0  0  0  0
 10 13  1  0  0  0  0
 13 14  1  0  0  0  0
 13 15  1  0  0  0  0
 13 16  1  0  0  0  0
 16 17  1  0  0  0  0
 16 18  1  0  0  0  0
 16 19  1  0  0  0  0
 19 20  1  0  0  0  0
 19 21  1  0  0  0  0
 19 22  1  0  0  0  0
 22 23  1  0  0  0  0
 22 24  1  0  0  0  0
 22 25  1  0  0  0  0
M  END
> <VConfSearch Rank>
210

> <Conf_Id>
142

> <Delta U+W>
0.593

> <U+W>
-51.037

> <U>
8.903

> <W>
-59.940

> <W(PB)>
-62.418

> <W(SA)>
2.478

> <Valence>
8.305

> <Coulomb>
-0.223

> <VdW>
0.821

> <VdW6>
-9.236

> <VdW12>
10.057

> <Bond>
0.173

> <Angle>
2.663

> <Pdih>
5.469

> <Idih>
0.001

> <Tether>
0.000

$$$$
VeraChem MOL file


 25 24  0  0  0  0  0  0  0  0999 V2000     
   23.5623   18.1776   22.7782 C   0  0  0  0  0  0  0  0  0  0  0  0
   24.1677   17.2060   22.3695 O   0  5  0  0  0  0  0  0  0  0  0  0
   23.8193   19.3181   22.4460 O   0  0  0  0  0  0  0  0  0  0  0  0
   22.4369   17.9522   23.7839 C   0  0  0  0  0  0  0  0  0  0  0  0
   22.1887   18.9106   24.2543 H   0  0  0  0  0  0  0  0  0  0  0  0
   22.8333   17.3097   24.5786 H   0  0  0  0  0  0  0  0  0  0  0  0
   21.1666   17.2959   23.1774 C   0  0  0  0  0  0  0  0  0  0  0  0
   21.4375   16.3093   22.7768 H   0  0  0  0  0  0  0  0  0  0  0  0
   20.4403   17.1058   23.9781 H   0  0  0  0  0  0  0  0  0  0  0  0
   20.4955   18.1213   22.0491 C   0  0  0  0  0  0  0  0  0  0  0  0
   19.6166   17.5720   21.6854 H   0  0  0  0  0  0  0  0  0  0  0  0
   21.1844   18.1866   21.1957 H   0  0  0  0  0  0  0  0  0  0  0  0
   20.0623   19.5550   22.4459 C   0  0  0  0  0  0  0  0  0  0  0  0
   20.9457   20.1535   22.7057 H   0  0  0  0  0  0  0  0  0  0  0  0
   19.6185   20.0375   21.5646 H   0  0  0  0  0  0  0  0  0  0  0  0
   19.0422   19.5935   23.6071 C   0  0  0  0  0  0  0  0  0  0  0  0
   19.4967   19.1801   24.5169 H   0  0  0  0  0  0  0  0  0  0  0  0
   18.1808   18.9580   23.3604 H   0  0  0  0  0  0  0  0  0  0  0  0
   18.5582   21.0305   23.8936 C   0  0  0  0  0  0  0  0  0  0  0  0
   19.4188   21.6686   24.1382 H   0  0  0  0  0  0  0  0  0  0  0  0
   18.0940   21.4524   22.9915 H   0  0  0  0  0  0  0  0  0  0  0  0
   17.5456   21.0680   25.0559 C   0  0  0  0  0  0  0  0  0  0  0  0
   17.9942   20.6811   25.9803 H   0  0  0  0  0  0  0  0  0  0  0  0
   17.2123   22.0966   25.2457 H   0  0  0  0  0  0  0  0  0  0  0  0
   16.6600   20.4618   24.8248 H   0  0  0  0  0  0  0  0  0  0  0  0
  1  2  1  0  0  0  0
  1  3  2  0  0  0  0
  1  4  1  0  0  0  0
  4  5  1  0  0  0  0
  4  6  1  0  0  0  0
  4  7  1  0  0  0  0
  7  8  1  0  0  0  0
  7  9  1  0  0  0  0
  7 10  1  0  0  0  0
 10 11  1  0  0  0  0
 10 12  1  0  0  0  0
 10 13  1  0  0  0  0
 13 14  1  0  0  0  0
 13 15  1  0  0  0  0
 13 16  1  0  0  0  0
 16 17  1  0  0  0  0
 16 18  1  0  0  0  0
 16 19  1  0  0  0  0
 19 20  1  0  0  0  0
 19 21  1  0  0  0  0
 19 22  1  0  0  0  0
 22 23  1  0  0  0  0
 22 24  1  0  0  0  0
 22 25  1  0  0  0  0
M  END
> <VConfSearch Rank>
211

> <Conf_Id>
135

> <Delta U+W>
1.314

> <U+W>
-50.316

> <U>
9.773

> <W>
-60.088

> <W(PB)>
-62.535

> <W(SA)>
2.447

> <Valence>
8.741

> <Coulomb>
0.479

> <VdW>
0.552

> <VdW6>
-10.627

> <VdW12>
11.179

> <Bond>
0.227

> <Angle>
3.155

> <Pdih>
5.358

> <Idih>
0.001

> <Tether>
0.000

$$$$
VeraChem MOL file


 25 24  0  0  0  0  0  0  0  0999 V2000     
   18.0762   20.3334   19.7366 C   0  0  0  0  0  0  0  0  0  0  0  0
   18.2246   21.5043   19.4474 O   0  5  0  0  0  0  0  0  0  0  0  0
   17.7196   19.4843   18.9436 O   0  0  0  0  0  0  0  0  0  0  0  0
   18.3757   19.9014   21.1676 C   0  0  0  0  0  0  0  0  0  0  0  0
   17.7136   19.0631   21.4150 H   0  0  0  0  0  0  0  0  0  0  0  0
   18.1085   20.7333   21.8284 H   0  0  0  0  0  0  0  0  0  0  0  0
   19.8576   19.4911   21.3717 C   0  0  0  0  0  0  0  0  0  0  0  0
   20.1142   18.7249   20.6270 H   0  0  0  0  0  0  0  0  0  0  0  0
   20.5097   20.3516   21.1677 H   0  0  0  0  0  0  0  0  0  0  0  0
   20.1581   18.9284   22.7816 C   0  0  0  0  0  0  0  0  0  0  0  0
   21.1793   18.5272   22.7731 H   0  0  0  0  0  0  0  0  0  0  0  0
   19.4879   18.0842   22.9934 H   0  0  0  0  0  0  0  0  0  0  0  0
   20.0422   19.9860   23.9053 C   0  0  0  0  0  0  0  0  0  0  0  0
   20.7579   20.7978   23.7166 H   0  0  0  0  0  0  0  0  0  0  0  0
   19.0448   20.4420   23.8789 H   0  0  0  0  0  0  0  0  0  0  0  0
   20.2665   19.4239   25.3319 C   0  0  0  0  0  0  0  0  0  0  0  0
   19.4968   18.6761   25.5666 H   0  0  0  0  0  0  0  0  0  0  0  0
   20.1064   20.2483   26.0402 H   0  0  0  0  0  0  0  0  0  0  0  0
   21.6785   18.8388   25.5854 C   0  0  0  0  0  0  0  0  0  0  0  0
   22.4132   19.3134   24.9204 H   0  0  0  0  0  0  0  0  0  0  0  0
   21.9855   19.0923   26.6095 H   0  0  0  0  0  0  0  0  0  0  0  0
   21.7348   17.3019   25.4367 C   0  0  0  0  0  0  0  0  0  0  0  0
   21.4470   16.9784   24.4299 H   0  0  0  0  0  0  0  0  0  0  0  0
   22.7509   16.9343   25.6298 H   0  0  0  0  0  0  0  0  0  0  0  0
   21.0603   16.8159   26.1536 H   0  0  0  0  0  0  0  0  0  0  0  0
  1  2  1  0  0  0  0
  1  3  2  0  0  0  0
  1  4  1  0  0  0  0
  4  5  1  0  0  0  0
  4  6  1  0  0  0  0
  4  7  1  0  0  0  0
  7  8  1  0  0  0  0
  7  9  1  0  0  0  0
  7 10  1  0  0  0  0
 10 11  1  0  0  0  0
 10 12  1  0  0  0  0
 10 13  1  0  0  0  0
 13 14  1  0  0  0  0
 13 15  1  0  0  0  0
 13 16  1  0  0  0  0
 16 17  1  0  0  0  0
 16 18  1  0  0  0  0
 16 19  1  0  0  0  0
 19 20  1  0  0  0  0
 19 21  1  0  0  0  0
 19 22  1  0  0  0  0
 22 23  1  0  0  0  0
 22 24  1  0  0  0  0
 22 25  1  0  0  0  0
M  END
> <VConfSearch Rank>
212

> <Conf_Id>
19

> <Delta U+W>
3.222

> <U+W>
-48.407

> <U>
10.617

> <W>
-59.025

> <W(PB)>
-61.462

> <W(SA)>
2.437

> <Valence>
11.188

> <Coulomb>
-1.778

> <VdW>
1.208

> <VdW6>
-9.786

> <VdW12>
10.993

> <Bond>
0.241

> <Angle>
3.294

> <Pdih>
7.653

> <Idih>
0.001

> <Tether>
0.000

$$$$
VeraChem MOL file


 25 24  0  0  0  0  0  0  0  0999 V2000     
   19.6995   15.5355   21.2111 C   0  0  0  0  0  0  0  0  0  0  0  0
   18.5661   15.0970   21.2140 O   0  5  0  0  0  0  0  0  0  0  0  0
   20.6832   14.8568   20.9908 O   0  0  0  0  0  0  0  0  0  0  0  0
   19.9004   17.0139   21.5242 C   0  0  0  0  0  0  0  0  0  0  0  0
   19.0334   17.5571   21.1324 H   0  0  0  0  0  0  0  0  0  0  0  0
   20.7804   17.3619   20.9702 H   0  0  0  0  0  0  0  0  0  0  0  0
   20.0807   17.2860   23.0405 C   0  0  0  0  0  0  0  0  0  0  0  0
   19.1746   16.9782   23.5805 H   0  0  0  0  0  0  0  0  0  0  0  0
   20.8952   16.6510   23.4156 H   0  0  0  0  0  0  0  0  0  0  0  0
   20.4127   18.7608   23.3721 C   0  0  0  0  0  0  0  0  0  0  0  0
   21.3041   19.0740   22.8119 H   0  0  0  0  0  0  0  0  0  0  0  0
   20.6725   18.8159   24.4367 H   0  0  0  0  0  0  0  0  0  0  0  0
   19.2443   19.7348   23.0880 C   0  0  0  0  0  0  0  0  0  0  0  0
   18.9320   19.6382   22.0408 H   0  0  0  0  0  0  0  0  0  0  0  0
   18.3758   19.4493   23.6968 H   0  0  0  0  0  0  0  0  0  0  0  0
   19.5838   21.2251   23.3436 C   0  0  0  0  0  0  0  0  0  0  0  0
   18.7039   21.8176   23.0577 H   0  0  0  0  0  0  0  0  0  0  0  0
   20.3908   21.5475   22.6714 H   0  0  0  0  0  0  0  0  0  0  0  0
   19.9390   21.5683   24.8120 C   0  0  0  0  0  0  0  0  0  0  0  0
   19.5175   22.5536   25.0547 H   0  0  0  0  0  0  0  0  0  0  0  0
   19.4605   20.8549   25.4970 H   0  0  0  0  0  0  0  0  0  0  0  0
   21.4610   21.6230   25.0719 C   0  0  0  0  0  0  0  0  0  0  0  0
   21.9361   22.3901   24.4467 H   0  0  0  0  0  0  0  0  0  0  0  0
   21.6627   21.8734   26.1214 H   0  0  0  0  0  0  0  0  0  0  0  0
   21.9466   20.6642   24.8570 H   0  0  0  0  0  0  0  0  0  0  0  0
  1  2  1  0  0  0  0
  1  3  2  0  0  0  0
  1  4  1  0  0  0  0
  4  5  1  0  0  0  0
  4  6  1  0  0  0  0
  4  7  1  0  0  0  0
  7  8  1  0  0  0  0
  7  9  1  0  0  0  0
  7 10  1  0  0  0  0
 10 11  1  0  0  0  0
 10 12  1  0  0  0  0
 10 13  1  0  0  0  0
 13 14  1  0  0  0  0
 13 15  1  0  0  0  0
 13 16  1  0  0  0  0
 16 17  1  0  0  0  0
 16 18  1  0  0  0  0
 16 19  1  0  0  0  0
 19 20  1  0  0  0  0
 19 21  1  0  0  0  0
 19 22  1  0  0  0  0
 22 23  1  0  0  0  0
 22 24  1  0  0  0  0
 22 25  1  0  0  0  0
M  END
> <VConfSearch Rank>
213

> <Conf_Id>
20

> <Delta U+W>
3.224

> <U+W>
-48.406

> <U>
10.617

> <W>
-59.023

> <W(PB)>
-61.467

> <W(SA)>
2.444

> <Valence>
11.188

> <Coulomb>
-1.778

> <VdW>
1.208

> <VdW6>
-9.786

> <VdW12>
10.993

> <Bond>
0.241

> <Angle>
3.294

> <Pdih>
7.653

> <Idih>
0.001

> <Tether>
0.000

$$$$
VeraChem MOL file


 25 24  0  0  0  0  0  0  0  0999 V2000     
   19.9740   18.3782   26.6417 C   0  0  0  0  0  0  0  0  0  0  0  0
   19.7543   17.1827   26.6535 O   0  5  0  0  0  0  0  0  0  0  0  0
   19.1423   19.2158   26.9314 O   0  0  0  0  0  0  0  0  0  0  0  0
   21.3877   18.8523   26.3097 C   0  0  0  0  0  0  0  0  0  0  0  0
   22.0386   18.4549   27.0970 H   0  0  0  0  0  0  0  0  0  0  0  0
   21.4259   19.9452   26.3928 H   0  0  0  0  0  0  0  0  0  0  0  0
   21.9319   18.3979   24.9261 C   0  0  0  0  0  0  0  0  0  0  0  0
   23.0277   18.4685   24.9530 H   0  0  0  0  0  0  0  0  0  0  0  0
   21.7018   17.3357   24.7635 H   0  0  0  0  0  0  0  0  0  0  0  0
   21.4345   19.2389   23.7243 C   0  0  0  0  0  0  0  0  0  0  0  0
   21.9963   18.9272   22.8331 H   0  0  0  0  0  0  0  0  0  0  0  0
   21.6781   20.2976   23.8878 H   0  0  0  0  0  0  0  0  0  0  0  0
   19.9234   19.0925   23.4349 C   0  0  0  0  0  0  0  0  0  0  0  0
   19.6608   18.0273   23.3750 H   0  0  0  0  0  0  0  0  0  0  0  0
   19.3425   19.5210   24.2612 H   0  0  0  0  0  0  0  0  0  0  0  0
   19.5221   19.7991   22.1218 C   0  0  0  0  0  0  0  0  0  0  0  0
   20.0919   19.3722   21.2851 H   0  0  0  0  0  0  0  0  0  0  0  0
   19.7899   20.8630   22.1817 H   0  0  0  0  0  0  0  0  0  0  0  0
   18.0114   19.6632   21.8379 C   0  0  0  0  0  0  0  0  0  0  0  0
   17.7405   18.6001   21.7766 H   0  0  0  0  0  0  0  0  0  0  0  0
   17.4381   20.0909   22.6721 H   0  0  0  0  0  0  0  0  0  0  0  0
   17.6136   20.3702   20.5266 C   0  0  0  0  0  0  0  0  0  0  0  0
   18.1496   19.9403   19.6703 H   0  0  0  0  0  0  0  0  0  0  0  0
   16.5370   20.2635   20.3407 H   0  0  0  0  0  0  0  0  0  0  0  0
   17.8449   21.4425   20.5727 H   0  0  0  0  0  0  0  0  0  0  0  0
  1  2  1  0  0  0  0
  1  3  2  0  0  0  0
  1  4  1  0  0  0  0
  4  5  1  0  0  0  0
  4  6  1  0  0  0  0
  4  7  1  0  0  0  0
  7  8  1  0  0  0  0
  7  9  1  0  0  0  0
  7 10  1  0  0  0  0
 10 11  1  0  0  0  0
 10 12  1  0  0  0  0
 10 13  1  0  0  0  0
 13 14  1  0  0  0  0
 13 15  1  0  0  0  0
 13 16  1  0  0  0  0
 16 17  1  0  0  0  0
 16 18  1  0  0  0  0
 16 19  1  0  0  0  0
 19 20  1  0  0  0  0
 19 21  1  0  0  0  0
 19 22  1  0  0  0  0
 22 23  1  0  0  0  0
 22 24  1  0  0  0  0
 22 25  1  0  0  0  0
M  END
> <VConfSearch Rank>
214

> <Conf_Id>
24

> <Delta U+W>
1.784

> <U+W>
-49.846

> <U>
10.904

> <W>
-60.749

> <W(PB)>
-63.220

> <W(SA)>
2.471

> <Valence>
9.445

> <Coulomb>
0.780

> <VdW>
0.679

> <VdW6>
-10.008

> <VdW12>
10.687

> <Bond>
0.201

> <Angle>
3.198

> <Pdih>
6.039

> <Idih>
0.006

> <Tether>
0.000

$$$$
VeraChem MOL file


 25 24  0  0  0  0  0  0  0  0999 V2000     
   21.3499   16.4508   22.0437 C   0  0  0  0  0  0  0  0  0  0  0  0
   21.0759   16.6015   20.8690 O   0  5  0  0  0  0  0  0  0  0  0  0
   22.4529   16.6638   22.5077 O   0  0  0  0  0  0  0  0  0  0  0  0
   20.2711   15.9013   22.9751 C   0  0  0  0  0  0  0  0  0  0  0  0
   20.6952   15.7793   23.9791 H   0  0  0  0  0  0  0  0  0  0  0  0
   20.0330   14.8952   22.6109 H   0  0  0  0  0  0  0  0  0  0  0  0
   18.9626   16.7382   23.0412 C   0  0  0  0  0  0  0  0  0  0  0  0
   18.6558   17.0344   22.0283 H   0  0  0  0  0  0  0  0  0  0  0  0
   18.1629   16.0879   23.4206 H   0  0  0  0  0  0  0  0  0  0  0  0
   19.0334   17.9833   23.9598 C   0  0  0  0  0  0  0  0  0  0  0  0
   19.3287   17.6788   24.9732 H   0  0  0  0  0  0  0  0  0  0  0  0
   18.0216   18.4024   24.0462 H   0  0  0  0  0  0  0  0  0  0  0  0
   19.9868   19.0883   23.4512 C   0  0  0  0  0  0  0  0  0  0  0  0
   21.0234   18.7299   23.4829 H   0  0  0  0  0  0  0  0  0  0  0  0
   19.7577   19.3189   22.4017 H   0  0  0  0  0  0  0  0  0  0  0  0
   19.8756   20.3737   24.2998 C   0  0  0  0  0  0  0  0  0  0  0  0
   20.1002   20.1403   25.3496 H   0  0  0  0  0  0  0  0  0  0  0  0
   18.8428   20.7470   24.2687 H   0  0  0  0  0  0  0  0  0  0  0  0
   20.8354   21.4738   23.7998 C   0  0  0  0  0  0  0  0  0  0  0  0
   21.8700   21.1045   23.8312 H   0  0  0  0  0  0  0  0  0  0  0  0
   20.6129   21.7101   22.7500 H   0  0  0  0  0  0  0  0  0  0  0  0
   20.7225   22.7558   24.6491 C   0  0  0  0  0  0  0  0  0  0  0  0
   20.9709   22.5542   25.6994 H   0  0  0  0  0  0  0  0  0  0  0  0
   21.4115   23.5265   24.2798 H   0  0  0  0  0  0  0  0  0  0  0  0
   19.7043   23.1645   24.6099 H   0  0  0  0  0  0  0  0  0  0  0  0
  1  2  1  0  0  0  0
  1  3  2  0  0  0  0
  1  4  1  0  0  0  0
  4  5  1  0  0  0  0
  4  6  1  0  0  0  0
  4  7  1  0  0  0  0
  7  8  1  0  0  0  0
  7  9  1  0  0  0  0
  7 10  1  0  0  0  0
 10 11  1  0  0  0  0
 10 12  1  0  0  0  0
 10 13  1  0  0  0  0
 13 14  1  0  0  0  0
 13 15  1  0  0  0  0
 13 16  1  0  0  0  0
 16 17  1  0  0  0  0
 16 18  1  0  0  0  0
 16 19  1  0  0  0  0
 19 20  1  0  0  0  0
 19 21  1  0  0  0  0
 19 22  1  0  0  0  0
 22 23  1  0  0  0  0
 22 24  1  0  0  0  0
 22 25  1  0  0  0  0
M  END
> <VConfSearch Rank>
215

> <Conf_Id>
9

> <Delta U+W>
1.764

> <U+W>
-49.865

> <U>
10.902

> <W>
-60.768

> <W(PB)>
-63.223

> <W(SA)>
2.456

> <Valence>
9.445

> <Coulomb>
0.778

> <VdW>
0.679

> <VdW6>
-10.007

> <VdW12>
10.687

> <Bond>
0.201

> <Angle>
3.198

> <Pdih>
6.040

> <Idih>
0.006

> <Tether>
0.000

$$$$
VeraChem MOL file


 25 24  0  0  0  0  0  0  0  0999 V2000     
   16.4667   18.4214   24.2457 C   0  0  0  0  0  0  0  0  0  0  0  0
   16.5172   17.3496   23.6754 O   0  5  0  0  0  0  0  0  0  0  0  0
   15.5867   18.7283   25.0257 O   0  0  0  0  0  0  0  0  0  0  0  0
   17.5798   19.4296   23.9842 C   0  0  0  0  0  0  0  0  0  0  0  0
   17.1478   20.4350   24.0518 H   0  0  0  0  0  0  0  0  0  0  0  0
   17.9164   19.2959   22.9515 H   0  0  0  0  0  0  0  0  0  0  0  0
   18.7611   19.2903   24.9806 C   0  0  0  0  0  0  0  0  0  0  0  0
   18.3663   19.4405   25.9951 H   0  0  0  0  0  0  0  0  0  0  0  0
   19.1581   18.2660   24.9560 H   0  0  0  0  0  0  0  0  0  0  0  0
   19.8997   20.3130   24.7361 C   0  0  0  0  0  0  0  0  0  0  0  0
   20.3172   20.5985   25.7114 H   0  0  0  0  0  0  0  0  0  0  0  0
   19.4953   21.2379   24.3027 H   0  0  0  0  0  0  0  0  0  0  0  0
   21.0685   19.7837   23.8674 C   0  0  0  0  0  0  0  0  0  0  0  0
   21.8488   20.5560   23.8316 H   0  0  0  0  0  0  0  0  0  0  0  0
   21.5176   18.9133   24.3634 H   0  0  0  0  0  0  0  0  0  0  0  0
   20.6664   19.4096   22.4212 C   0  0  0  0  0  0  0  0  0  0  0  0
   20.0823   20.2319   21.9863 H   0  0  0  0  0  0  0  0  0  0  0  0
   20.0138   18.5269   22.4340 H   0  0  0  0  0  0  0  0  0  0  0  0
   21.8782   19.1263   21.5032 C   0  0  0  0  0  0  0  0  0  0  0  0
   21.5151   18.9670   20.4785 H   0  0  0  0  0  0  0  0  0  0  0  0
   22.5311   20.0093   21.4671 H   0  0  0  0  0  0  0  0  0  0  0  0
   22.6975   17.8922   21.9391 C   0  0  0  0  0  0  0  0  0  0  0  0
   22.0596   17.0013   22.0067 H   0  0  0  0  0  0  0  0  0  0  0  0
   23.4938   17.6837   21.2130 H   0  0  0  0  0  0  0  0  0  0  0  0
   23.1713   18.0514   22.9159 H   0  0  0  0  0  0  0  0  0  0  0  0
  1  2  1  0  0  0  0
  1  3  2  0  0  0  0
  1  4  1  0  0  0  0
  4  5  1  0  0  0  0
  4  6  1  0  0  0  0
  4  7  1  0  0  0  0
  7  8  1  0  0  0  0
  7  9  1  0  0  0  0
  7 10  1  0  0  0  0
 10 11  1  0  0  0  0
 10 12  1  0  0  0  0
 10 13  1  0  0  0  0
 13 14  1  0  0  0  0
 13 15  1  0  0  0  0
 13 16  1  0  0  0  0
 16 17  1  0  0  0  0
 16 18  1  0  0  0  0
 16 19  1  0  0  0  0
 19 20  1  0  0  0  0
 19 21  1  0  0  0  0
 19 22  1  0  0  0  0
 22 23  1  0  0  0  0
 22 24  1  0  0  0  0
 22 25  1  0  0  0  0
M  END
> <VConfSearch Rank>
216

> <Conf_Id>
89

> <Delta U+W>
2.903

> <U+W>
-48.726

> <U>
10.996

> <W>
-59.723

> <W(PB)>
-62.151

> <W(SA)>
2.428

> <Valence>
10.985

> <Coulomb>
-0.995

> <VdW>
1.006

> <VdW6>
-10.062

> <VdW12>
11.069

> <Bond>
0.238

> <Angle>
3.202

> <Pdih>
7.544

> <Idih>
0.001

> <Tether>
0.000

$$$$
VeraChem MOL file


 25 24  0  0  0  0  0  0  0  0999 V2000     
   20.4942   17.3536   26.4889 C   0  0  0  0  0  0  0  0  0  0  0  0
   20.7978   18.2985   27.1905 O   0  5  0  0  0  0  0  0  0  0  0  0
   19.4771   16.7054   26.6406 O   0  0  0  0  0  0  0  0  0  0  0  0
   21.4752   16.9200   25.4013 C   0  0  0  0  0  0  0  0  0  0  0  0
   21.8186   15.9170   25.6795 H   0  0  0  0  0  0  0  0  0  0  0  0
   22.3557   17.5731   25.4338 H   0  0  0  0  0  0  0  0  0  0  0  0
   20.8915   16.8729   23.9609 C   0  0  0  0  0  0  0  0  0  0  0  0
   21.5266   16.2071   23.3610 H   0  0  0  0  0  0  0  0  0  0  0  0
   19.8958   16.4080   23.9744 H   0  0  0  0  0  0  0  0  0  0  0  0
   20.8293   18.2410   23.2369 C   0  0  0  0  0  0  0  0  0  0  0  0
   20.5667   18.0505   22.1890 H   0  0  0  0  0  0  0  0  0  0  0  0
   21.8275   18.6994   23.2270 H   0  0  0  0  0  0  0  0  0  0  0  0
   19.8084   19.2314   23.8481 C   0  0  0  0  0  0  0  0  0  0  0  0
   18.8208   18.7553   23.9165 H   0  0  0  0  0  0  0  0  0  0  0  0
   20.1098   19.4731   24.8746 H   0  0  0  0  0  0  0  0  0  0  0  0
   19.6926   20.5614   23.0652 C   0  0  0  0  0  0  0  0  0  0  0  0
   20.6861   21.0202   22.9694 H   0  0  0  0  0  0  0  0  0  0  0  0
   19.0850   21.2591   23.6577 H   0  0  0  0  0  0  0  0  0  0  0  0
   19.0507   20.4055   21.6677 C   0  0  0  0  0  0  0  0  0  0  0  0
   19.6828   19.7776   21.0267 H   0  0  0  0  0  0  0  0  0  0  0  0
   18.0815   19.8963   21.7600 H   0  0  0  0  0  0  0  0  0  0  0  0
   18.8473   21.7726   20.9837 C   0  0  0  0  0  0  0  0  0  0  0  0
   19.8053   22.2929   20.8542 H   0  0  0  0  0  0  0  0  0  0  0  0
   18.3939   21.6453   19.9921 H   0  0  0  0  0  0  0  0  0  0  0  0
   18.1854   22.4155   21.5786 H   0  0  0  0  0  0  0  0  0  0  0  0
  1  2  1  0  0  0  0
  1  3  2  0  0  0  0
  1  4  1  0  0  0  0
  4  5  1  0  0  0  0
  4  6  1  0  0  0  0
  4  7  1  0  0  0  0
  7  8  1  0  0  0  0
  7  9  1  0  0  0  0
  7 10  1  0  0  0  0
 10 11  1  0  0  0  0
 10 12  1  0  0  0  0
 10 13  1  0  0  0  0
 13 14  1  0  0  0  0
 13 15  1  0  0  0  0
 13 16  1  0  0  0  0
 16 17  1  0  0  0  0
 16 18  1  0  0  0  0
 16 19  1  0  0  0  0
 19 20  1  0  0  0  0
 19 21  1  0  0  0  0
 19 22  1  0  0  0  0
 22 23  1  0  0  0  0
 22 24  1  0  0  0  0
 22 25  1  0  0  0  0
M  END
> <VConfSearch Rank>
217

> <Conf_Id>
114

> <Delta U+W>
2.758

> <U+W>
-48.871

> <U>
11.422

> <W>
-60.293

> <W(PB)>
-62.719

> <W(SA)>
2.425

> <Valence>
10.135

> <Coulomb>
0.369

> <VdW>
0.918

> <VdW6>
-10.482

> <VdW12>
11.400

> <Bond>
0.245

> <Angle>
3.539

> <Pdih>
6.346

> <Idih>
0.006

> <Tether>
0.000

$$$$
VeraChem MOL file


 25 24  0  0  0  0  0  0  0  0999 V2000     
   21.6060   21.2708   26.2030 C   0  0  0  0  0  0  0  0  0  0  0  0
   22.7870   21.4096   25.9517 O   0  5  0  0  0  0  0  0  0  0  0  0
   20.8175   22.1939   26.2608 O   0  0  0  0  0  0  0  0  0  0  0  0
   21.0866   19.8632   26.4818 C   0  0  0  0  0  0  0  0  0  0  0  0
   20.4461   19.9195   27.3698 H   0  0  0  0  0  0  0  0  0  0  0  0
   21.9368   19.2220   26.7439 H   0  0  0  0  0  0  0  0  0  0  0  0
   20.2886   19.2427   25.3058 C   0  0  0  0  0  0  0  0  0  0  0  0
   19.8458   18.2936   25.6367 H   0  0  0  0  0  0  0  0  0  0  0  0
   19.4553   19.9106   25.0511 H   0  0  0  0  0  0  0  0  0  0  0  0
   21.1719   18.9879   24.0608 C   0  0  0  0  0  0  0  0  0  0  0  0
   22.0476   18.3965   24.3612 H   0  0  0  0  0  0  0  0  0  0  0  0
   21.5604   19.9412   23.6766 H   0  0  0  0  0  0  0  0  0  0  0  0
   20.4388   18.2348   22.9250 C   0  0  0  0  0  0  0  0  0  0  0  0
   21.1795   17.9745   22.1582 H   0  0  0  0  0  0  0  0  0  0  0  0
   20.0415   17.2855   23.3091 H   0  0  0  0  0  0  0  0  0  0  0  0
   19.2966   19.0563   22.2777 C   0  0  0  0  0  0  0  0  0  0  0  0
   19.6939   20.0070   21.8969 H   0  0  0  0  0  0  0  0  0  0  0  0
   18.5529   19.3135   23.0424 H   0  0  0  0  0  0  0  0  0  0  0  0
   18.5696   18.3055   21.1374 C   0  0  0  0  0  0  0  0  0  0  0  0
   18.1809   17.3485   21.5119 H   0  0  0  0  0  0  0  0  0  0  0  0
   17.6955   18.8958   20.8297 H   0  0  0  0  0  0  0  0  0  0  0  0
   19.4594   18.0576   19.8998 C   0  0  0  0  0  0  0  0  0  0  0  0
   18.8711   17.6108   19.0879 H   0  0  0  0  0  0  0  0  0  0  0  0
   19.8873   18.9979   19.5287 H   0  0  0  0  0  0  0  0  0  0  0  0
   20.2834   17.3703   20.1284 H   0  0  0  0  0  0  0  0  0  0  0  0
  1  2  1  0  0  0  0
  1  3  2  0  0  0  0
  1  4  1  0  0  0  0
  4  5  1  0  0  0  0
  4  6  1  0  0  0  0
  4  7  1  0  0  0  0
  7  8  1  0  0  0  0
  7  9  1  0  0  0  0
  7 10  1  0  0  0  0
 10 11  1  0  0  0  0
 10 12  1  0  0  0  0
 10 13  1  0  0  0  0
 13 14  1  0  0  0  0
 13 15  1  0  0  0  0
 13 16  1  0  0  0  0
 16 17  1  0  0  0  0
 16 18  1  0  0  0  0
 16 19  1  0  0  0  0
 19 20  1  0  0  0  0
 19 21  1  0  0  0  0
 19 22  1  0  0  0  0
 22 23  1  0  0  0  0
 22 24  1  0  0  0  0
 22 25  1  0  0  0  0
M  END
> <VConfSearch Rank>
218

> <Conf_Id>
87

> <Delta U+W>
1.453

> <U+W>
-50.176

> <U>
9.763

> <W>
-59.940

> <W(PB)>
-62.392

> <W(SA)>
2.452

> <Valence>
8.883

> <Coulomb>
-0.122

> <VdW>
1.003

> <VdW6>
-9.782

> <VdW12>
10.785

> <Bond>
0.212

> <Angle>
2.940

> <Pdih>
5.730

> <Idih>
0.001

> <Tether>
0.000

$$$$
VeraChem MOL file


 25 24  0  0  0  0  0  0  0  0999 V2000     
   19.2492   16.5382   26.2460 C   0  0  0  0  0  0  0  0  0  0  0  0
   18.7423   15.6182   25.6348 O   0  5  0  0  0  0  0  0  0  0  0  0
   19.9070   16.3932   27.2574 O   0  0  0  0  0  0  0  0  0  0  0  0
   19.0650   17.9510   25.7036 C   0  0  0  0  0  0  0  0  0  0  0  0
   19.0375   18.6417   26.5548 H   0  0  0  0  0  0  0  0  0  0  0  0
   18.0861   18.0024   25.2120 H   0  0  0  0  0  0  0  0  0  0  0  0
   20.1815   18.3654   24.7138 C   0  0  0  0  0  0  0  0  0  0  0  0
   21.1560   18.3009   25.2170 H   0  0  0  0  0  0  0  0  0  0  0  0
   20.2023   17.6489   23.8819 H   0  0  0  0  0  0  0  0  0  0  0  0
   19.9668   19.7983   24.1740 C   0  0  0  0  0  0  0  0  0  0  0  0
   19.8791   20.4903   25.0225 H   0  0  0  0  0  0  0  0  0  0  0  0
   19.0113   19.8536   23.6361 H   0  0  0  0  0  0  0  0  0  0  0  0
   21.1161   20.2912   23.2594 C   0  0  0  0  0  0  0  0  0  0  0  0
   20.9169   21.3312   22.9692 H   0  0  0  0  0  0  0  0  0  0  0  0
   22.0460   20.3190   23.8432 H   0  0  0  0  0  0  0  0  0  0  0  0
   21.3583   19.4421   21.9834 C   0  0  0  0  0  0  0  0  0  0  0  0
   21.7177   18.4459   22.2726 H   0  0  0  0  0  0  0  0  0  0  0  0
   22.1774   19.8976   21.4106 H   0  0  0  0  0  0  0  0  0  0  0  0
   20.1295   19.2822   21.0546 C   0  0  0  0  0  0  0  0  0  0  0  0
   20.4130   18.6459   20.2051 H   0  0  0  0  0  0  0  0  0  0  0  0
   19.3263   18.7479   21.5793 H   0  0  0  0  0  0  0  0  0  0  0  0
   19.5951   20.6257   20.5129 C   0  0  0  0  0  0  0  0  0  0  0  0
   20.3872   21.1845   19.9980 H   0  0  0  0  0  0  0  0  0  0  0  0
   18.7807   20.4549   19.7971 H   0  0  0  0  0  0  0  0  0  0  0  0
   19.2009   21.2531   21.3222 H   0  0  0  0  0  0  0  0  0  0  0  0
  1  2  1  0  0  0  0
  1  3  2  0  0  0  0
  1  4  1  0  0  0  0
  4  5  1  0  0  0  0
  4  6  1  0  0  0  0
  4  7  1  0  0  0  0
  7  8  1  0  0  0  0
  7  9  1  0  0  0  0
  7 10  1  0  0  0  0
 10 11  1  0  0  0  0
 10 12  1  0  0  0  0
 10 13  1  0  0  0  0
 13 14  1  0  0  0  0
 13 15  1  0  0  0  0
 13 16  1  0  0  0  0
 16 17  1  0  0  0  0
 16 18  1  0  0  0  0
 16 19  1  0  0  0  0
 19 20  1  0  0  0  0
 19 21  1  0  0  0  0
 19 22  1  0  0  0  0
 22 23  1  0  0  0  0
 22 24  1  0  0  0  0
 22 25  1  0  0  0  0
M  END
> <VConfSearch Rank>
219

> <Conf_Id>
29

> <Delta U+W>
0.850

> <U+W>
-50.780

> <U>
8.646

> <W>
-59.426

> <W(PB)>
-61.868

> <W(SA)>
2.442

> <Valence>
8.924

> <Coulomb>
-1.171

> <VdW>
0.894

> <VdW6>
-10.223

> <VdW12>
11.117

> <Bond>
0.231

> <Angle>
3.232

> <Pdih>
5.461

> <Idih>
0.001

> <Tether>
0.000

$$$$
VeraChem MOL file


 25 24  0  0  0  0  0  0  0  0999 V2000     
   19.7861   15.2550   22.8180 C   0  0  0  0  0  0  0  0  0  0  0  0
   19.5678   15.1708   21.6256 O   0  5  0  0  0  0  0  0  0  0  0  0
   19.3666   14.4612   23.6370 O   0  0  0  0  0  0  0  0  0  0  0  0
   20.6166   16.4322   23.3165 C   0  0  0  0  0  0  0  0  0  0  0  0
   21.3430   16.6912   22.5368 H   0  0  0  0  0  0  0  0  0  0  0  0
   21.1858   16.1006   24.1932 H   0  0  0  0  0  0  0  0  0  0  0  0
   19.7544   17.6678   23.6740 C   0  0  0  0  0  0  0  0  0  0  0  0
   19.1800   17.9684   22.7877 H   0  0  0  0  0  0  0  0  0  0  0  0
   19.0267   17.3915   24.4493 H   0  0  0  0  0  0  0  0  0  0  0  0
   20.6213   18.8484   24.1693 C   0  0  0  0  0  0  0  0  0  0  0  0
   21.3220   19.1517   23.3803 H   0  0  0  0  0  0  0  0  0  0  0  0
   21.2395   18.5092   25.0115 H   0  0  0  0  0  0  0  0  0  0  0  0
   19.7907   20.0705   24.6350 C   0  0  0  0  0  0  0  0  0  0  0  0
   19.1658   19.7700   25.4868 H   0  0  0  0  0  0  0  0  0  0  0  0
   20.4744   20.8363   25.0243 H   0  0  0  0  0  0  0  0  0  0  0  0
   18.8783   20.7037   23.5512 C   0  0  0  0  0  0  0  0  0  0  0  0
   18.3595   21.5661   23.9912 H   0  0  0  0  0  0  0  0  0  0  0  0
   18.0890   19.9909   23.2790 H   0  0  0  0  0  0  0  0  0  0  0  0
   19.6053   21.1633   22.2635 C   0  0  0  0  0  0  0  0  0  0  0  0
   20.0582   20.3007   21.7569 H   0  0  0  0  0  0  0  0  0  0  0  0
   18.8595   21.5681   21.5657 H   0  0  0  0  0  0  0  0  0  0  0  0
   20.6810   22.2405   22.5214 C   0  0  0  0  0  0  0  0  0  0  0  0
   21.5036   21.8445   23.1301 H   0  0  0  0  0  0  0  0  0  0  0  0
   21.1076   22.5925   21.5734 H   0  0  0  0  0  0  0  0  0  0  0  0
   20.2525   23.1065   23.0425 H   0  0  0  0  0  0  0  0  0  0  0  0
  1  2  1  0  0  0  0
  1  3  2  0  0  0  0
  1  4  1  0  0  0  0
  4  5  1  0  0  0  0
  4  6  1  0  0  0  0
  4  7  1  0  0  0  0
  7  8  1  0  0  0  0
  7  9  1  0  0  0  0
  7 10  1  0  0  0  0
 10 11  1  0  0  0  0
 10 12  1  0  0  0  0
 10 13  1  0  0  0  0
 13 14  1  0  0  0  0
 13 15  1  0  0  0  0
 13 16  1  0  0  0  0
 16 17  1  0  0  0  0
 16 18  1  0  0  0  0
 16 19  1  0  0  0  0
 19 20  1  0  0  0  0
 19 21  1  0  0  0  0
 19 22  1  0  0  0  0
 22 23  1  0  0  0  0
 22 24  1  0  0  0  0
 22 25  1  0  0  0  0
M  END
> <VConfSearch Rank>
220

> <Conf_Id>
30

> <Delta U+W>
0.843

> <U+W>
-50.787

> <U>
8.647

> <W>
-59.434

> <W(PB)>
-61.861

> <W(SA)>
2.428

> <Valence>
8.924

> <Coulomb>
-1.170

> <VdW>
0.894

> <VdW6>
-10.224

> <VdW12>
11.118

> <Bond>
0.231

> <Angle>
3.232

> <Pdih>
5.460

> <Idih>
0.000

> <Tether>
0.000

$$$$
VeraChem MOL file


 25 24  0  0  0  0  0  0  0  0999 V2000     
   21.4341   23.3999   24.6848 C   0  0  0  0  0  0  0  0  0  0  0  0
   21.9006   22.9553   25.7160 O   0  5  0  0  0  0  0  0  0  0  0  0
   21.4498   24.5819   24.4045 O   0  0  0  0  0  0  0  0  0  0  0  0
   20.7899   22.4511   23.6727 C   0  0  0  0  0  0  0  0  0  0  0  0
   21.3180   22.5811   22.7208 H   0  0  0  0  0  0  0  0  0  0  0  0
   19.7591   22.7903   23.5169 H   0  0  0  0  0  0  0  0  0  0  0  0
   20.7940   20.9521   24.0746 C   0  0  0  0  0  0  0  0  0  0  0  0
   21.8292   20.6207   24.2353 H   0  0  0  0  0  0  0  0  0  0  0  0
   20.2689   20.8301   25.0321 H   0  0  0  0  0  0  0  0  0  0  0  0
   20.1262   20.0674   22.9994 C   0  0  0  0  0  0  0  0  0  0  0  0
   20.6527   20.1911   22.0431 H   0  0  0  0  0  0  0  0  0  0  0  0
   19.0914   20.4006   22.8404 H   0  0  0  0  0  0  0  0  0  0  0  0
   20.1314   18.5768   23.4012 C   0  0  0  0  0  0  0  0  0  0  0  0
   21.1660   18.2433   23.5603 H   0  0  0  0  0  0  0  0  0  0  0  0
   19.6049   18.4527   24.3575 H   0  0  0  0  0  0  0  0  0  0  0  0
   19.4638   17.6916   22.3266 C   0  0  0  0  0  0  0  0  0  0  0  0
   19.9902   17.8154   21.3702 H   0  0  0  0  0  0  0  0  0  0  0  0
   18.4291   18.0248   22.1674 H   0  0  0  0  0  0  0  0  0  0  0  0
   19.4690   16.2016   22.7281 C   0  0  0  0  0  0  0  0  0  0  0  0
   20.5027   15.8641   22.8864 H   0  0  0  0  0  0  0  0  0  0  0  0
   18.9416   16.0735   23.6836 H   0  0  0  0  0  0  0  0  0  0  0  0
   18.8016   15.3210   21.6525 C   0  0  0  0  0  0  0  0  0  0  0  0
   19.3287   15.4055   20.6931 H   0  0  0  0  0  0  0  0  0  0  0  0
   18.8141   14.2656   21.9542 H   0  0  0  0  0  0  0  0  0  0  0  0
   17.7558   15.6165   21.4964 H   0  0  0  0  0  0  0  0  0  0  0  0
  1  2  1  0  0  0  0
  1  3  2  0  0  0  0
  1  4  1  0  0  0  0
  4  5  1  0  0  0  0
  4  6  1  0  0  0  0
  4  7  1  0  0  0  0
  7  8  1  0  0  0  0
  7  9  1  0  0  0  0
  7 10  1  0  0  0  0
 10 11  1  0  0  0  0
 10 12  1  0  0  0  0
 10 13  1  0  0  0  0
 13 14  1  0  0  0  0
 13 15  1  0  0  0  0
 13 16  1  0  0  0  0
 16 17  1  0  0  0  0
 16 18  1  0  0  0  0
 16 19  1  0  0  0  0
 19 20  1  0  0  0  0
 19 21  1  0  0  0  0
 19 22  1  0  0  0  0
 22 23  1  0  0  0  0
 22 24  1  0  0  0  0
 22 25  1  0  0  0  0
M  END
> <VConfSearch Rank>
221

> <Conf_Id>
0

> <Delta U+W>
0.000

> <U+W>
-51.629

> <U>
6.586

> <W>
-58.216

> <W(PB)>
-60.757

> <W(SA)>
2.541

> <Valence>
8.027

> <Coulomb>
-2.892

> <VdW>
1.451

> <VdW6>
-7.931

> <VdW12>
9.383

> <Bond>
0.149

> <Angle>
2.726

> <Pdih>
5.152

> <Idih>
0.000

> <Tether>
0.000

$$$$
VeraChem MOL file


 25 24  0  0  0  0  0  0  0  0999 V2000     
   16.1432   17.4996   24.9575 C   0  0  0  0  0  0  0  0  0  0  0  0
   16.0405   16.2892   24.9253 O   0  5  0  0  0  0  0  0  0  0  0  0
   15.6656   18.1930   25.8337 O   0  0  0  0  0  0  0  0  0  0  0  0
   16.9350   18.1843   23.8492 C   0  0  0  0  0  0  0  0  0  0  0  0
   16.4939   19.1734   23.6766 H   0  0  0  0  0  0  0  0  0  0  0  0
   16.8022   17.6047   22.9277 H   0  0  0  0  0  0  0  0  0  0  0  0
   18.4411   18.3212   24.1825 C   0  0  0  0  0  0  0  0  0  0  0  0
   18.5560   18.8924   25.1142 H   0  0  0  0  0  0  0  0  0  0  0  0
   18.8643   17.3237   24.3656 H   0  0  0  0  0  0  0  0  0  0  0  0
   19.2206   19.0169   23.0457 C   0  0  0  0  0  0  0  0  0  0  0  0
   18.7944   20.0133   22.8645 H   0  0  0  0  0  0  0  0  0  0  0  0
   19.1025   18.4443   22.1155 H   0  0  0  0  0  0  0  0  0  0  0  0
   20.7216   19.1518   23.3808 C   0  0  0  0  0  0  0  0  0  0  0  0
   20.8400   19.7245   24.3109 H   0  0  0  0  0  0  0  0  0  0  0  0
   21.1480   18.1556   23.5620 H   0  0  0  0  0  0  0  0  0  0  0  0
   21.5018   19.8474   22.2444 C   0  0  0  0  0  0  0  0  0  0  0  0
   21.0757   20.8437   22.0630 H   0  0  0  0  0  0  0  0  0  0  0  0
   21.3837   19.2749   21.3141 H   0  0  0  0  0  0  0  0  0  0  0  0
   23.0022   19.9822   22.5791 C   0  0  0  0  0  0  0  0  0  0  0  0
   23.1244   20.5560   23.5082 H   0  0  0  0  0  0  0  0  0  0  0  0
   23.4324   18.9872   22.7594 H   0  0  0  0  0  0  0  0  0  0  0  0
   23.7777   20.6773   21.4420 C   0  0  0  0  0  0  0  0  0  0  0  0
   24.8420   20.7647   21.6966 H   0  0  0  0  0  0  0  0  0  0  0  0
   23.6987   20.1073   20.5070 H   0  0  0  0  0  0  0  0  0  0  0  0
   23.3884   21.6878   21.2615 H   0  0  0  0  0  0  0  0  0  0  0  0
  1  2  1  0  0  0  0
  1  3  2  0  0  0  0
  1  4  1  0  0  0  0
  4  5  1  0  0  0  0
  4  6  1  0  0  0  0
  4  7  1  0  0  0  0
  7  8  1  0  0  0  0
  7  9  1  0  0  0  0
  7 10  1  0  0  0  0
 10 11  1  0  0  0  0
 10 12  1  0  0  0  0
 10 13  1  0  0  0  0
 13 14  1  0  0  0  0
 13 15  1  0  0  0  0
 13 16  1  0  0  0  0
 16 17  1  0  0  0  0
 16 18  1  0  0  0  0
 16 19  1  0  0  0  0
 19 20  1  0  0  0  0
 19 21  1  0  0  0  0
 19 22  1  0  0  0  0
 22 23  1  0  0  0  0
 22 24  1  0  0  0  0
 22 25  1  0  0  0  0
M  END
> <VConfSearch Rank>
222

> <Conf_Id>
27

> <Delta U+W>
-1.297

> <U+W>
-52.926

> <U>
5.617

> <W>
-58.543

> <W(PB)>
-61.065

> <W(SA)>
2.522

> <Valence>
7.531

> <Coulomb>
-2.818

> <VdW>
0.904

> <VdW6>
-7.640

> <VdW12>
8.544

> <Bond>
0.115

> <Angle>
2.271

> <Pdih>
5.144

> <Idih>
0.001

> <Tether>
0.000

$$$$
VeraChem MOL file


 25 24  0  0  0  0  0  0  0  0999 V2000     
   16.7242   19.6628   21.4329 C   0  0  0  0  0  0  0  0  0  0  0  0
   16.2430   18.6420   20.9819 O   0  5  0  0  0  0  0  0  0  0  0  0
   16.2219   20.3011   22.3369 O   0  0  0  0  0  0  0  0  0  0  0  0
   18.0218   20.1788   20.8173 C   0  0  0  0  0  0  0  0  0  0  0  0
   18.1342   21.2389   21.0750 H   0  0  0  0  0  0  0  0  0  0  0  0
   17.9111   20.1269   19.7278 H   0  0  0  0  0  0  0  0  0  0  0  0
   19.2829   19.3859   21.2485 C   0  0  0  0  0  0  0  0  0  0  0  0
   19.1437   18.3225   21.0091 H   0  0  0  0  0  0  0  0  0  0  0  0
   20.1414   19.7331   20.6577 H   0  0  0  0  0  0  0  0  0  0  0  0
   19.6007   19.5467   22.7521 C   0  0  0  0  0  0  0  0  0  0  0  0
   18.7530   19.1850   23.3504 H   0  0  0  0  0  0  0  0  0  0  0  0
   19.7256   20.6122   22.9889 H   0  0  0  0  0  0  0  0  0  0  0  0
   20.8770   18.7757   23.1524 C   0  0  0  0  0  0  0  0  0  0  0  0
   20.7511   17.7103   22.9152 H   0  0  0  0  0  0  0  0  0  0  0  0
   21.7267   19.1378   22.5575 H   0  0  0  0  0  0  0  0  0  0  0  0
   21.1947   18.9352   24.6549 C   0  0  0  0  0  0  0  0  0  0  0  0
   20.3450   18.5732   25.2500 H   0  0  0  0  0  0  0  0  0  0  0  0
   21.3203   20.0005   24.8924 H   0  0  0  0  0  0  0  0  0  0  0  0
   22.4700   18.1643   25.0556 C   0  0  0  0  0  0  0  0  0  0  0  0
   22.3472   17.0978   24.8211 H   0  0  0  0  0  0  0  0  0  0  0  0
   23.3225   18.5252   24.4636 H   0  0  0  0  0  0  0  0  0  0  0  0
   22.7836   18.3260   26.5566 C   0  0  0  0  0  0  0  0  0  0  0  0
   21.9599   17.9434   27.1735 H   0  0  0  0  0  0  0  0  0  0  0  0
   23.6927   17.7718   26.8239 H   0  0  0  0  0  0  0  0  0  0  0  0
   22.9424   19.3816   26.8133 H   0  0  0  0  0  0  0  0  0  0  0  0
  1  2  1  0  0  0  0
  1  3  2  0  0  0  0
  1  4  1  0  0  0  0
  4  5  1  0  0  0  0
  4  6  1  0  0  0  0
  4  7  1  0  0  0  0
  7  8  1  0  0  0  0
  7  9  1  0  0  0  0
  7 10  1  0  0  0  0
 10 11  1  0  0  0  0
 10 12  1  0  0  0  0
 10 13  1  0  0  0  0
 13 14  1  0  0  0  0
 13 15  1  0  0  0  0
 13 16  1  0  0  0  0
 16 17  1  0  0  0  0
 16 18  1  0  0  0  0
 16 19  1  0  0  0  0
 19 20  1  0  0  0  0
 19 21  1  0  0  0  0
 19 22  1  0  0  0  0
 22 23  1  0  0  0  0
 22 24  1  0  0  0  0
 22 25  1  0  0  0  0
M  END
> <VConfSearch Rank>
223

> <Conf_Id>
37

> <Delta U+W>
-0.230

> <U+W>
-51.860

> <U>
7.816

> <W>
-59.675

> <W(PB)>
-62.180

> <W(SA)>
2.505

> <Valence>
7.785

> <Coulomb>
-0.713

> <VdW>
0.744

> <VdW6>
-8.514

> <VdW12>
9.259

> <Bond>
0.136

> <Angle>
2.433

> <Pdih>
5.216

> <Idih>
0.000

> <Tether>
0.000

$$$$
VeraChem MOL file


 25 24  0  0  0  0  0  0  0  0999 V2000     
   20.1634   19.3277   19.3105 C   0  0  0  0  0  0  0  0  0  0  0  0
   19.8289   20.3819   18.8068 O   0  5  0  0  0  0  0  0  0  0  0  0
   19.5367   18.2939   19.1863 O   0  0  0  0  0  0  0  0  0  0  0  0
   21.4504   19.2992   20.1302 C   0  0  0  0  0  0  0  0  0  0  0  0
   22.2162   19.8348   19.5569 H   0  0  0  0  0  0  0  0  0  0  0  0
   21.7876   18.2591   20.2163 H   0  0  0  0  0  0  0  0  0  0  0  0
   21.3157   19.9370   21.5373 C   0  0  0  0  0  0  0  0  0  0  0  0
   22.3111   19.9976   21.9979 H   0  0  0  0  0  0  0  0  0  0  0  0
   20.9508   20.9686   21.4359 H   0  0  0  0  0  0  0  0  0  0  0  0
   20.3732   19.1372   22.4646 C   0  0  0  0  0  0  0  0  0  0  0  0
   20.7348   18.1034   22.5520 H   0  0  0  0  0  0  0  0  0  0  0  0
   19.3702   19.0869   22.0187 H   0  0  0  0  0  0  0  0  0  0  0  0
   20.2789   19.7717   23.8689 C   0  0  0  0  0  0  0  0  0  0  0  0
   21.2804   19.8204   24.3179 H   0  0  0  0  0  0  0  0  0  0  0  0
   19.9172   20.8054   23.7804 H   0  0  0  0  0  0  0  0  0  0  0  0
   19.3368   18.9735   24.7957 C   0  0  0  0  0  0  0  0  0  0  0  0
   19.6981   17.9397   24.8841 H   0  0  0  0  0  0  0  0  0  0  0  0
   18.3352   18.9246   24.3467 H   0  0  0  0  0  0  0  0  0  0  0  0
   19.2417   19.6078   26.1993 C   0  0  0  0  0  0  0  0  0  0  0  0
   20.2416   19.6566   26.6523 H   0  0  0  0  0  0  0  0  0  0  0  0
   18.8786   20.6414   26.1149 H   0  0  0  0  0  0  0  0  0  0  0  0
   18.3000   18.8077   27.1217 C   0  0  0  0  0  0  0  0  0  0  0  0
   18.6571   17.7774   27.2493 H   0  0  0  0  0  0  0  0  0  0  0  0
   18.2442   19.2724   28.1147 H   0  0  0  0  0  0  0  0  0  0  0  0
   17.2838   18.7696   26.7078 H   0  0  0  0  0  0  0  0  0  0  0  0
  1  2  1  0  0  0  0
  1  3  2  0  0  0  0
  1  4  1  0  0  0  0
  4  5  1  0  0  0  0
  4  6  1  0  0  0  0
  4  7  1  0  0  0  0
  7  8  1  0  0  0  0
  7  9  1  0  0  0  0
  7 10  1  0  0  0  0
 10 11  1  0  0  0  0
 10 12  1  0  0  0  0
 10 13  1  0  0  0  0
 13 14  1  0  0  0  0
 13 15  1  0  0  0  0
 13 16  1  0  0  0  0
 16 17  1  0  0  0  0
 16 18  1  0  0  0  0
 16 19  1  0  0  0  0
 19 20  1  0  0  0  0
 19 21  1  0  0  0  0
 19 22  1  0  0  0  0
 22 23  1  0  0  0  0
 22 24  1  0  0  0  0
 22 25  1  0  0  0  0
M  END
> <VConfSearch Rank>
224

> <Conf_Id>
54

> <Delta U+W>
-0.224

> <U+W>
-51.854

> <U>
7.816

> <W>
-59.670

> <W(PB)>
-62.157

> <W(SA)>
2.487

> <Valence>
7.785

> <Coulomb>
-0.713

> <VdW>
0.744

> <VdW6>
-8.515

> <VdW12>
9.259

> <Bond>
0.136

> <Angle>
2.433

> <Pdih>
5.215

> <Idih>
0.000

> <Tether>
0.000

$$$$
VeraChem MOL file


 25 24  0  0  0  0  0  0  0  0999 V2000     
   20.4409   22.6385   21.3167 C   0  0  0  0  0  0  0  0  0  0  0  0
   20.3066   23.4937   22.1696 O   0  5  0  0  0  0  0  0  0  0  0  0
   21.3529   22.6270   20.5135 O   0  0  0  0  0  0  0  0  0  0  0  0
   19.3978   21.5273   21.2361 C   0  0  0  0  0  0  0  0  0  0  0  0
   19.1212   21.4147   20.1812 H   0  0  0  0  0  0  0  0  0  0  0  0
   18.4959   21.8538   21.7677 H   0  0  0  0  0  0  0  0  0  0  0  0
   19.8828   20.1631   21.7923 C   0  0  0  0  0  0  0  0  0  0  0  0
   19.1306   19.4024   21.5487 H   0  0  0  0  0  0  0  0  0  0  0  0
   20.8091   19.8697   21.2790 H   0  0  0  0  0  0  0  0  0  0  0  0
   20.1180   20.1953   23.3219 C   0  0  0  0  0  0  0  0  0  0  0  0
   19.1800   20.4440   23.8367 H   0  0  0  0  0  0  0  0  0  0  0  0
   20.8240   21.0028   23.5596 H   0  0  0  0  0  0  0  0  0  0  0  0
   20.6864   18.8725   23.8896 C   0  0  0  0  0  0  0  0  0  0  0  0
   21.6143   18.6145   23.3614 H   0  0  0  0  0  0  0  0  0  0  0  0
   20.9629   19.0457   24.9373 H   0  0  0  0  0  0  0  0  0  0  0  0
   19.6922   17.6876   23.8107 C   0  0  0  0  0  0  0  0  0  0  0  0
   19.4199   17.5076   22.7631 H   0  0  0  0  0  0  0  0  0  0  0  0
   18.7626   17.9482   24.3346 H   0  0  0  0  0  0  0  0  0  0  0  0
   20.2598   16.3701   24.3891 C   0  0  0  0  0  0  0  0  0  0  0  0
   19.5533   15.5575   24.1704 H   0  0  0  0  0  0  0  0  0  0  0  0
   21.1966   16.1125   23.8759 H   0  0  0  0  0  0  0  0  0  0  0  0
   20.4984   16.4207   25.9140 C   0  0  0  0  0  0  0  0  0  0  0  0
   21.2889   17.1356   26.1736 H   0  0  0  0  0  0  0  0  0  0  0  0
   19.5828   16.7106   26.4457 H   0  0  0  0  0  0  0  0  0  0  0  0
   20.8075   15.4355   26.2865 H   0  0  0  0  0  0  0  0  0  0  0  0
  1  2  1  0  0  0  0
  1  3  2  0  0  0  0
  1  4  1  0  0  0  0
  4  5  1  0  0  0  0
  4  6  1  0  0  0  0
  4  7  1  0  0  0  0
  7  8  1  0  0  0  0
  7  9  1  0  0  0  0
  7 10  1  0  0  0  0
 10 11  1  0  0  0  0
 10 12  1  0  0  0  0
 10 13  1  0  0  0  0
 13 14  1  0  0  0  0
 13 15  1  0  0  0  0
 13 16  1  0  0  0  0
 16 17  1  0  0  0  0
 16 18  1  0  0  0  0
 16 19  1  0  0  0  0
 19 20  1  0  0  0  0
 19 21  1  0  0  0  0
 19 22  1  0  0  0  0
 22 23  1  0  0  0  0
 22 24  1  0  0  0  0
 22 25  1  0  0  0  0
M  END
> <VConfSearch Rank>
225

> <Conf_Id>
101

> <Delta U+W>
1.534

> <U+W>
-50.095

> <U>
9.416

> <W>
-59.512

> <W(PB)>
-61.988

> <W(SA)>
2.476

> <Valence>
8.939

> <Coulomb>
-0.615

> <VdW>
1.092

> <VdW6>
-9.710

> <VdW12>
10.802

> <Bond>
0.216

> <Angle>
2.979

> <Pdih>
5.743

> <Idih>
0.000

> <Tether>
0.000

$$$$
VeraChem MOL file


 25 24  0  0  0  0  0  0  0  0999 V2000     
   23.5079   19.4077   20.8525 C   0  0  0  0  0  0  0  0  0  0  0  0
   24.4190   18.8842   21.4629 O   0  5  0  0  0  0  0  0  0  0  0  0
   23.5072   19.5636   19.6473 O   0  0  0  0  0  0  0  0  0  0  0  0
   22.2882   19.8742   21.6393 C   0  0  0  0  0  0  0  0  0  0  0  0
   21.8698   20.7503   21.1297 H   0  0  0  0  0  0  0  0  0  0  0  0
   22.6351   20.2051   22.6245 H   0  0  0  0  0  0  0  0  0  0  0  0
   21.2080   18.7702   21.7802 C   0  0  0  0  0  0  0  0  0  0  0  0
   20.9570   18.3950   20.7783 H   0  0  0  0  0  0  0  0  0  0  0  0
   21.6234   17.9177   22.3350 H   0  0  0  0  0  0  0  0  0  0  0  0
   19.9083   19.2566   22.4650 C   0  0  0  0  0  0  0  0  0  0  0  0
   19.1642   18.4536   22.3880 H   0  0  0  0  0  0  0  0  0  0  0  0
   19.5001   20.1149   21.9143 H   0  0  0  0  0  0  0  0  0  0  0  0
   20.1014   19.6342   23.9543 C   0  0  0  0  0  0  0  0  0  0  0  0
   20.5086   18.7762   24.5049 H   0  0  0  0  0  0  0  0  0  0  0  0
   20.8512   20.4311   24.0348 H   0  0  0  0  0  0  0  0  0  0  0  0
   18.8041   20.1348   24.6388 C   0  0  0  0  0  0  0  0  0  0  0  0
   18.4604   21.0440   24.1270 H   0  0  0  0  0  0  0  0  0  0  0  0
   19.0452   20.4392   25.6664 H   0  0  0  0  0  0  0  0  0  0  0  0
   17.6376   19.1165   24.6830 C   0  0  0  0  0  0  0  0  0  0  0  0
   16.7817   19.5881   25.1850 H   0  0  0  0  0  0  0  0  0  0  0  0
   17.2989   18.8823   23.6652 H   0  0  0  0  0  0  0  0  0  0  0  0
   17.9918   17.8111   25.4277 C   0  0  0  0  0  0  0  0  0  0  0  0
   18.3564   18.0234   26.4411 H   0  0  0  0  0  0  0  0  0  0  0  0
   17.1080   17.1659   25.5138 H   0  0  0  0  0  0  0  0  0  0  0  0
   18.7657   17.2453   24.8939 H   0  0  0  0  0  0  0  0  0  0  0  0
  1  2  1  0  0  0  0
  1  3  2  0  0  0  0
  1  4  1  0  0  0  0
  4  5  1  0  0  0  0
  4  6  1  0  0  0  0
  4  7  1  0  0  0  0
  7  8  1  0  0  0  0
  7  9  1  0  0  0  0
  7 10  1  0  0  0  0
 10 11  1  0  0  0  0
 10 12  1  0  0  0  0
 10 13  1  0  0  0  0
 13 14  1  0  0  0  0
 13 15  1  0  0  0  0
 13 16  1  0  0  0  0
 16 17  1  0  0  0  0
 16 18  1  0  0  0  0
 16 19  1  0  0  0  0
 19 20  1  0  0  0  0
 19 21  1  0  0  0  0
 19 22  1  0  0  0  0
 22 23  1  0  0  0  0
 22 24  1  0  0  0  0
 22 25  1  0  0  0  0
M  END
> <VConfSearch Rank>
226

> <Conf_Id>
75

> <Delta U+W>
1.014

> <U+W>
-50.615

> <U>
8.474

> <W>
-59.089

> <W(PB)>
-61.530

> <W(SA)>
2.441

> <Valence>
9.080

> <Coulomb>
-1.772

> <VdW>
1.165

> <VdW6>
-9.830

> <VdW12>
10.996

> <Bond>
0.240

> <Angle>
3.225

> <Pdih>
5.615

> <Idih>
0.001

> <Tether>
0.000

$$$$
VeraChem MOL file


 25 24  0  0  0  0  0  0  0  0999 V2000     
   18.8531   17.9988   27.1584 C   0  0  0  0  0  0  0  0  0  0  0  0
   19.8130   17.5314   27.7386 O   0  5  0  0  0  0  0  0  0  0  0  0
   17.9044   18.5044   27.7251 O   0  0  0  0  0  0  0  0  0  0  0  0
   18.8483   17.9684   25.6342 C   0  0  0  0  0  0  0  0  0  0  0  0
   17.8092   17.8670   25.2987 H   0  0  0  0  0  0  0  0  0  0  0  0
   19.3833   17.0677   25.3098 H   0  0  0  0  0  0  0  0  0  0  0  0
   19.4927   19.2284   25.0055 C   0  0  0  0  0  0  0  0  0  0  0  0
   18.9542   20.1221   25.3501 H   0  0  0  0  0  0  0  0  0  0  0  0
   20.5280   19.3224   25.3617 H   0  0  0  0  0  0  0  0  0  0  0  0
   19.4772   19.1729   23.4625 C   0  0  0  0  0  0  0  0  0  0  0  0
   18.4407   19.0784   23.1110 H   0  0  0  0  0  0  0  0  0  0  0  0
   20.0063   18.2731   23.1268 H   0  0  0  0  0  0  0  0  0  0  0  0
   20.1164   20.4362   22.8393 C   0  0  0  0  0  0  0  0  0  0  0  0
   19.5410   21.3105   23.1729 H   0  0  0  0  0  0  0  0  0  0  0  0
   21.1366   20.5771   23.2217 H   0  0  0  0  0  0  0  0  0  0  0  0
   20.1279   20.4181   21.2895 C   0  0  0  0  0  0  0  0  0  0  0  0
   19.9574   21.4438   20.9350 H   0  0  0  0  0  0  0  0  0  0  0  0
   19.2839   19.8269   20.9089 H   0  0  0  0  0  0  0  0  0  0  0  0
   21.4524   19.9218   20.6584 C   0  0  0  0  0  0  0  0  0  0  0  0
   21.3795   20.0273   19.5672 H   0  0  0  0  0  0  0  0  0  0  0  0
   22.2781   20.5737   20.9753 H   0  0  0  0  0  0  0  0  0  0  0  0
   21.8012   18.4561   20.9907 C   0  0  0  0  0  0  0  0  0  0  0  0
   20.9663   17.7869   20.7457 H   0  0  0  0  0  0  0  0  0  0  0  0
   22.6771   18.1300   20.4151 H   0  0  0  0  0  0  0  0  0  0  0  0
   22.0428   18.3386   22.0544 H   0  0  0  0  0  0  0  0  0  0  0  0
  1  2  1  0  0  0  0
  1  3  2  0  0  0  0
  1  4  1  0  0  0  0
  4  5  1  0  0  0  0
  4  6  1  0  0  0  0
  4  7  1  0  0  0  0
  7  8  1  0  0  0  0
  7  9  1  0  0  0  0
  7 10  1  0  0  0  0
 10 11  1  0  0  0  0
 10 12  1  0  0  0  0
 10 13  1  0  0  0  0
 13 14  1  0  0  0  0
 13 15  1  0  0  0  0
 13 16  1  0  0  0  0
 16 17  1  0  0  0  0
 16 18  1  0  0  0  0
 16 19  1  0  0  0  0
 19 20  1  0  0  0  0
 19 21  1  0  0  0  0
 19 22  1  0  0  0  0
 22 23  1  0  0  0  0
 22 24  1  0  0  0  0
 22 25  1  0  0  0  0
M  END
> <VConfSearch Rank>
227

> <Conf_Id>
125

> <Delta U+W>
2.314

> <U+W>
-49.315

> <U>
9.740

> <W>
-59.054

> <W(PB)>
-61.488

> <W(SA)>
2.433

> <Valence>
10.506

> <Coulomb>
-1.761

> <VdW>
0.994

> <VdW6>
-9.209

> <VdW12>
10.203

> <Bond>
0.193

> <Angle>
2.979

> <Pdih>
7.334

> <Idih>
0.001

> <Tether>
0.000

$$$$
VeraChem MOL file


 25 24  0  0  0  0  0  0  0  0999 V2000     
   18.7119   20.7210   19.7951 C   0  0  0  0  0  0  0  0  0  0  0  0
   19.2638   21.7981   19.6857 O   0  5  0  0  0  0  0  0  0  0  0  0
   17.8285   20.3389   19.0533 O   0  0  0  0  0  0  0  0  0  0  0  0
   19.1343   19.8086   20.9410 C   0  0  0  0  0  0  0  0  0  0  0  0
   20.2039   19.9690   21.1172 H   0  0  0  0  0  0  0  0  0  0  0  0
   19.0102   18.7699   20.6121 H   0  0  0  0  0  0  0  0  0  0  0  0
   18.3222   20.0600   22.2382 C   0  0  0  0  0  0  0  0  0  0  0  0
   18.4917   21.0893   22.5834 H   0  0  0  0  0  0  0  0  0  0  0  0
   17.2513   19.9840   22.0039 H   0  0  0  0  0  0  0  0  0  0  0  0
   18.6520   19.0656   23.3768 C   0  0  0  0  0  0  0  0  0  0  0  0
   18.4724   18.0381   23.0317 H   0  0  0  0  0  0  0  0  0  0  0  0
   17.9530   19.2417   24.2058 H   0  0  0  0  0  0  0  0  0  0  0  0
   20.1003   19.1920   23.9036 C   0  0  0  0  0  0  0  0  0  0  0  0
   20.8061   18.9511   23.0996 H   0  0  0  0  0  0  0  0  0  0  0  0
   20.2929   20.2315   24.2018 H   0  0  0  0  0  0  0  0  0  0  0  0
   20.3522   18.2548   25.1075 C   0  0  0  0  0  0  0  0  0  0  0  0
   20.2060   17.2103   24.8001 H   0  0  0  0  0  0  0  0  0  0  0  0
   19.6013   18.4588   25.8831 H   0  0  0  0  0  0  0  0  0  0  0  0
   21.7579   18.4185   25.7312 C   0  0  0  0  0  0  0  0  0  0  0  0
   21.9055   19.4611   26.0449 H   0  0  0  0  0  0  0  0  0  0  0  0
   21.8113   17.8095   26.6442 H   0  0  0  0  0  0  0  0  0  0  0  0
   22.9010   17.9943   24.7837 C   0  0  0  0  0  0  0  0  0  0  0  0
   22.9613   18.6529   23.9082 H   0  0  0  0  0  0  0  0  0  0  0  0
   23.8672   18.0427   25.3023 H   0  0  0  0  0  0  0  0  0  0  0  0
   22.7578   16.9645   24.4314 H   0  0  0  0  0  0  0  0  0  0  0  0
  1  2  1  0  0  0  0
  1  3  2  0  0  0  0
  1  4  1  0  0  0  0
  4  5  1  0  0  0  0
  4  6  1  0  0  0  0
  4  7  1  0  0  0  0
  7  8  1  0  0  0  0
  7  9  1  0  0  0  0
  7 10  1  0  0  0  0
 10 11  1  0  0  0  0
 10 12  1  0  0  0  0
 10 13  1  0  0  0  0
 13 14  1  0  0  0  0
 13 15  1  0  0  0  0
 13 16  1  0  0  0  0
 16 17  1  0  0  0  0
 16 18  1  0  0  0  0
 16 19  1  0  0  0  0
 19 20  1  0  0  0  0
 19 21  1  0  0  0  0
 19 22  1  0  0  0  0
 22 23  1  0  0  0  0
 22 24  1  0  0  0  0
 22 25  1  0  0  0  0
M  END
> <VConfSearch Rank>
228

> <Conf_Id>
4

> <Delta U+W>
0.189

> <U+W>
-51.441

> <U>
7.701

> <W>
-59.141

> <W(PB)>
-61.609

> <W(SA)>
2.467

> <Valence>
8.550

> <Coulomb>
-1.988

> <VdW>
1.139

> <VdW6>
-8.988

> <VdW12>
10.127

> <Bond>
0.191

> <Angle>
2.738

> <Pdih>
5.621

> <Idih>
0.001

> <Tether>
0.000

$$$$
VeraChem MOL file


 25 24  0  0  0  0  0  0  0  0999 V2000     
   18.2972   17.0976   20.2612 C   0  0  0  0  0  0  0  0  0  0  0  0
   17.2110   16.7570   20.6865 O   0  5  0  0  0  0  0  0  0  0  0  0
   18.6505   16.9348   19.1099 O   0  0  0  0  0  0  0  0  0  0  0  0
   19.2611   17.7888   21.2188 C   0  0  0  0  0  0  0  0  0  0  0  0
   20.2834   17.5317   20.9168 H   0  0  0  0  0  0  0  0  0  0  0  0
   19.1000   17.3651   22.2165 H   0  0  0  0  0  0  0  0  0  0  0  0
   19.0812   19.3290   21.2427 C   0  0  0  0  0  0  0  0  0  0  0  0
   19.1551   19.7085   20.2141 H   0  0  0  0  0  0  0  0  0  0  0  0
   18.0687   19.5747   21.5918 H   0  0  0  0  0  0  0  0  0  0  0  0
   20.1276   20.0604   22.1170 C   0  0  0  0  0  0  0  0  0  0  0  0
   19.9986   21.1429   21.9814 H   0  0  0  0  0  0  0  0  0  0  0  0
   21.1383   19.8205   21.7593 H   0  0  0  0  0  0  0  0  0  0  0  0
   20.0146   19.7243   23.6221 C   0  0  0  0  0  0  0  0  0  0  0  0
   18.9894   19.9181   23.9654 H   0  0  0  0  0  0  0  0  0  0  0  0
   20.2096   18.6561   23.7756 H   0  0  0  0  0  0  0  0  0  0  0  0
   21.0076   20.5555   24.4672 C   0  0  0  0  0  0  0  0  0  0  0  0
   20.8483   21.6225   24.2598 H   0  0  0  0  0  0  0  0  0  0  0  0
   22.0370   20.3287   24.1576 H   0  0  0  0  0  0  0  0  0  0  0  0
   20.8628   20.3253   25.9897 C   0  0  0  0  0  0  0  0  0  0  0  0
   21.5152   21.0349   26.5168 H   0  0  0  0  0  0  0  0  0  0  0  0
   19.8355   20.5563   26.3038 H   0  0  0  0  0  0  0  0  0  0  0  0
   21.2305   18.8914   26.4295 C   0  0  0  0  0  0  0  0  0  0  0  0
   22.2430   18.6263   26.0984 H   0  0  0  0  0  0  0  0  0  0  0  0
   21.1994   18.8058   27.5234 H   0  0  0  0  0  0  0  0  0  0  0  0
   20.5294   18.1540   26.0191 H   0  0  0  0  0  0  0  0  0  0  0  0
  1  2  1  0  0  0  0
  1  3  2  0  0  0  0
  1  4  1  0  0  0  0
  4  5  1  0  0  0  0
  4  6  1  0  0  0  0
  4  7  1  0  0  0  0
  7  8  1  0  0  0  0
  7  9  1  0  0  0  0
  7 10  1  0  0  0  0
 10 11  1  0  0  0  0
 10 12  1  0  0  0  0
 10 13  1  0  0  0  0
 13 14  1  0  0  0  0
 13 15  1  0  0  0  0
 13 16  1  0  0  0  0
 16 17  1  0  0  0  0
 16 18  1  0  0  0  0
 16 19  1  0  0  0  0
 19 20  1  0  0  0  0
 19 21  1  0  0  0  0
 19 22  1  0  0  0  0
 22 23  1  0  0  0  0
 22 24  1  0  0  0  0
 22 25  1  0  0  0  0
M  END
> <VConfSearch Rank>
229

> <Conf_Id>
17

> <Delta U+W>
0.219

> <U+W>
-51.411

> <U>
7.701

> <W>
-59.111

> <W(PB)>
-61.599

> <W(SA)>
2.488

> <Valence>
8.550

> <Coulomb>
-1.988

> <VdW>
1.139

> <VdW6>
-8.988

> <VdW12>
10.127

> <Bond>
0.191

> <Angle>
2.738

> <Pdih>
5.621

> <Idih>
0.001

> <Tether>
0.000

$$$$
VeraChem MOL file


 25 24  0  0  0  0  0  0  0  0999 V2000     
   18.2173   22.6377   22.8822 C   0  0  0  0  0  0  0  0  0  0  0  0
   19.0187   23.5044   22.5930 O   0  5  0  0  0  0  0  0  0  0  0  0
   17.5549   22.6469   23.9011 O   0  0  0  0  0  0  0  0  0  0  0  0
   18.0159   21.4835   21.9044 C   0  0  0  0  0  0  0  0  0  0  0  0
   18.3865   21.7909   20.9190 H   0  0  0  0  0  0  0  0  0  0  0  0
   16.9360   21.3246   21.8018 H   0  0  0  0  0  0  0  0  0  0  0  0
   18.6949   20.1605   22.3445 C   0  0  0  0  0  0  0  0  0  0  0  0
   18.3228   19.8841   23.3399 H   0  0  0  0  0  0  0  0  0  0  0  0
   18.3922   19.3585   21.6578 H   0  0  0  0  0  0  0  0  0  0  0  0
   20.2388   20.2642   22.3600 C   0  0  0  0  0  0  0  0  0  0  0  0
   20.5549   21.0157   23.0967 H   0  0  0  0  0  0  0  0  0  0  0  0
   20.5821   20.6272   21.3816 H   0  0  0  0  0  0  0  0  0  0  0  0
   20.9436   18.9201   22.6604 C   0  0  0  0  0  0  0  0  0  0  0  0
   20.6358   18.1694   21.9197 H   0  0  0  0  0  0  0  0  0  0  0  0
   22.0257   19.0586   22.5311 H   0  0  0  0  0  0  0  0  0  0  0  0
   20.6724   18.3876   24.0865 C   0  0  0  0  0  0  0  0  0  0  0  0
   19.6031   18.1717   24.2089 H   0  0  0  0  0  0  0  0  0  0  0  0
   20.9298   19.1616   24.8224 H   0  0  0  0  0  0  0  0  0  0  0  0
   21.4823   17.1073   24.3809 C   0  0  0  0  0  0  0  0  0  0  0  0
   21.2284   16.3315   23.6453 H   0  0  0  0  0  0  0  0  0  0  0  0
   22.5558   17.3137   24.2697 H   0  0  0  0  0  0  0  0  0  0  0  0
   21.2079   16.5755   25.8020 C   0  0  0  0  0  0  0  0  0  0  0  0
   20.1456   16.3300   25.9313 H   0  0  0  0  0  0  0  0  0  0  0  0
   21.7917   15.6660   25.9942 H   0  0  0  0  0  0  0  0  0  0  0  0
   21.4821   17.3209   26.5600 H   0  0  0  0  0  0  0  0  0  0  0  0
  1  2  1  0  0  0  0
  1  3  2  0  0  0  0
  1  4  1  0  0  0  0
  4  5  1  0  0  0  0
  4  6  1  0  0  0  0
  4  7  1  0  0  0  0
  7  8  1  0  0  0  0
  7  9  1  0  0  0  0
  7 10  1  0  0  0  0
 10 11  1  0  0  0  0
 10 12  1  0  0  0  0
 10 13  1  0  0  0  0
 13 14  1  0  0  0  0
 13 15  1  0  0  0  0
 13 16  1  0  0  0  0
 16 17  1  0  0  0  0
 16 18  1  0  0  0  0
 16 19  1  0  0  0  0
 19 20  1  0  0  0  0
 19 21  1  0  0  0  0
 19 22  1  0  0  0  0
 22 23  1  0  0  0  0
 22 24  1  0  0  0  0
 22 25  1  0  0  0  0
M  END
> <VConfSearch Rank>
230

> <Conf_Id>
142

> <Delta U+W>
0.593

> <U+W>
-51.037

> <U>
8.903

> <W>
-59.940

> <W(PB)>
-62.418

> <W(SA)>
2.478

> <Valence>
8.305

> <Coulomb>
-0.223

> <VdW>
0.821

> <VdW6>
-9.236

> <VdW12>
10.057

> <Bond>
0.173

> <Angle>
2.663

> <Pdih>
5.469

> <Idih>
0.001

> <Tether>
0.000

$$$$
VeraChem MOL file


 25 24  0  0  0  0  0  0  0  0999 V2000     
   21.0162   16.3196   25.3249 C   0  0  0  0  0  0  0  0  0  0  0  0
   21.3789   16.0354   26.4497 O   0  5  0  0  0  0  0  0  0  0  0  0
   20.1528   15.7115   24.7234 O   0  0  0  0  0  0  0  0  0  0  0  0
   21.7034   17.4869   24.6219 C   0  0  0  0  0  0  0  0  0  0  0  0
   21.4727   17.4375   23.5516 H   0  0  0  0  0  0  0  0  0  0  0  0
   22.7847   17.3323   24.7139 H   0  0  0  0  0  0  0  0  0  0  0  0
   21.3322   18.8809   25.1974 C   0  0  0  0  0  0  0  0  0  0  0  0
   21.6392   18.9193   26.2517 H   0  0  0  0  0  0  0  0  0  0  0  0
   21.9213   19.6523   24.6848 H   0  0  0  0  0  0  0  0  0  0  0  0
   19.8241   19.2302   25.1076 C   0  0  0  0  0  0  0  0  0  0  0  0
   19.6662   20.2259   25.5436 H   0  0  0  0  0  0  0  0  0  0  0  0
   19.2572   18.5317   25.7383 H   0  0  0  0  0  0  0  0  0  0  0  0
   19.2231   19.2067   23.6798 C   0  0  0  0  0  0  0  0  0  0  0  0
   19.2714   18.1886   23.2709 H   0  0  0  0  0  0  0  0  0  0  0  0
   18.1552   19.4538   23.7510 H   0  0  0  0  0  0  0  0  0  0  0  0
   19.9040   20.1962   22.7061 C   0  0  0  0  0  0  0  0  0  0  0  0
   20.9569   19.9184   22.5675 H   0  0  0  0  0  0  0  0  0  0  0  0
   19.8917   21.2053   23.1399 H   0  0  0  0  0  0  0  0  0  0  0  0
   19.2031   20.2169   21.3314 C   0  0  0  0  0  0  0  0  0  0  0  0
   19.2119   19.2076   20.8968 H   0  0  0  0  0  0  0  0  0  0  0  0
   18.1492   20.5015   21.4566 H   0  0  0  0  0  0  0  0  0  0  0  0
   19.8870   21.1995   20.3596 C   0  0  0  0  0  0  0  0  0  0  0  0
   20.9350   20.9194   20.1907 H   0  0  0  0  0  0  0  0  0  0  0  0
   19.3759   21.2015   19.3880 H   0  0  0  0  0  0  0  0  0  0  0  0
   19.8652   22.2230   20.7562 H   0  0  0  0  0  0  0  0  0  0  0  0
  1  2  1  0  0  0  0
  1  3  2  0  0  0  0
  1  4  1  0  0  0  0
  4  5  1  0  0  0  0
  4  6  1  0  0  0  0
  4  7  1  0  0  0  0
  7  8  1  0  0  0  0
  7  9  1  0  0  0  0
  7 10  1  0  0  0  0
 10 11  1  0  0  0  0
 10 12  1  0  0  0  0
 10 13  1  0  0  0  0
 13 14  1  0  0  0  0
 13 15  1  0  0  0  0
 13 16  1  0  0  0  0
 16 17  1  0  0  0  0
 16 18  1  0  0  0  0
 16 19  1  0  0  0  0
 19 20  1  0  0  0  0
 19 21  1  0  0  0  0
 19 22  1  0  0  0  0
 22 23  1  0  0  0  0
 22 24  1  0  0  0  0
 22 25  1  0  0  0  0
M  END
> <VConfSearch Rank>
231

> <Conf_Id>
135

> <Delta U+W>
1.314

> <U+W>
-50.316

> <U>
9.773

> <W>
-60.088

> <W(PB)>
-62.535

> <W(SA)>
2.447

> <Valence>
8.741

> <Coulomb>
0.479

> <VdW>
0.552

> <VdW6>
-10.627

> <VdW12>
11.179

> <Bond>
0.227

> <Angle>
3.155

> <Pdih>
5.358

> <Idih>
0.001

> <Tether>
0.000

$$$$
VeraChem MOL file


 25 24  0  0  0  0  0  0  0  0999 V2000     
   18.5405   22.9316   22.0689 C   0  0  0  0  0  0  0  0  0  0  0  0
   17.4460   22.8583   21.5460 O   0  5  0  0  0  0  0  0  0  0  0  0
   18.9910   23.9539   22.5470 O   0  0  0  0  0  0  0  0  0  0  0  0
   19.3861   21.6656   22.1499 C   0  0  0  0  0  0  0  0  0  0  0  0
   20.4416   21.9584   22.1013 H   0  0  0  0  0  0  0  0  0  0  0  0
   19.1732   21.0664   21.2577 H   0  0  0  0  0  0  0  0  0  0  0  0
   19.1167   20.8468   23.4394 C   0  0  0  0  0  0  0  0  0  0  0  0
   19.2461   21.5083   24.3073 H   0  0  0  0  0  0  0  0  0  0  0  0
   18.0686   20.5176   23.4547 H   0  0  0  0  0  0  0  0  0  0  0  0
   20.0521   19.6254   23.6067 C   0  0  0  0  0  0  0  0  0  0  0  0
   19.8890   19.2118   24.6099 H   0  0  0  0  0  0  0  0  0  0  0  0
   21.0996   19.9536   23.5659 H   0  0  0  0  0  0  0  0  0  0  0  0
   19.8084   18.5137   22.5582 C   0  0  0  0  0  0  0  0  0  0  0  0
   18.7755   18.1503   22.6460 H   0  0  0  0  0  0  0  0  0  0  0  0
   19.9029   18.9337   21.5492 H   0  0  0  0  0  0  0  0  0  0  0  0
   20.7858   17.3158   22.6641 C   0  0  0  0  0  0  0  0  0  0  0  0
   21.8155   17.6536   22.4843 H   0  0  0  0  0  0  0  0  0  0  0  0
   20.5514   16.6252   21.8425 H   0  0  0  0  0  0  0  0  0  0  0  0
   20.7045   16.5263   23.9946 C   0  0  0  0  0  0  0  0  0  0  0  0
   19.7035   16.6258   24.4368 H   0  0  0  0  0  0  0  0  0  0  0  0
   20.8371   15.4573   23.7779 H   0  0  0  0  0  0  0  0  0  0  0  0
   21.7858   16.9442   25.0160 C   0  0  0  0  0  0  0  0  0  0  0  0
   21.7057   18.0036   25.2849 H   0  0  0  0  0  0  0  0  0  0  0  0
   21.6913   16.3558   25.9379 H   0  0  0  0  0  0  0  0  0  0  0  0
   22.7917   16.7734   24.6108 H   0  0  0  0  0  0  0  0  0  0  0  0
  1  2  1  0  0  0  0
  1  3  2  0  0  0  0
  1  4  1  0  0  0  0
  4  5  1  0  0  0  0
  4  6  1  0  0  0  0
  4  7  1  0  0  0  0
  7  8  1  0  0  0  0
  7  9  1  0  0  0  0
  7 10  1  0  0  0  0
 10 11  1  0  0  0  0
 10 12  1  0  0  0  0
 10 13  1  0  0  0  0
 13 14  1  0  0  0  0
 13 15  1  0  0  0  0
 13 16  1  0  0  0  0
 16 17  1  0  0  0  0
 16 18  1  0  0  0  0
 16 19  1  0  0  0  0
 19 20  1  0  0  0  0
 19 21  1  0  0  0  0
 19 22  1  0  0  0  0
 22 23  1  0  0  0  0
 22 24  1  0  0  0  0
 22 25  1  0  0  0  0
M  END
> <VConfSearch Rank>
232

> <Conf_Id>
19

> <Delta U+W>
3.222

> <U+W>
-48.407

> <U>
10.617

> <W>
-59.025

> <W(PB)>
-61.462

> <W(SA)>
2.437

> <Valence>
11.188

> <Coulomb>
-1.778

> <VdW>
1.208

> <VdW6>
-9.786

> <VdW12>
10.993

> <Bond>
0.241

> <Angle>
3.294

> <Pdih>
7.653

> <Idih>
0.001

> <Tether>
0.000

$$$$
VeraChem MOL file


 25 24  0  0  0  0  0  0  0  0999 V2000     
   19.5376   16.9099   19.7636 C   0  0  0  0  0  0  0  0  0  0  0  0
   18.9402   17.5012   18.8860 O   0  5  0  0  0  0  0  0  0  0  0  0
   19.6410   15.7000   19.8099 O   0  0  0  0  0  0  0  0  0  0  0  0
   20.1727   17.7299   20.8809 C   0  0  0  0  0  0  0  0  0  0  0  0
   20.5048   18.6799   20.4479 H   0  0  0  0  0  0  0  0  0  0  0  0
   21.0678   17.1985   21.2256 H   0  0  0  0  0  0  0  0  0  0  0  0
   19.2054   17.9750   22.0683 C   0  0  0  0  0  0  0  0  0  0  0  0
   18.3352   18.5498   21.7222 H   0  0  0  0  0  0  0  0  0  0  0  0
   18.8193   17.0050   22.4110 H   0  0  0  0  0  0  0  0  0  0  0  0
   19.8651   18.6950   23.2688 C   0  0  0  0  0  0  0  0  0  0  0  0
   20.7493   18.1321   23.5971 H   0  0  0  0  0  0  0  0  0  0  0  0
   19.1526   18.6797   24.1031 H   0  0  0  0  0  0  0  0  0  0  0  0
   20.2573   20.1615   22.9688 C   0  0  0  0  0  0  0  0  0  0  0  0
   20.9171   20.1933   22.0929 H   0  0  0  0  0  0  0  0  0  0  0  0
   19.3578   20.7312   22.6986 H   0  0  0  0  0  0  0  0  0  0  0  0
   20.9867   20.8750   24.1351 C   0  0  0  0  0  0  0  0  0  0  0  0
   21.2600   21.8806   23.7874 H   0  0  0  0  0  0  0  0  0  0  0  0
   21.9363   20.3668   24.3517 H   0  0  0  0  0  0  0  0  0  0  0  0
   20.1502   21.0244   25.4306 C   0  0  0  0  0  0  0  0  0  0  0  0
   20.3739   22.0003   25.8831 H   0  0  0  0  0  0  0  0  0  0  0  0
   19.0776   21.0372   25.1927 H   0  0  0  0  0  0  0  0  0  0  0  0
   20.4539   19.9310   26.4792 C   0  0  0  0  0  0  0  0  0  0  0  0
   21.5088   19.9630   26.7814 H   0  0  0  0  0  0  0  0  0  0  0  0
   19.8426   20.0809   27.3785 H   0  0  0  0  0  0  0  0  0  0  0  0
   20.2434   18.9266   26.0945 H   0  0  0  0  0  0  0  0  0  0  0  0
  1  2  1  0  0  0  0
  1  3  2  0  0  0  0
  1  4  1  0  0  0  0
  4  5  1  0  0  0  0
  4  6  1  0  0  0  0
  4  7  1  0  0  0  0
  7  8  1  0  0  0  0
  7  9  1  0  0  0  0
  7 10  1  0  0  0  0
 10 11  1  0  0  0  0
 10 12  1  0  0  0  0
 10 13  1  0  0  0  0
 13 14  1  0  0  0  0
 13 15  1  0  0  0  0
 13 16  1  0  0  0  0
 16 17  1  0  0  0  0
 16 18  1  0  0  0  0
 16 19  1  0  0  0  0
 19 20  1  0  0  0  0
 19 21  1  0  0  0  0
 19 22  1  0  0  0  0
 22 23  1  0  0  0  0
 22 24  1  0  0  0  0
 22 25  1  0  0  0  0
M  END
> <VConfSearch Rank>
233

> <Conf_Id>
20

> <Delta U+W>
3.224

> <U+W>
-48.406

> <U>
10.617

> <W>
-59.023

> <W(PB)>
-61.467

> <W(SA)>
2.444

> <Valence>
11.188

> <Coulomb>
-1.778

> <VdW>
1.208

> <VdW6>
-9.786

> <VdW12>
10.993

> <Bond>
0.241

> <Angle>
3.294

> <Pdih>
7.653

> <Idih>
0.001

> <Tether>
0.000

$$$$
VeraChem MOL file


 25 24  0  0  0  0  0  0  0  0999 V2000     
   17.6927   16.9487   23.3245 C   0  0  0  0  0  0  0  0  0  0  0  0
   16.7717   17.2774   24.0467 O   0  5  0  0  0  0  0  0  0  0  0  0
   18.5161   16.1080   23.6284 O   0  0  0  0  0  0  0  0  0  0  0  0
   17.7839   17.5762   21.9348 C   0  0  0  0  0  0  0  0  0  0  0  0
   16.8807   17.2657   21.3968 H   0  0  0  0  0  0  0  0  0  0  0  0
   18.6344   17.1364   21.4001 H   0  0  0  0  0  0  0  0  0  0  0  0
   17.8777   19.1280   21.9124 C   0  0  0  0  0  0  0  0  0  0  0  0
   17.5713   19.4718   20.9153 H   0  0  0  0  0  0  0  0  0  0  0  0
   17.1511   19.5573   22.6162 H   0  0  0  0  0  0  0  0  0  0  0  0
   19.2902   19.6975   22.1942 C   0  0  0  0  0  0  0  0  0  0  0  0
   19.2671   20.7791   22.0030 H   0  0  0  0  0  0  0  0  0  0  0  0
   20.0091   19.2733   21.4800 H   0  0  0  0  0  0  0  0  0  0  0  0
   19.7896   19.4590   23.6372 C   0  0  0  0  0  0  0  0  0  0  0  0
   19.0233   19.7889   24.3520 H   0  0  0  0  0  0  0  0  0  0  0  0
   19.9455   18.3859   23.8051 H   0  0  0  0  0  0  0  0  0  0  0  0
   21.1123   20.2062   23.9147 C   0  0  0  0  0  0  0  0  0  0  0  0
   20.9662   21.2837   23.7579 H   0  0  0  0  0  0  0  0  0  0  0  0
   21.8759   19.8786   23.1960 H   0  0  0  0  0  0  0  0  0  0  0  0
   21.6177   19.9595   25.3518 C   0  0  0  0  0  0  0  0  0  0  0  0
   20.8564   20.2868   26.0733 H   0  0  0  0  0  0  0  0  0  0  0  0
   21.7667   18.8825   25.5119 H   0  0  0  0  0  0  0  0  0  0  0  0
   22.9387   20.7062   25.6258 C   0  0  0  0  0  0  0  0  0  0  0  0
   22.8101   21.7897   25.5034 H   0  0  0  0  0  0  0  0  0  0  0  0
   23.2831   20.5195   26.6513 H   0  0  0  0  0  0  0  0  0  0  0  0
   23.7273   20.3746   24.9377 H   0  0  0  0  0  0  0  0  0  0  0  0
  1  2  1  0  0  0  0
  1  3  2  0  0  0  0
  1  4  1  0  0  0  0
  4  5  1  0  0  0  0
  4  6  1  0  0  0  0
  4  7  1  0  0  0  0
  7  8  1  0  0  0  0
  7  9  1  0  0  0  0
  7 10  1  0  0  0  0
 10 11  1  0  0  0  0
 10 12  1  0  0  0  0
 10 13  1  0  0  0  0
 13 14  1  0  0  0  0
 13 15  1  0  0  0  0
 13 16  1  0  0  0  0
 16 17  1  0  0  0  0
 16 18  1  0  0  0  0
 16 19  1  0  0  0  0
 19 20  1  0  0  0  0
 19 21  1  0  0  0  0
 19 22  1  0  0  0  0
 22 23  1  0  0  0  0
 22 24  1  0  0  0  0
 22 25  1  0  0  0  0
M  END
> <VConfSearch Rank>
234

> <Conf_Id>
24

> <Delta U+W>
1.784

> <U+W>
-49.846

> <U>
10.904

> <W>
-60.749

> <W(PB)>
-63.220

> <W(SA)>
2.471

> <Valence>
9.445

> <Coulomb>
0.780

> <VdW>
0.679

> <VdW6>
-10.008

> <VdW12>
10.687

> <Bond>
0.201

> <Angle>
3.198

> <Pdih>
6.039

> <Idih>
0.006

> <Tether>
0.000

$$$$
VeraChem MOL file


 25 24  0  0  0  0  0  0  0  0999 V2000     
   17.5456   19.2589   25.4181 C   0  0  0  0  0  0  0  0  0  0  0  0
   17.8929   18.9470   26.5405 O   0  5  0  0  0  0  0  0  0  0  0  0
   17.3822   20.4095   25.0621 O   0  0  0  0  0  0  0  0  0  0  0  0
   17.2332   18.1455   24.4201 C   0  0  0  0  0  0  0  0  0  0  0  0
   16.8883   18.5949   23.4810 H   0  0  0  0  0  0  0  0  0  0  0  0
   16.3827   17.5911   24.8335 H   0  0  0  0  0  0  0  0  0  0  0  0
   18.3987   17.1536   24.1465 C   0  0  0  0  0  0  0  0  0  0  0  0
   18.8766   16.8668   25.0936 H   0  0  0  0  0  0  0  0  0  0  0  0
   17.9688   16.2309   23.7339 H   0  0  0  0  0  0  0  0  0  0  0  0
   19.4657   17.6648   23.1469 C   0  0  0  0  0  0  0  0  0  0  0  0
   18.9830   17.9383   22.1987 H   0  0  0  0  0  0  0  0  0  0  0  0
   20.1461   16.8332   22.9181 H   0  0  0  0  0  0  0  0  0  0  0  0
   20.2979   18.8579   23.6689 C   0  0  0  0  0  0  0  0  0  0  0  0
   19.6556   19.7408   23.7786 H   0  0  0  0  0  0  0  0  0  0  0  0
   20.6950   18.6226   24.6659 H   0  0  0  0  0  0  0  0  0  0  0  0
   21.4631   19.2022   22.7157 C   0  0  0  0  0  0  0  0  0  0  0  0
   21.0645   19.4324   21.7181 H   0  0  0  0  0  0  0  0  0  0  0  0
   22.1184   18.3274   22.6046 H   0  0  0  0  0  0  0  0  0  0  0  0
   22.2878   20.4007   23.2302 C   0  0  0  0  0  0  0  0  0  0  0  0
   21.6359   21.2783   23.3409 H   0  0  0  0  0  0  0  0  0  0  0  0
   22.6886   20.1733   24.2278 H   0  0  0  0  0  0  0  0  0  0  0  0
   23.4502   20.7423   22.2763 C   0  0  0  0  0  0  0  0  0  0  0  0
   23.0751   21.0047   21.2784 H   0  0  0  0  0  0  0  0  0  0  0  0
   24.0253   21.5961   22.6575 H   0  0  0  0  0  0  0  0  0  0  0  0
   24.1359   19.8912   22.1721 H   0  0  0  0  0  0  0  0  0  0  0  0
  1  2  1  0  0  0  0
  1  3  2  0  0  0  0
  1  4  1  0  0  0  0
  4  5  1  0  0  0  0
  4  6  1  0  0  0  0
  4  7  1  0  0  0  0
  7  8  1  0  0  0  0
  7  9  1  0  0  0  0
  7 10  1  0  0  0  0
 10 11  1  0  0  0  0
 10 12  1  0  0  0  0
 10 13  1  0  0  0  0
 13 14  1  0  0  0  0
 13 15  1  0  0  0  0
 13 16  1  0  0  0  0
 16 17  1  0  0  0  0
 16 18  1  0  0  0  0
 16 19  1  0  0  0  0
 19 20  1  0  0  0  0
 19 21  1  0  0  0  0
 19 22  1  0  0  0  0
 22 23  1  0  0  0  0
 22 24  1  0  0  0  0
 22 25  1  0  0  0  0
M  END
> <VConfSearch Rank>
235

> <Conf_Id>
9

> <Delta U+W>
1.764

> <U+W>
-49.865

> <U>
10.902

> <W>
-60.768

> <W(PB)>
-63.223

> <W(SA)>
2.456

> <Valence>
9.445

> <Coulomb>
0.778

> <VdW>
0.679

> <VdW6>
-10.007

> <VdW12>
10.687

> <Bond>
0.201

> <Angle>
3.198

> <Pdih>
6.040

> <Idih>
0.006

> <Tether>
0.000

$$$$
VeraChem MOL file


 25 24  0  0  0  0  0  0  0  0999 V2000     
   16.8252   20.6781   24.5608 C   0  0  0  0  0  0  0  0  0  0  0  0
   17.3985   21.6904   24.9116 O   0  5  0  0  0  0  0  0  0  0  0  0
   15.6205   20.6008   24.4206 O   0  0  0  0  0  0  0  0  0  0  0  0
   17.6652   19.4422   24.2600 C   0  0  0  0  0  0  0  0  0  0  0  0
   17.0750   18.5585   24.5303 H   0  0  0  0  0  0  0  0  0  0  0  0
   18.5354   19.4595   24.9233 H   0  0  0  0  0  0  0  0  0  0  0  0
   18.0970   19.3583   22.7720 C   0  0  0  0  0  0  0  0  0  0  0  0
   17.1865   19.3369   22.1571 H   0  0  0  0  0  0  0  0  0  0  0  0
   18.6389   20.2696   22.4833 H   0  0  0  0  0  0  0  0  0  0  0  0
   18.9453   18.1032   22.4444 C   0  0  0  0  0  0  0  0  0  0  0  0
   18.6854   17.7711   21.4299 H   0  0  0  0  0  0  0  0  0  0  0  0
   18.6707   17.2730   23.1093 H   0  0  0  0  0  0  0  0  0  0  0  0
   20.4775   18.3310   22.4804 C   0  0  0  0  0  0  0  0  0  0  0  0
   20.9714   17.4063   22.1527 H   0  0  0  0  0  0  0  0  0  0  0  0
   20.7424   19.1009   21.7438 H   0  0  0  0  0  0  0  0  0  0  0  0
   21.0281   18.7282   23.8705 C   0  0  0  0  0  0  0  0  0  0  0  0
   20.6299   18.0372   24.6258 H   0  0  0  0  0  0  0  0  0  0  0  0
   20.6724   19.7319   24.1376 H   0  0  0  0  0  0  0  0  0  0  0  0
   22.5725   18.7049   23.9462 C   0  0  0  0  0  0  0  0  0  0  0  0
   22.8780   18.9002   24.9833 H   0  0  0  0  0  0  0  0  0  0  0  0
   22.9413   17.7000   23.6982 H   0  0  0  0  0  0  0  0  0  0  0  0
   23.2435   19.7463   23.0244 C   0  0  0  0  0  0  0  0  0  0  0  0
   22.8710   20.7568   23.2372 H   0  0  0  0  0  0  0  0  0  0  0  0
   24.3309   19.7480   23.1743 H   0  0  0  0  0  0  0  0  0  0  0  0
   23.0540   19.5251   21.9666 H   0  0  0  0  0  0  0  0  0  0  0  0
  1  2  1  0  0  0  0
  1  3  2  0  0  0  0
  1  4  1  0  0  0  0
  4  5  1  0  0  0  0
  4  6  1  0  0  0  0
  4  7  1  0  0  0  0
  7  8  1  0  0  0  0
  7  9  1  0  0  0  0
  7 10  1  0  0  0  0
 10 11  1  0  0  0  0
 10 12  1  0  0  0  0
 10 13  1  0  0  0  0
 13 14  1  0  0  0  0
 13 15  1  0  0  0  0
 13 16  1  0  0  0  0
 16 17  1  0  0  0  0
 16 18  1  0  0  0  0
 16 19  1  0  0  0  0
 19 20  1  0  0  0  0
 19 21  1  0  0  0  0
 19 22  1  0  0  0  0
 22 23  1  0  0  0  0
 22 24  1  0  0  0  0
 22 25  1  0  0  0  0
M  END
> <VConfSearch Rank>
236

> <Conf_Id>
89

> <Delta U+W>
2.903

> <U+W>
-48.726

> <U>
10.996

> <W>
-59.723

> <W(PB)>
-62.151

> <W(SA)>
2.428

> <Valence>
10.985

> <Coulomb>
-0.995

> <VdW>
1.006

> <VdW6>
-10.062

> <VdW12>
11.069

> <Bond>
0.238

> <Angle>
3.202

> <Pdih>
7.544

> <Idih>
0.001

> <Tether>
0.000

$$$$
VeraChem MOL file


 25 24  0  0  0  0  0  0  0  0999 V2000     
   19.7895   21.8468   25.4820 C   0  0  0  0  0  0  0  0  0  0  0  0
   19.5748   21.2988   26.5455 O   0  5  0  0  0  0  0  0  0  0  0  0
   20.7821   22.5120   25.2589 O   0  0  0  0  0  0  0  0  0  0  0  0
   18.7239   21.7459   24.3922 C   0  0  0  0  0  0  0  0  0  0  0  0
   18.3511   22.7642   24.2320 H   0  0  0  0  0  0  0  0  0  0  0  0
   17.8790   21.1590   24.7723 H   0  0  0  0  0  0  0  0  0  0  0  0
   19.2149   21.1681   23.0348 C   0  0  0  0  0  0  0  0  0  0  0  0
   18.5132   21.4946   22.2554 H   0  0  0  0  0  0  0  0  0  0  0  0
   20.1863   21.6077   22.7690 H   0  0  0  0  0  0  0  0  0  0  0  0
   19.2971   19.6222   22.9752 C   0  0  0  0  0  0  0  0  0  0  0  0
   19.4853   19.3397   21.9320 H   0  0  0  0  0  0  0  0  0  0  0  0
   18.3231   19.1900   23.2415 H   0  0  0  0  0  0  0  0  0  0  0  0
   20.3994   19.0148   23.8764 C   0  0  0  0  0  0  0  0  0  0  0  0
   21.3658   19.4883   23.6557 H   0  0  0  0  0  0  0  0  0  0  0  0
   20.1737   19.2412   24.9256 H   0  0  0  0  0  0  0  0  0  0  0  0
   20.5297   17.4783   23.7433 C   0  0  0  0  0  0  0  0  0  0  0  0
   19.5551   17.0082   23.9324 H   0  0  0  0  0  0  0  0  0  0  0  0
   21.2051   17.1194   24.5320 H   0  0  0  0  0  0  0  0  0  0  0  0
   21.0762   17.0179   22.3726 C   0  0  0  0  0  0  0  0  0  0  0  0
   20.3768   17.2925   21.5726 H   0  0  0  0  0  0  0  0  0  0  0  0
   22.0240   17.5314   22.1603 H   0  0  0  0  0  0  0  0  0  0  0  0
   21.3016   15.4928   22.3377 C   0  0  0  0  0  0  0  0  0  0  0  0
   20.3632   14.9531   22.5206 H   0  0  0  0  0  0  0  0  0  0  0  0
   21.6865   15.1810   21.3580 H   0  0  0  0  0  0  0  0  0  0  0  0
   22.0286   15.1849   23.1006 H   0  0  0  0  0  0  0  0  0  0  0  0
  1  2  1  0  0  0  0
  1  3  2  0  0  0  0
  1  4  1  0  0  0  0
  4  5  1  0  0  0  0
  4  6  1  0  0  0  0
  4  7  1  0  0  0  0
  7  8  1  0  0  0  0
  7  9  1  0  0  0  0
  7 10  1  0  0  0  0
 10 11  1  0  0  0  0
 10 12  1  0  0  0  0
 10 13  1  0  0  0  0
 13 14  1  0  0  0  0
 13 15  1  0  0  0  0
 13 16  1  0  0  0  0
 16 17  1  0  0  0  0
 16 18  1  0  0  0  0
 16 19  1  0  0  0  0
 19 20  1  0  0  0  0
 19 21  1  0  0  0  0
 19 22  1  0  0  0  0
 22 23  1  0  0  0  0
 22 24  1  0  0  0  0
 22 25  1  0  0  0  0
M  END
> <VConfSearch Rank>
237

> <Conf_Id>
114

> <Delta U+W>
2.758

> <U+W>
-48.871

> <U>
11.422

> <W>
-60.293

> <W(PB)>
-62.719

> <W(SA)>
2.425

> <Valence>
10.135

> <Coulomb>
0.369

> <VdW>
0.918

> <VdW6>
-10.482

> <VdW12>
11.400

> <Bond>
0.245

> <Angle>
3.539

> <Pdih>
6.346

> <Idih>
0.006

> <Tether>
0.000

$$$$
VeraChem MOL file


 25 24  0  0  0  0  0  0  0  0999 V2000     
   21.6625   22.6216   23.4211 C   0  0  0  0  0  0  0  0  0  0  0  0
   21.3320   23.1022   24.4874 O   0  5  0  0  0  0  0  0  0  0  0  0
   22.8193   22.4534   23.0886 O   0  0  0  0  0  0  0  0  0  0  0  0
   20.5666   22.2261   22.4354 C   0  0  0  0  0  0  0  0  0  0  0  0
   20.8629   22.5989   21.4479 H   0  0  0  0  0  0  0  0  0  0  0  0
   19.6435   22.7513   22.7091 H   0  0  0  0  0  0  0  0  0  0  0  0
   20.3120   20.6983   22.3576 C   0  0  0  0  0  0  0  0  0  0  0  0
   19.6083   20.4952   21.5391 H   0  0  0  0  0  0  0  0  0  0  0  0
   21.2530   20.1946   22.1003 H   0  0  0  0  0  0  0  0  0  0  0  0
   19.7403   20.1258   23.6769 C   0  0  0  0  0  0  0  0  0  0  0  0
   18.8531   20.7076   23.9618 H   0  0  0  0  0  0  0  0  0  0  0  0
   20.4693   20.2574   24.4885 H   0  0  0  0  0  0  0  0  0  0  0  0
   19.3381   18.6346   23.5820 C   0  0  0  0  0  0  0  0  0  0  0  0
   18.8142   18.3656   24.5080 H   0  0  0  0  0  0  0  0  0  0  0  0
   18.6163   18.4991   22.7652 H   0  0  0  0  0  0  0  0  0  0  0  0
   20.5430   17.6830   23.3787 C   0  0  0  0  0  0  0  0  0  0  0  0
   21.2661   17.8215   24.1939 H   0  0  0  0  0  0  0  0  0  0  0  0
   21.0652   17.9479   22.4507 H   0  0  0  0  0  0  0  0  0  0  0  0
   20.1406   16.1920   23.2917 C   0  0  0  0  0  0  0  0  0  0  0  0
   19.4084   16.0516   22.4846 H   0  0  0  0  0  0  0  0  0  0  0  0
   21.0263   15.6050   23.0119 H   0  0  0  0  0  0  0  0  0  0  0  0
   19.5726   15.6307   24.6135 C   0  0  0  0  0  0  0  0  0  0  0  0
   19.3945   14.5510   24.5263 H   0  0  0  0  0  0  0  0  0  0  0  0
   20.2742   15.7913   25.4424 H   0  0  0  0  0  0  0  0  0  0  0  0
   18.6176   16.1037   24.8735 H   0  0  0  0  0  0  0  0  0  0  0  0
  1  2  1  0  0  0  0
  1  3  2  0  0  0  0
  1  4  1  0  0  0  0
  4  5  1  0  0  0  0
  4  6  1  0  0  0  0
  4  7  1  0  0  0  0
  7  8  1  0  0  0  0
  7  9  1  0  0  0  0
  7 10  1  0  0  0  0
 10 11  1  0  0  0  0
 10 12  1  0  0  0  0
 10 13  1  0  0  0  0
 13 14  1  0  0  0  0
 13 15  1  0  0  0  0
 13 16  1  0  0  0  0
 16 17  1  0  0  0  0
 16 18  1  0  0  0  0
 16 19  1  0  0  0  0
 19 20  1  0  0  0  0
 19 21  1  0  0  0  0
 19 22  1  0  0  0  0
 22 23  1  0  0  0  0
 22 24  1  0  0  0  0
 22 25  1  0  0  0  0
M  END
> <VConfSearch Rank>
238

> <Conf_Id>
87

> <Delta U+W>
1.453

> <U+W>
-50.176

> <U>
9.763

> <W>
-59.940

> <W(PB)>
-62.392

> <W(SA)>
2.452

> <Valence>
8.883

> <Coulomb>
-0.122

> <VdW>
1.003

> <VdW6>
-9.782

> <VdW12>
10.785

> <Bond>
0.212

> <Angle>
2.940

> <Pdih>
5.730

> <Idih>
0.001

> <Tether>
0.000

$$$$
VeraChem MOL file


 25 24  0  0  0  0  0  0  0  0999 V2000     
   23.7613   18.6707   24.6979 C   0  0  0  0  0  0  0  0  0  0  0  0
   24.2880   18.0444   23.7995 O   0  5  0  0  0  0  0  0  0  0  0  0
   24.3500   19.4747   25.3933 O   0  0  0  0  0  0  0  0  0  0  0  0
   22.2750   18.4489   24.9549 C   0  0  0  0  0  0  0  0  0  0  0  0
   22.0920   18.5782   26.0284 H   0  0  0  0  0  0  0  0  0  0  0  0
   22.0384   17.4069   24.7084 H   0  0  0  0  0  0  0  0  0  0  0  0
   21.3740   19.4081   24.1388 C   0  0  0  0  0  0  0  0  0  0  0  0
   21.6280   20.4472   24.3896 H   0  0  0  0  0  0  0  0  0  0  0  0
   21.5892   19.2744   23.0704 H   0  0  0  0  0  0  0  0  0  0  0  0
   19.8731   19.1573   24.4126 C   0  0  0  0  0  0  0  0  0  0  0  0
   19.6906   19.2267   25.4936 H   0  0  0  0  0  0  0  0  0  0  0  0
   19.6091   18.1312   24.1248 H   0  0  0  0  0  0  0  0  0  0  0  0
   18.9388   20.1632   23.6946 C   0  0  0  0  0  0  0  0  0  0  0  0
   17.9014   19.9544   23.9871 H   0  0  0  0  0  0  0  0  0  0  0  0
   19.1542   21.1740   24.0666 H   0  0  0  0  0  0  0  0  0  0  0  0
   19.0410   20.1737   22.1463 C   0  0  0  0  0  0  0  0  0  0  0  0
   20.0318   20.5420   21.8500 H   0  0  0  0  0  0  0  0  0  0  0  0
   18.3231   20.9065   21.7535 H   0  0  0  0  0  0  0  0  0  0  0  0
   18.7866   18.8094   21.4593 C   0  0  0  0  0  0  0  0  0  0  0  0
   18.9103   18.9348   20.3750 H   0  0  0  0  0  0  0  0  0  0  0  0
   19.5486   18.0822   21.7698 H   0  0  0  0  0  0  0  0  0  0  0  0
   17.3785   18.2398   21.7365 C   0  0  0  0  0  0  0  0  0  0  0  0
   16.6004   18.9584   21.4482 H   0  0  0  0  0  0  0  0  0  0  0  0
   17.2172   17.3177   21.1634 H   0  0  0  0  0  0  0  0  0  0  0  0
   17.2483   17.9986   22.7989 H   0  0  0  0  0  0  0  0  0  0  0  0
  1  2  1  0  0  0  0
  1  3  2  0  0  0  0
  1  4  1  0  0  0  0
  4  5  1  0  0  0  0
  4  6  1  0  0  0  0
  4  7  1  0  0  0  0
  7  8  1  0  0  0  0
  7  9  1  0  0  0  0
  7 10  1  0  0  0  0
 10 11  1  0  0  0  0
 10 12  1  0  0  0  0
 10 13  1  0  0  0  0
 13 14  1  0  0  0  0
 13 15  1  0  0  0  0
 13 16  1  0  0  0  0
 16 17  1  0  0  0  0
 16 18  1  0  0  0  0
 16 19  1  0  0  0  0
 19 20  1  0  0  0  0
 19 21  1  0  0  0  0
 19 22  1  0  0  0  0
 22 23  1  0  0  0  0
 22 24  1  0  0  0  0
 22 25  1  0  0  0  0
M  END
> <VConfSearch Rank>
239

> <Conf_Id>
29

> <Delta U+W>
0.850

> <U+W>
-50.780

> <U>
8.646

> <W>
-59.426

> <W(PB)>
-61.868

> <W(SA)>
2.442

> <Valence>
8.924

> <Coulomb>
-1.171

> <VdW>
0.894

> <VdW6>
-10.223

> <VdW12>
11.117

> <Bond>
0.231

> <Angle>
3.232

> <Pdih>
5.461

> <Idih>
0.001

> <Tether>
0.000

$$$$
VeraChem MOL file


 25 24  0  0  0  0  0  0  0  0999 V2000     
   21.1187   22.0610   25.8062 C   0  0  0  0  0  0  0  0  0  0  0  0
   20.1960   22.0889   26.5965 O   0  5  0  0  0  0  0  0  0  0  0  0
   21.7650   23.0405   25.4909 O   0  0  0  0  0  0  0  0  0  0  0  0
   21.4731   20.7263   25.1602 C   0  0  0  0  0  0  0  0  0  0  0  0
   21.2548   19.9299   25.8817 H   0  0  0  0  0  0  0  0  0  0  0  0
   22.5544   20.7124   24.9785 H   0  0  0  0  0  0  0  0  0  0  0  0
   20.7049   20.4749   23.8394 C   0  0  0  0  0  0  0  0  0  0  0  0
   19.6265   20.5133   24.0430 H   0  0  0  0  0  0  0  0  0  0  0  0
   20.9264   21.2841   23.1300 H   0  0  0  0  0  0  0  0  0  0  0  0
   21.0771   19.1127   23.2097 C   0  0  0  0  0  0  0  0  0  0  0  0
   20.8190   18.3003   23.9017 H   0  0  0  0  0  0  0  0  0  0  0  0
   22.1666   19.0657   23.0778 H   0  0  0  0  0  0  0  0  0  0  0  0
   20.4083   18.8659   21.8341 C   0  0  0  0  0  0  0  0  0  0  0  0
   20.7537   19.6344   21.1295 H   0  0  0  0  0  0  0  0  0  0  0  0
   20.7689   17.9105   21.4310 H   0  0  0  0  0  0  0  0  0  0  0  0
   18.8566   18.8640   21.8424 C   0  0  0  0  0  0  0  0  0  0  0  0
   18.5018   18.6610   20.8229 H   0  0  0  0  0  0  0  0  0  0  0  0
   18.4933   19.8706   22.0873 H   0  0  0  0  0  0  0  0  0  0  0  0
   18.2036   17.8457   22.8093 C   0  0  0  0  0  0  0  0  0  0  0  0
   18.4733   18.0834   23.8468 H   0  0  0  0  0  0  0  0  0  0  0  0
   17.1121   17.9538   22.7468 H   0  0  0  0  0  0  0  0  0  0  0  0
   18.5768   16.3806   22.4957 C   0  0  0  0  0  0  0  0  0  0  0  0
   19.6482   16.2008   22.6496 H   0  0  0  0  0  0  0  0  0  0  0  0
   18.0262   15.6948   23.1524 H   0  0  0  0  0  0  0  0  0  0  0  0
   18.3302   16.1263   21.4568 H   0  0  0  0  0  0  0  0  0  0  0  0
  1  2  1  0  0  0  0
  1  3  2  0  0  0  0
  1  4  1  0  0  0  0
  4  5  1  0  0  0  0
  4  6  1  0  0  0  0
  4  7  1  0  0  0  0
  7  8  1  0  0  0  0
  7  9  1  0  0  0  0
  7 10  1  0  0  0  0
 10 11  1  0  0  0  0
 10 12  1  0  0  0  0
 10 13  1  0  0  0  0
 13 14  1  0  0  0  0
 13 15  1  0  0  0  0
 13 16  1  0  0  0  0
 16 17  1  0  0  0  0
 16 18  1  0  0  0  0
 16 19  1  0  0  0  0
 19 20  1  0  0  0  0
 19 21  1  0  0  0  0
 19 22  1  0  0  0  0
 22 23  1  0  0  0  0
 22 24  1  0  0  0  0
 22 25  1  0  0  0  0
M  END
> <VConfSearch Rank>
240

> <Conf_Id>
30

> <Delta U+W>
0.843

> <U+W>
-50.787

> <U>
8.647

> <W>
-59.434

> <W(PB)>
-61.861

> <W(SA)>
2.428

> <Valence>
8.924

> <Coulomb>
-1.170

> <VdW>
0.894

> <VdW6>
-10.224

> <VdW12>
11.118

> <Bond>
0.231

> <Angle>
3.232

> <Pdih>
5.460

> <Idih>
0.000

> <Tether>
0.000

$$$$
VeraChem MOL file


 25 24  0  0  0  0  0  0  0  0999 V2000     
   23.9674   21.7980   23.4014 C   0  0  0  0  0  0  0  0  0  0  0  0
   24.0466   21.9435   22.1967 O   0  5  0  0  0  0  0  0  0  0  0  0
   24.7643   22.2795   24.1819 O   0  0  0  0  0  0  0  0  0  0  0  0
   22.8216   20.9750   23.9923 C   0  0  0  0  0  0  0  0  0  0  0  0
   22.2818   21.6224   24.6933 H   0  0  0  0  0  0  0  0  0  0  0  0
   23.2700   20.1668   24.5820 H   0  0  0  0  0  0  0  0  0  0  0  0
   21.8301   20.3811   22.9567 C   0  0  0  0  0  0  0  0  0  0  0  0
   21.3895   21.1957   22.3652 H   0  0  0  0  0  0  0  0  0  0  0  0
   22.3785   19.7387   22.2538 H   0  0  0  0  0  0  0  0  0  0  0  0
   20.7078   19.5673   23.6371 C   0  0  0  0  0  0  0  0  0  0  0  0
   20.1610   20.2115   24.3393 H   0  0  0  0  0  0  0  0  0  0  0  0
   21.1507   18.7536   24.2278 H   0  0  0  0  0  0  0  0  0  0  0  0
   19.7227   18.9775   22.6051 C   0  0  0  0  0  0  0  0  0  0  0  0
   19.2797   19.7910   22.0142 H   0  0  0  0  0  0  0  0  0  0  0  0
   20.2692   18.3332   21.9028 H   0  0  0  0  0  0  0  0  0  0  0  0
   18.6003   18.1637   23.2847 C   0  0  0  0  0  0  0  0  0  0  0  0
   18.0536   18.8078   23.9871 H   0  0  0  0  0  0  0  0  0  0  0  0
   19.0431   17.3501   23.8756 H   0  0  0  0  0  0  0  0  0  0  0  0
   17.6155   17.5741   22.2533 C   0  0  0  0  0  0  0  0  0  0  0  0
   17.1691   18.3854   21.6615 H   0  0  0  0  0  0  0  0  0  0  0  0
   18.1586   16.9276   21.5500 H   0  0  0  0  0  0  0  0  0  0  0  0
   16.4963   16.7623   22.9359 C   0  0  0  0  0  0  0  0  0  0  0  0
   15.9162   17.3930   23.6222 H   0  0  0  0  0  0  0  0  0  0  0  0
   15.8058   16.3508   22.1882 H   0  0  0  0  0  0  0  0  0  0  0  0
   16.9131   15.9242   23.5098 H   0  0  0  0  0  0  0  0  0  0  0  0
  1  2  1  0  0  0  0
  1  3  2  0  0  0  0
  1  4  1  0  0  0  0
  4  5  1  0  0  0  0
  4  6  1  0  0  0  0
  4  7  1  0  0  0  0
  7  8  1  0  0  0  0
  7  9  1  0  0  0  0
  7 10  1  0  0  0  0
 10 11  1  0  0  0  0
 10 12  1  0  0  0  0
 10 13  1  0  0  0  0
 13 14  1  0  0  0  0
 13 15  1  0  0  0  0
 13 16  1  0  0  0  0
 16 17  1  0  0  0  0
 16 18  1  0  0  0  0
 16 19  1  0  0  0  0
 19 20  1  0  0  0  0
 19 21  1  0  0  0  0
 19 22  1  0  0  0  0
 22 23  1  0  0  0  0
 22 24  1  0  0  0  0
 22 25  1  0  0  0  0
M  END
> <VConfSearch Rank>
241

> <Conf_Id>
0

> <Delta U+W>
0.000

> <U+W>
-51.629

> <U>
6.586

> <W>
-58.216

> <W(PB)>
-60.757

> <W(SA)>
2.541

> <Valence>
8.027

> <Coulomb>
-2.892

> <VdW>
1.451

> <VdW6>
-7.931

> <VdW12>
9.383

> <Bond>
0.149

> <Angle>
2.726

> <Pdih>
5.152

> <Idih>
0.000

> <Tether>
0.000

$$$$
VeraChem MOL file


 25 24  0  0  0  0  0  0  0  0999 V2000     
   16.1583   21.6274   23.1376 C   0  0  0  0  0  0  0  0  0  0  0  0
   16.3154   22.8250   23.2705 O   0  5  0  0  0  0  0  0  0  0  0  0
   15.2572   21.1343   22.4883 O   0  0  0  0  0  0  0  0  0  0  0  0
   17.1610   20.6918   23.8034 C   0  0  0  0  0  0  0  0  0  0  0  0
   16.6338   19.7725   24.0855 H   0  0  0  0  0  0  0  0  0  0  0  0
   17.5054   21.1656   24.7305 H   0  0  0  0  0  0  0  0  0  0  0  0
   18.3684   20.3580   22.8930 C   0  0  0  0  0  0  0  0  0  0  0  0
   18.0057   19.8965   21.9639 H   0  0  0  0  0  0  0  0  0  0  0  0
   18.8771   21.2897   22.6088 H   0  0  0  0  0  0  0  0  0  0  0  0
   19.3687   19.4100   23.5892 C   0  0  0  0  0  0  0  0  0  0  0  0
   18.8568   18.4802   23.8729 H   0  0  0  0  0  0  0  0  0  0  0  0
   19.7283   19.8736   24.5181 H   0  0  0  0  0  0  0  0  0  0  0  0
   20.5713   19.0792   22.6793 C   0  0  0  0  0  0  0  0  0  0  0  0
   20.2119   18.6156   21.7503 H   0  0  0  0  0  0  0  0  0  0  0  0
   21.0833   20.0090   22.3955 H   0  0  0  0  0  0  0  0  0  0  0  0
   21.5721   18.1314   23.3749 C   0  0  0  0  0  0  0  0  0  0  0  0
   21.0603   17.2015   23.6587 H   0  0  0  0  0  0  0  0  0  0  0  0
   21.9316   18.5948   24.3039 H   0  0  0  0  0  0  0  0  0  0  0  0
   22.7742   17.8007   22.4656 C   0  0  0  0  0  0  0  0  0  0  0  0
   22.4185   17.3352   21.5359 H   0  0  0  0  0  0  0  0  0  0  0  0
   23.2898   18.7284   22.1811 H   0  0  0  0  0  0  0  0  0  0  0  0
   23.7712   16.8540   23.1637 C   0  0  0  0  0  0  0  0  0  0  0  0
   24.6189   16.6296   22.5034 H   0  0  0  0  0  0  0  0  0  0  0  0
   24.1673   17.3081   24.0814 H   0  0  0  0  0  0  0  0  0  0  0  0
   23.2895   15.9043   23.4314 H   0  0  0  0  0  0  0  0  0  0  0  0
  1  2  1  0  0  0  0
  1  3  2  0  0  0  0
  1  4  1  0  0  0  0
  4  5  1  0  0  0  0
  4  6  1  0  0  0  0
  4  7  1  0  0  0  0
  7  8  1  0  0  0  0
  7  9  1  0  0  0  0
  7 10  1  0  0  0  0
 10 11  1  0  0  0  0
 10 12  1  0  0  0  0
 10 13  1  0  0  0  0
 13 14  1  0  0  0  0
 13 15  1  0  0  0  0
 13 16  1  0  0  0  0
 16 17  1  0  0  0  0
 16 18  1  0  0  0  0
 16 19  1  0  0  0  0
 19 20  1  0  0  0  0
 19 21  1  0  0  0  0
 19 22  1  0  0  0  0
 22 23  1  0  0  0  0
 22 24  1  0  0  0  0
 22 25  1  0  0  0  0
M  END
> <VConfSearch Rank>
242

> <Conf_Id>
27

> <Delta U+W>
-1.297

> <U+W>
-52.926

> <U>
5.617

> <W>
-58.543

> <W(PB)>
-61.065

> <W(SA)>
2.522

> <Valence>
7.531

> <Coulomb>
-2.818

> <VdW>
0.904

> <VdW6>
-7.640

> <VdW12>
8.544

> <Bond>
0.115

> <Angle>
2.271

> <Pdih>
5.144

> <Idih>
0.001

> <Tether>
0.000

$$$$
VeraChem MOL file


 25 24  0  0  0  0  0  0  0  0999 V2000     
   20.4360   19.8387   27.2927 C   0  0  0  0  0  0  0  0  0  0  0  0
   19.4506   20.3950   27.7362 O   0  5  0  0  0  0  0  0  0  0  0  0
   20.7604   18.7061   27.5907 O   0  0  0  0  0  0  0  0  0  0  0  0
   21.3224   20.6130   26.3212 C   0  0  0  0  0  0  0  0  0  0  0  0
   22.3083   20.1337   26.2887 H   0  0  0  0  0  0  0  0  0  0  0  0
   21.4703   21.6153   26.7401 H   0  0  0  0  0  0  0  0  0  0  0  0
   20.7364   20.7307   24.8902 C   0  0  0  0  0  0  0  0  0  0  0  0
   19.7380   21.1870   24.9421 H   0  0  0  0  0  0  0  0  0  0  0  0
   21.3655   21.4128   24.3025 H   0  0  0  0  0  0  0  0  0  0  0  0
   20.6517   19.3669   24.1687 C   0  0  0  0  0  0  0  0  0  0  0  0
   20.0093   18.6840   24.7420 H   0  0  0  0  0  0  0  0  0  0  0  0
   21.6496   18.9088   24.1314 H   0  0  0  0  0  0  0  0  0  0  0  0
   20.0960   19.5117   22.7356 C   0  0  0  0  0  0  0  0  0  0  0  0
   19.0981   19.9698   22.7740 H   0  0  0  0  0  0  0  0  0  0  0  0
   20.7385   20.1917   22.1595 H   0  0  0  0  0  0  0  0  0  0  0  0
   20.0102   18.1492   22.0144 C   0  0  0  0  0  0  0  0  0  0  0  0
   19.3678   17.4690   22.5904 H   0  0  0  0  0  0  0  0  0  0  0  0
   21.0079   17.6907   21.9762 H   0  0  0  0  0  0  0  0  0  0  0  0
   19.4544   18.2934   20.5820 C   0  0  0  0  0  0  0  0  0  0  0  0
   18.4555   18.7500   20.6165 H   0  0  0  0  0  0  0  0  0  0  0  0
   20.0957   18.9717   20.0023 H   0  0  0  0  0  0  0  0  0  0  0  0
   19.3702   16.9306   19.8655 C   0  0  0  0  0  0  0  0  0  0  0  0
   18.7091   16.2419   20.4077 H   0  0  0  0  0  0  0  0  0  0  0  0
   18.9732   17.0518   18.8492 H   0  0  0  0  0  0  0  0  0  0  0  0
   20.3616   16.4652   19.7888 H   0  0  0  0  0  0  0  0  0  0  0  0
  1  2  1  0  0  0  0
  1  3  2  0  0  0  0
  1  4  1  0  0  0  0
  4  5  1  0  0  0  0
  4  6  1  0  0  0  0
  4  7  1  0  0  0  0
  7  8  1  0  0  0  0
  7  9  1  0  0  0  0
  7 10  1  0  0  0  0
 10 11  1  0  0  0  0
 10 12  1  0  0  0  0
 10 13  1  0  0  0  0
 13 14  1  0  0  0  0
 13 15  1  0  0  0  0
 13 16  1  0  0  0  0
 16 17  1  0  0  0  0
 16 18  1  0  0  0  0
 16 19  1  0  0  0  0
 19 20  1  0  0  0  0
 19 21  1  0  0  0  0
 19 22  1  0  0  0  0
 22 23  1  0  0  0  0
 22 24  1  0  0  0  0
 22 25  1  0  0  0  0
M  END
> <VConfSearch Rank>
243

> <Conf_Id>
37

> <Delta U+W>
-0.230

> <U+W>
-51.860

> <U>
7.816

> <W>
-59.675

> <W(PB)>
-62.180

> <W(SA)>
2.505

> <Valence>
7.785

> <Coulomb>
-0.713

> <VdW>
0.744

> <VdW6>
-8.514

> <VdW12>
9.259

> <Bond>
0.136

> <Angle>
2.433

> <Pdih>
5.216

> <Idih>
0.000

> <Tether>
0.000

$$$$
VeraChem MOL file


 25 24  0  0  0  0  0  0  0  0999 V2000     
   20.6724   16.2196   25.7937 C   0  0  0  0  0  0  0  0  0  0  0  0
   21.3699   15.3548   25.3012 O   0  5  0  0  0  0  0  0  0  0  0  0
   19.5017   16.0590   26.0777 O   0  0  0  0  0  0  0  0  0  0  0  0
   21.3080   17.5759   26.0858 C   0  0  0  0  0  0  0  0  0  0  0  0
   22.2734   17.3881   26.5702 H   0  0  0  0  0  0  0  0  0  0  0  0
   20.6839   18.1050   26.8161 H   0  0  0  0  0  0  0  0  0  0  0  0
   21.5223   18.4558   24.8269 C   0  0  0  0  0  0  0  0  0  0  0  0
   22.1039   19.3443   25.1079 H   0  0  0  0  0  0  0  0  0  0  0  0
   22.1253   17.9018   24.0941 H   0  0  0  0  0  0  0  0  0  0  0  0
   20.1917   18.9016   24.1799 C   0  0  0  0  0  0  0  0  0  0  0  0
   19.5870   19.4432   24.9202 H   0  0  0  0  0  0  0  0  0  0  0  0
   19.6115   18.0179   23.8801 H   0  0  0  0  0  0  0  0  0  0  0  0
   20.4283   19.8018   22.9481 C   0  0  0  0  0  0  0  0  0  0  0  0
   21.0059   20.6876   23.2461 H   0  0  0  0  0  0  0  0  0  0  0  0
   21.0330   19.2593   22.2084 H   0  0  0  0  0  0  0  0  0  0  0  0
   19.0992   20.2470   22.3007 C   0  0  0  0  0  0  0  0  0  0  0  0
   18.4942   20.7893   23.0403 H   0  0  0  0  0  0  0  0  0  0  0  0
   18.5214   19.3613   22.0028 H   0  0  0  0  0  0  0  0  0  0  0  0
   19.3351   21.1464   21.0691 C   0  0  0  0  0  0  0  0  0  0  0  0
   19.9114   22.0344   21.3637 H   0  0  0  0  0  0  0  0  0  0  0  0
   19.9385   20.6064   20.3262 H   0  0  0  0  0  0  0  0  0  0  0  0
   18.0056   21.5887   20.4255 C   0  0  0  0  0  0  0  0  0  0  0  0
   17.3950   22.1591   21.1378 H   0  0  0  0  0  0  0  0  0  0  0  0
   18.1920   22.2269   19.5520 H   0  0  0  0  0  0  0  0  0  0  0  0
   17.4223   20.7203   20.0925 H   0  0  0  0  0  0  0  0  0  0  0  0
  1  2  1  0  0  0  0
  1  3  2  0  0  0  0
  1  4  1  0  0  0  0
  4  5  1  0  0  0  0
  4  6  1  0  0  0  0
  4  7  1  0  0  0  0
  7  8  1  0  0  0  0
  7  9  1  0  0  0  0
  7 10  1  0  0  0  0
 10 11  1  0  0  0  0
 10 12  1  0  0  0  0
 10 13  1  0  0  0  0
 13 14  1  0  0  0  0
 13 15  1  0  0  0  0
 13 16  1  0  0  0  0
 16 17  1  0  0  0  0
 16 18  1  0  0  0  0
 16 19  1  0  0  0  0
 19 20  1  0  0  0  0
 19 21  1  0  0  0  0
 19 22  1  0  0  0  0
 22 23  1  0  0  0  0
 22 24  1  0  0  0  0
 22 25  1  0  0  0  0
M  END
> <VConfSearch Rank>
244

> <Conf_Id>
54

> <Delta U+W>
-0.224

> <U+W>
-51.854

> <U>
7.816

> <W>
-59.670

> <W(PB)>
-62.157

> <W(SA)>
2.487

> <Valence>
7.785

> <Coulomb>
-0.713

> <VdW>
0.744

> <VdW6>
-8.515

> <VdW12>
9.259

> <Bond>
0.136

> <Angle>
2.433

> <Pdih>
5.215

> <Idih>
0.000

> <Tether>
0.000

$$$$
VeraChem MOL file


 25 24  0  0  0  0  0  0  0  0999 V2000     
   18.4588   22.2303   25.3099 C   0  0  0  0  0  0  0  0  0  0  0  0
   19.3807   22.9898   25.5339 O   0  5  0  0  0  0  0  0  0  0  0  0
   17.4075   22.5779   24.8087 O   0  0  0  0  0  0  0  0  0  0  0  0
   18.6209   20.7625   25.6954 C   0  0  0  0  0  0  0  0  0  0  0  0
   17.7051   20.4582   26.2156 H   0  0  0  0  0  0  0  0  0  0  0  0
   19.4402   20.6787   26.4196 H   0  0  0  0  0  0  0  0  0  0  0  0
   18.8711   19.8165   24.4920 C   0  0  0  0  0  0  0  0  0  0  0  0
   18.8167   18.7804   24.8487 H   0  0  0  0  0  0  0  0  0  0  0  0
   18.0641   19.9422   23.7568 H   0  0  0  0  0  0  0  0  0  0  0  0
   20.2409   20.0657   23.8156 C   0  0  0  0  0  0  0  0  0  0  0  0
   21.0492   19.8952   24.5397 H   0  0  0  0  0  0  0  0  0  0  0  0
   20.3088   21.1217   23.5205 H   0  0  0  0  0  0  0  0  0  0  0  0
   20.4787   19.1954   22.5582 C   0  0  0  0  0  0  0  0  0  0  0  0
   19.6603   19.3521   21.8425 H   0  0  0  0  0  0  0  0  0  0  0  0
   21.3931   19.5527   22.0680 H   0  0  0  0  0  0  0  0  0  0  0  0
   20.6203   17.6847   22.8690 C   0  0  0  0  0  0  0  0  0  0  0  0
   19.7042   17.3233   23.3527 H   0  0  0  0  0  0  0  0  0  0  0  0
   21.4355   17.5292   23.5887 H   0  0  0  0  0  0  0  0  0  0  0  0
   20.8689   16.8195   21.6112 C   0  0  0  0  0  0  0  0  0  0  0  0
   20.8188   15.7601   21.8982 H   0  0  0  0  0  0  0  0  0  0  0  0
   20.0618   16.9819   20.8835 H   0  0  0  0  0  0  0  0  0  0  0  0
   22.2349   17.0863   20.9419 C   0  0  0  0  0  0  0  0  0  0  0  0
   22.2881   18.1006   20.5274 H   0  0  0  0  0  0  0  0  0  0  0  0
   23.0554   16.9637   21.6607 H   0  0  0  0  0  0  0  0  0  0  0  0
   22.4012   16.3821   20.1164 H   0  0  0  0  0  0  0  0  0  0  0  0
  1  2  1  0  0  0  0
  1  3  2  0  0  0  0
  1  4  1  0  0  0  0
  4  5  1  0  0  0  0
  4  6  1  0  0  0  0
  4  7  1  0  0  0  0
  7  8  1  0  0  0  0
  7  9  1  0  0  0  0
  7 10  1  0  0  0  0
 10 11  1  0  0  0  0
 10 12  1  0  0  0  0
 10 13  1  0  0  0  0
 13 14  1  0  0  0  0
 13 15  1  0  0  0  0
 13 16  1  0  0  0  0
 16 17  1  0  0  0  0
 16 18  1  0  0  0  0
 16 19  1  0  0  0  0
 19 20  1  0  0  0  0
 19 21  1  0  0  0  0
 19 22  1  0  0  0  0
 22 23  1  0  0  0  0
 22 24  1  0  0  0  0
 22 25  1  0  0  0  0
M  END
> <VConfSearch Rank>
245

> <Conf_Id>
101

> <Delta U+W>
1.534

> <U+W>
-50.095

> <U>
9.416

> <W>
-59.512

> <W(PB)>
-61.988

> <W(SA)>
2.476

> <Valence>
8.939

> <Coulomb>
-0.615

> <VdW>
1.092

> <VdW6>
-9.710

> <VdW12>
10.802

> <Bond>
0.216

> <Angle>
2.979

> <Pdih>
5.743

> <Idih>
0.000

> <Tether>
0.000

$$$$
VeraChem MOL file


 25 24  0  0  0  0  0  0  0  0999 V2000     
   19.4749   18.2656   19.2312 C   0  0  0  0  0  0  0  0  0  0  0  0
   18.2942   18.0137   19.0919 O   0  5  0  0  0  0  0  0  0  0  0  0
   20.2069   18.5876   18.3162 O   0  0  0  0  0  0  0  0  0  0  0  0
   20.0654   18.1958   20.6350 C   0  0  0  0  0  0  0  0  0  0  0  0
   21.1154   17.8922   20.5473 H   0  0  0  0  0  0  0  0  0  0  0  0
   19.5407   17.4013   21.1770 H   0  0  0  0  0  0  0  0  0  0  0  0
   19.9595   19.5425   21.3971 C   0  0  0  0  0  0  0  0  0  0  0  0
   20.4093   20.3318   20.7789 H   0  0  0  0  0  0  0  0  0  0  0  0
   18.9017   19.8121   21.5222 H   0  0  0  0  0  0  0  0  0  0  0  0
   20.6634   19.5334   22.7752 C   0  0  0  0  0  0  0  0  0  0  0  0
   20.6564   20.5591   23.1655 H   0  0  0  0  0  0  0  0  0  0  0  0
   21.7182   19.2541   22.6488 H   0  0  0  0  0  0  0  0  0  0  0  0
   19.9917   18.5901   23.8033 C   0  0  0  0  0  0  0  0  0  0  0  0
   18.9378   18.8696   23.9302 H   0  0  0  0  0  0  0  0  0  0  0  0
   19.9897   17.5652   23.4117 H   0  0  0  0  0  0  0  0  0  0  0  0
   20.7031   18.5687   25.1802 C   0  0  0  0  0  0  0  0  0  0  0  0
   21.7301   18.2035   25.0439 H   0  0  0  0  0  0  0  0  0  0  0  0
   20.2025   17.8308   25.8217 H   0  0  0  0  0  0  0  0  0  0  0  0
   20.7514   19.9250   25.9270 C   0  0  0  0  0  0  0  0  0  0  0  0
   21.2800   19.7801   26.8792 H   0  0  0  0  0  0  0  0  0  0  0  0
   21.3474   20.6508   25.3584 H   0  0  0  0  0  0  0  0  0  0  0  0
   19.3542   20.5132   26.2199 C   0  0  0  0  0  0  0  0  0  0  0  0
   18.7319   19.7938   26.7677 H   0  0  0  0  0  0  0  0  0  0  0  0
   19.4399   21.4212   26.8307 H   0  0  0  0  0  0  0  0  0  0  0  0
   18.8337   20.7842   25.2927 H   0  0  0  0  0  0  0  0  0  0  0  0
  1  2  1  0  0  0  0
  1  3  2  0  0  0  0
  1  4  1  0  0  0  0
  4  5  1  0  0  0  0
  4  6  1  0  0  0  0
  4  7  1  0  0  0  0
  7  8  1  0  0  0  0
  7  9  1  0  0  0  0
  7 10  1  0  0  0  0
 10 11  1  0  0  0  0
 10 12  1  0  0  0  0
 10 13  1  0  0  0  0
 13 14  1  0  0  0  0
 13 15  1  0  0  0  0
 13 16  1  0  0  0  0
 16 17  1  0  0  0  0
 16 18  1  0  0  0  0
 16 19  1  0  0  0  0
 19 20  1  0  0  0  0
 19 21  1  0  0  0  0
 19 22  1  0  0  0  0
 22 23  1  0  0  0  0
 22 24  1  0  0  0  0
 22 25  1  0  0  0  0
M  END
> <VConfSearch Rank>
246

> <Conf_Id>
75

> <Delta U+W>
1.014

> <U+W>
-50.615

> <U>
8.474

> <W>
-59.089

> <W(PB)>
-61.530

> <W(SA)>
2.441

> <Valence>
9.080

> <Coulomb>
-1.772

> <VdW>
1.165

> <VdW6>
-9.830

> <VdW12>
10.996

> <Bond>
0.240

> <Angle>
3.225

> <Pdih>
5.615

> <Idih>
0.001

> <Tether>
0.000

$$$$
VeraChem MOL file


 25 24  0  0  0  0  0  0  0  0999 V2000     
   21.8548   22.2889   25.5483 C   0  0  0  0  0  0  0  0  0  0  0  0
   22.9563   21.9214   25.9065 O   0  5  0  0  0  0  0  0  0  0  0  0
   21.5465   23.4561   25.4095 O   0  0  0  0  0  0  0  0  0  0  0  0
   20.8080   21.2258   25.2350 C   0  0  0  0  0  0  0  0  0  0  0  0
   19.8220   21.6333   25.4889 H   0  0  0  0  0  0  0  0  0  0  0  0
   20.9847   20.3686   25.8958 H   0  0  0  0  0  0  0  0  0  0  0  0
   20.8344   20.7735   23.7542 C   0  0  0  0  0  0  0  0  0  0  0  0
   20.6690   21.6448   23.1054 H   0  0  0  0  0  0  0  0  0  0  0  0
   21.8318   20.3805   23.5128 H   0  0  0  0  0  0  0  0  0  0  0  0
   19.7671   19.6964   23.4629 C   0  0  0  0  0  0  0  0  0  0  0  0
   18.7721   20.0934   23.7060 H   0  0  0  0  0  0  0  0  0  0  0  0
   19.9318   18.8355   24.1216 H   0  0  0  0  0  0  0  0  0  0  0  0
   19.7936   19.2524   21.9813 C   0  0  0  0  0  0  0  0  0  0  0  0
   19.5940   20.1338   21.3567 H   0  0  0  0  0  0  0  0  0  0  0  0
   20.7975   18.9023   21.7048 H   0  0  0  0  0  0  0  0  0  0  0  0
   18.7409   18.1650   21.6470 C   0  0  0  0  0  0  0  0  0  0  0  0
   18.3636   18.3556   20.6330 H   0  0  0  0  0  0  0  0  0  0  0  0
   17.8711   18.2594   22.3114 H   0  0  0  0  0  0  0  0  0  0  0  0
   19.2789   16.7129   21.6780 C   0  0  0  0  0  0  0  0  0  0  0  0
   18.4774   16.0373   21.3487 H   0  0  0  0  0  0  0  0  0  0  0  0
   20.0911   16.6056   20.9459 H   0  0  0  0  0  0  0  0  0  0  0  0
   19.7752   16.2518   23.0641 C   0  0  0  0  0  0  0  0  0  0  0  0
   19.0057   16.4095   23.8309 H   0  0  0  0  0  0  0  0  0  0  0  0
   20.0226   15.1826   23.0470 H   0  0  0  0  0  0  0  0  0  0  0  0
   20.6808   16.7954   23.3608 H   0  0  0  0  0  0  0  0  0  0  0  0
  1  2  1  0  0  0  0
  1  3  2  0  0  0  0
  1  4  1  0  0  0  0
  4  5  1  0  0  0  0
  4  6  1  0  0  0  0
  4  7  1  0  0  0  0
  7  8  1  0  0  0  0
  7  9  1  0  0  0  0
  7 10  1  0  0  0  0
 10 11  1  0  0  0  0
 10 12  1  0  0  0  0
 10 13  1  0  0  0  0
 13 14  1  0  0  0  0
 13 15  1  0  0  0  0
 13 16  1  0  0  0  0
 16 17  1  0  0  0  0
 16 18  1  0  0  0  0
 16 19  1  0  0  0  0
 19 20  1  0  0  0  0
 19 21  1  0  0  0  0
 19 22  1  0  0  0  0
 22 23  1  0  0  0  0
 22 24  1  0  0  0  0
 22 25  1  0  0  0  0
M  END
> <VConfSearch Rank>
247

> <Conf_Id>
125

> <Delta U+W>
2.314

> <U+W>
-49.315

> <U>
9.740

> <W>
-59.054

> <W(PB)>
-61.488

> <W(SA)>
2.433

> <Valence>
10.506

> <Coulomb>
-1.761

> <VdW>
0.994

> <VdW6>
-9.209

> <VdW12>
10.203

> <Bond>
0.193

> <Angle>
2.979

> <Pdih>
7.334

> <Idih>
0.001

> <Tether>
0.000

$$$$
VeraChem MOL file


 25 24  0  0  0  0  0  0  0  0999 V2000     
   20.2910   23.2189   23.0699 C   0  0  0  0  0  0  0  0  0  0  0  0
   19.7117   23.5104   22.0422 O   0  5  0  0  0  0  0  0  0  0  0  0
   20.9030   24.0202   23.7481 O   0  0  0  0  0  0  0  0  0  0  0  0
   20.2692   21.7628   23.5206 C   0  0  0  0  0  0  0  0  0  0  0  0
   19.3067   21.3352   23.2182 H   0  0  0  0  0  0  0  0  0  0  0  0
   20.3037   21.7454   24.6165 H   0  0  0  0  0  0  0  0  0  0  0  0
   21.4435   20.9362   22.9350 C   0  0  0  0  0  0  0  0  0  0  0  0
   21.3712   20.9220   21.8387 H   0  0  0  0  0  0  0  0  0  0  0  0
   22.3873   21.4443   23.1769 H   0  0  0  0  0  0  0  0  0  0  0  0
   21.5088   19.4871   23.4735 C   0  0  0  0  0  0  0  0  0  0  0  0
   21.5907   19.5049   24.5689 H   0  0  0  0  0  0  0  0  0  0  0  0
   22.4298   19.0185   23.1005 H   0  0  0  0  0  0  0  0  0  0  0  0
   20.2981   18.6205   23.0560 C   0  0  0  0  0  0  0  0  0  0  0  0
   19.3798   19.0430   23.4813 H   0  0  0  0  0  0  0  0  0  0  0  0
   20.1889   18.6448   21.9632 H   0  0  0  0  0  0  0  0  0  0  0  0
   20.4569   17.1560   23.5263 C   0  0  0  0  0  0  0  0  0  0  0  0
   20.5192   17.1243   24.6227 H   0  0  0  0  0  0  0  0  0  0  0  0
   21.4097   16.7602   23.1490 H   0  0  0  0  0  0  0  0  0  0  0  0
   19.3163   16.2284   23.0461 C   0  0  0  0  0  0  0  0  0  0  0  0
   19.2546   16.2535   21.9493 H   0  0  0  0  0  0  0  0  0  0  0  0
   19.5653   15.1937   23.3191 H   0  0  0  0  0  0  0  0  0  0  0  0
   17.9414   16.5849   23.6520 C   0  0  0  0  0  0  0  0  0  0  0  0
   17.5955   17.5683   23.3102 H   0  0  0  0  0  0  0  0  0  0  0  0
   17.1871   15.8456   23.3532 H   0  0  0  0  0  0  0  0  0  0  0  0
   17.9866   16.5972   24.7488 H   0  0  0  0  0  0  0  0  0  0  0  0
  1  2  1  0  0  0  0
  1  3  2  0  0  0  0
  1  4  1  0  0  0  0
  4  5  1  0  0  0  0
  4  6  1  0  0  0  0
  4  7  1  0  0  0  0
  7  8  1  0  0  0  0
  7  9  1  0  0  0  0
  7 10  1  0  0  0  0
 10 11  1  0  0  0  0
 10 12  1  0  0  0  0
 10 13  1  0  0  0  0
 13 14  1  0  0  0  0
 13 15  1  0  0  0  0
 13 16  1  0  0  0  0
 16 17  1  0  0  0  0
 16 18  1  0  0  0  0
 16 19  1  0  0  0  0
 19 20  1  0  0  0  0
 19 21  1  0  0  0  0
 19 22  1  0  0  0  0
 22 23  1  0  0  0  0
 22 24  1  0  0  0  0
 22 25  1  0  0  0  0
M  END
> <VConfSearch Rank>
248

> <Conf_Id>
4

> <Delta U+W>
0.189

> <U+W>
-51.441

> <U>
7.701

> <W>
-59.141

> <W(PB)>
-61.609

> <W(SA)>
2.467

> <Valence>
8.550

> <Coulomb>
-1.988

> <VdW>
1.139

> <VdW6>
-8.988

> <VdW12>
10.127

> <Bond>
0.191

> <Angle>
2.738

> <Pdih>
5.621

> <Idih>
0.001

> <Tether>
0.000

$$$$
VeraChem MOL file


 25 24  0  0  0  0  0  0  0  0999 V2000     
   23.7196   20.8802   23.9014 C   0  0  0  0  0  0  0  0  0  0  0  0
   24.4944   19.9449   23.9395 O   0  5  0  0  0  0  0  0  0  0  0  0
   24.0691   22.0441   23.8970 O   0  0  0  0  0  0  0  0  0  0  0  0
   22.2272   20.5767   23.8317 C   0  0  0  0  0  0  0  0  0  0  0  0
   21.6915   21.3847   24.3441 H   0  0  0  0  0  0  0  0  0  0  0  0
   22.0480   19.6563   24.3985 H   0  0  0  0  0  0  0  0  0  0  0  0
   21.7123   20.4321   22.3759 C   0  0  0  0  0  0  0  0  0  0  0  0
   21.9922   21.3327   21.8119 H   0  0  0  0  0  0  0  0  0  0  0  0
   22.2225   19.5900   21.8883 H   0  0  0  0  0  0  0  0  0  0  0  0
   20.1798   20.2425   22.2780 C   0  0  0  0  0  0  0  0  0  0  0  0
   19.8931   20.2681   21.2178 H   0  0  0  0  0  0  0  0  0  0  0  0
   19.6726   21.0909   22.7577 H   0  0  0  0  0  0  0  0  0  0  0  0
   19.6826   18.9181   22.9024 C   0  0  0  0  0  0  0  0  0  0  0  0
   20.2271   18.0749   22.4562 H   0  0  0  0  0  0  0  0  0  0  0  0
   19.9038   18.9126   23.9765 H   0  0  0  0  0  0  0  0  0  0  0  0
   18.1637   18.7226   22.6885 C   0  0  0  0  0  0  0  0  0  0  0  0
   17.9414   18.7928   21.6150 H   0  0  0  0  0  0  0  0  0  0  0  0
   17.6135   19.5402   23.1742 H   0  0  0  0  0  0  0  0  0  0  0  0
   17.6386   17.3646   23.2099 C   0  0  0  0  0  0  0  0  0  0  0  0
   16.5859   17.2569   22.9142 H   0  0  0  0  0  0  0  0  0  0  0  0
   18.1832   16.5443   22.7223 H   0  0  0  0  0  0  0  0  0  0  0  0
   17.7412   17.2168   24.7436 C   0  0  0  0  0  0  0  0  0  0  0  0
   17.2304   18.0441   25.2532 H   0  0  0  0  0  0  0  0  0  0  0  0
   17.2745   16.2787   25.0708 H   0  0  0  0  0  0  0  0  0  0  0  0
   18.7868   17.2004   25.0757 H   0  0  0  0  0  0  0  0  0  0  0  0
  1  2  1  0  0  0  0
  1  3  2  0  0  0  0
  1  4  1  0  0  0  0
  4  5  1  0  0  0  0
  4  6  1  0  0  0  0
  4  7  1  0  0  0  0
  7  8  1  0  0  0  0
  7  9  1  0  0  0  0
  7 10  1  0  0  0  0
 10 11  1  0  0  0  0
 10 12  1  0  0  0  0
 10 13  1  0  0  0  0
 13 14  1  0  0  0  0
 13 15  1  0  0  0  0
 13 16  1  0  0  0  0
 16 17  1  0  0  0  0
 16 18  1  0  0  0  0
 16 19  1  0  0  0  0
 19 20  1  0  0  0  0
 19 21  1  0  0  0  0
 19 22  1  0  0  0  0
 22 23  1  0  0  0  0
 22 24  1  0  0  0  0
 22 25  1  0  0  0  0
M  END
> <VConfSearch Rank>
249

> <Conf_Id>
17

> <Delta U+W>
0.219

> <U+W>
-51.411

> <U>
7.701

> <W>
-59.111

> <W(PB)>
-61.599

> <W(SA)>
2.488

> <Valence>
8.550

> <Coulomb>
-1.988

> <VdW>
1.139

> <VdW6>
-8.988

> <VdW12>
10.127

> <Bond>
0.191

> <Angle>
2.738

> <Pdih>
5.621

> <Idih>
0.001

> <Tether>
0.000

$$$$
VeraChem MOL file


 25 24  0  0  0  0  0  0  0  0999 V2000     
   16.4774   19.7071   22.0222 C   0  0  0  0  0  0  0  0  0  0  0  0
   16.0724   18.6425   21.5984 O   0  5  0  0  0  0  0  0  0  0  0  0
   16.6656   20.6824   21.3219 O   0  0  0  0  0  0  0  0  0  0  0  0
   16.7465   19.8344   23.5190 C   0  0  0  0  0  0  0  0  0  0  0  0
   16.2066   19.0351   24.0409 H   0  0  0  0  0  0  0  0  0  0  0  0
   16.3087   20.7828   23.8519 H   0  0  0  0  0  0  0  0  0  0  0  0
   18.2511   19.7986   23.8929 C   0  0  0  0  0  0  0  0  0  0  0  0
   18.7726   20.5941   23.3443 H   0  0  0  0  0  0  0  0  0  0  0  0
   18.3586   20.0263   24.9619 H   0  0  0  0  0  0  0  0  0  0  0  0
   18.9027   18.4271   23.5944 C   0  0  0  0  0  0  0  0  0  0  0  0
   18.8632   18.2220   22.5157 H   0  0  0  0  0  0  0  0  0  0  0  0
   18.3127   17.6382   24.0807 H   0  0  0  0  0  0  0  0  0  0  0  0
   20.3658   18.3201   24.0860 C   0  0  0  0  0  0  0  0  0  0  0  0
   20.4066   18.5161   25.1662 H   0  0  0  0  0  0  0  0  0  0  0  0
   20.7049   17.2847   23.9452 H   0  0  0  0  0  0  0  0  0  0  0  0
   21.3351   19.2710   23.3463 C   0  0  0  0  0  0  0  0  0  0  0  0
   21.0554   20.3150   23.5382 H   0  0  0  0  0  0  0  0  0  0  0  0
   21.2514   19.1103   22.2627 H   0  0  0  0  0  0  0  0  0  0  0  0
   22.7974   19.0514   23.7880 C   0  0  0  0  0  0  0  0  0  0  0  0
   22.8843   19.2097   24.8720 H   0  0  0  0  0  0  0  0  0  0  0  0
   23.0917   18.0109   23.5926 H   0  0  0  0  0  0  0  0  0  0  0  0
   23.7623   20.0029   23.0523 C   0  0  0  0  0  0  0  0  0  0  0  0
   23.5110   21.0520   23.2561 H   0  0  0  0  0  0  0  0  0  0  0  0
   24.7968   19.8328   23.3780 H   0  0  0  0  0  0  0  0  0  0  0  0
   23.7184   19.8445   21.9667 H   0  0  0  0  0  0  0  0  0  0  0  0
  1  2  1  0  0  0  0
  1  3  2  0  0  0  0
  1  4  1  0  0  0  0
  4  5  1  0  0  0  0
  4  6  1  0  0  0  0
  4  7  1  0  0  0  0
  7  8  1  0  0  0  0
  7  9  1  0  0  0  0
  7 10  1  0  0  0  0
 10 11  1  0  0  0  0
 10 12  1  0  0  0  0
 10 13  1  0  0  0  0
 13 14  1  0  0  0  0
 13 15  1  0  0  0  0
 13 16  1  0  0  0  0
 16 17  1  0  0  0  0
 16 18  1  0  0  0  0
 16 19  1  0  0  0  0
 19 20  1  0  0  0  0
 19 21  1  0  0  0  0
 19 22  1  0  0  0  0
 22 23  1  0  0  0  0
 22 24  1  0  0  0  0
 22 25  1  0  0  0  0
M  END
> <VConfSearch Rank>
250

> <Conf_Id>
142

> <Delta U+W>
0.593

> <U+W>
-51.037

> <U>
8.903

> <W>
-59.940

> <W(PB)>
-62.418

> <W(SA)>
2.478

> <Valence>
8.305

> <Coulomb>
-0.223

> <VdW>
0.821

> <VdW6>
-9.236

> <VdW12>
10.057

> <Bond>
0.173

> <Angle>
2.663

> <Pdih>
5.469

> <Idih>
0.001

> <Tether>
0.000

$$$$
VeraChem MOL file


 25 24  0  0  0  0  0  0  0  0999 V2000     
   17.4223   20.5822   21.8549 C   0  0  0  0  0  0  0  0  0  0  0  0
   17.1542   21.4536   21.0510 O   0  5  0  0  0  0  0  0  0  0  0  0
   16.9028   19.4835   21.8533 O   0  0  0  0  0  0  0  0  0  0  0  0
   18.4472   20.8973   22.9409 C   0  0  0  0  0  0  0  0  0  0  0  0
   18.3707   20.1377   23.7274 H   0  0  0  0  0  0  0  0  0  0  0  0
   18.1550   21.8492   23.3990 H   0  0  0  0  0  0  0  0  0  0  0  0
   19.9076   21.0025   22.4229 C   0  0  0  0  0  0  0  0  0  0  0  0
   19.9624   21.8173   21.6879 H   0  0  0  0  0  0  0  0  0  0  0  0
   20.5643   21.3000   23.2506 H   0  0  0  0  0  0  0  0  0  0  0  0
   20.4496   19.7063   21.7667 C   0  0  0  0  0  0  0  0  0  0  0  0
   21.4799   19.8855   21.4304 H   0  0  0  0  0  0  0  0  0  0  0  0
   19.8686   19.4955   20.8583 H   0  0  0  0  0  0  0  0  0  0  0  0
   20.4285   18.4480   22.6704 C   0  0  0  0  0  0  0  0  0  0  0  0
   19.3922   18.1882   22.9247 H   0  0  0  0  0  0  0  0  0  0  0  0
   20.8194   17.6006   22.0910 H   0  0  0  0  0  0  0  0  0  0  0  0
   21.2635   18.6009   23.9627 C   0  0  0  0  0  0  0  0  0  0  0  0
   20.8406   19.3978   24.5882 H   0  0  0  0  0  0  0  0  0  0  0  0
   22.2874   18.9037   23.7046 H   0  0  0  0  0  0  0  0  0  0  0  0
   21.3023   17.2895   24.7752 C   0  0  0  0  0  0  0  0  0  0  0  0
   20.2787   16.9835   25.0322 H   0  0  0  0  0  0  0  0  0  0  0  0
   21.7315   16.4855   24.1613 H   0  0  0  0  0  0  0  0  0  0  0  0
   22.1303   17.4454   26.0666 C   0  0  0  0  0  0  0  0  0  0  0  0
   21.7041   18.2221   26.7150 H   0  0  0  0  0  0  0  0  0  0  0  0
   22.1473   16.5042   26.6313 H   0  0  0  0  0  0  0  0  0  0  0  0
   23.1677   17.7218   25.8370 H   0  0  0  0  0  0  0  0  0  0  0  0
  1  2  1  0  0  0  0
  1  3  2  0  0  0  0
  1  4  1  0  0  0  0
  4  5  1  0  0  0  0
  4  6  1  0  0  0  0
  4  7  1  0  0  0  0
  7  8  1  0  0  0  0
  7  9  1  0  0  0  0
  7 10  1  0  0  0  0
 10 11  1  0  0  0  0
 10 12  1  0  0  0  0
 10 13  1  0  0  0  0
 13 14  1  0  0  0  0
 13 15  1  0  0  0  0
 13 16  1  0  0  0  0
 16 17  1  0  0  0  0
 16 18  1  0  0  0  0
 16 19  1  0  0  0  0
 19 20  1  0  0  0  0
 19 21  1  0  0  0  0
 19 22  1  0  0  0  0
 22 23  1  0  0  0  0
 22 24  1  0  0  0  0
 22 25  1  0  0  0  0
M  END
> <VConfSearch Rank>
251

> <Conf_Id>
135

> <Delta U+W>
1.314

> <U+W>
-50.316

> <U>
9.773

> <W>
-60.088

> <W(PB)>
-62.535

> <W(SA)>
2.447

> <Valence>
8.741

> <Coulomb>
0.479

> <VdW>
0.552

> <VdW6>
-10.627

> <VdW12>
11.179

> <Bond>
0.227

> <Angle>
3.155

> <Pdih>
5.358

> <Idih>
0.001

> <Tether>
0.000

$$$$
VeraChem MOL file


 25 24  0  0  0  0  0  0  0  0999 V2000     
   18.0753   17.3886   20.0321 C   0  0  0  0  0  0  0  0  0  0  0  0
   17.7423   18.1729   19.1656 O   0  5  0  0  0  0  0  0  0  0  0  0
   18.1716   16.1904   19.8544 O   0  0  0  0  0  0  0  0  0  0  0  0
   18.4127   17.9410   21.4124 C   0  0  0  0  0  0  0  0  0  0  0  0
   18.1450   17.1818   22.1569 H   0  0  0  0  0  0  0  0  0  0  0  0
   17.7697   18.8104   21.5884 H   0  0  0  0  0  0  0  0  0  0  0  0
   19.9086   18.3256   21.5544 C   0  0  0  0  0  0  0  0  0  0  0  0
   20.5212   17.4570   21.2758 H   0  0  0  0  0  0  0  0  0  0  0  0
   20.1544   19.1207   20.8370 H   0  0  0  0  0  0  0  0  0  0  0  0
   20.3032   18.7691   22.9836 C   0  0  0  0  0  0  0  0  0  0  0  0
   21.3957   18.8662   23.0160 H   0  0  0  0  0  0  0  0  0  0  0  0
   20.0336   17.9834   23.7022 H   0  0  0  0  0  0  0  0  0  0  0  0
   19.6657   20.1130   23.4104 C   0  0  0  0  0  0  0  0  0  0  0  0
   19.9882   20.9045   22.7205 H   0  0  0  0  0  0  0  0  0  0  0  0
   18.5746   20.0479   23.3166 H   0  0  0  0  0  0  0  0  0  0  0  0
   19.9899   20.5357   24.8656 C   0  0  0  0  0  0  0  0  0  0  0  0
   19.5880   19.7952   25.5706 H   0  0  0  0  0  0  0  0  0  0  0  0
   19.4432   21.4668   25.0682 H   0  0  0  0  0  0  0  0  0  0  0  0
   21.4918   20.7876   25.1501 C   0  0  0  0  0  0  0  0  0  0  0  0
   22.0109   21.0812   24.2272 H   0  0  0  0  0  0  0  0  0  0  0  0
   21.5815   21.6419   25.8352 H   0  0  0  0  0  0  0  0  0  0  0  0
   22.1983   19.5773   25.8008 C   0  0  0  0  0  0  0  0  0  0  0  0
   22.1540   18.6873   25.1628 H   0  0  0  0  0  0  0  0  0  0  0  0
   23.2559   19.8045   25.9871 H   0  0  0  0  0  0  0  0  0  0  0  0
   21.7343   19.3265   26.7636 H   0  0  0  0  0  0  0  0  0  0  0  0
  1  2  1  0  0  0  0
  1  3  2  0  0  0  0
  1  4  1  0  0  0  0
  4  5  1  0  0  0  0
  4  6  1  0  0  0  0
  4  7  1  0  0  0  0
  7  8  1  0  0  0  0
  7  9  1  0  0  0  0
  7 10  1  0  0  0  0
 10 11  1  0  0  0  0
 10 12  1  0  0  0  0
 10 13  1  0  0  0  0
 13 14  1  0  0  0  0
 13 15  1  0  0  0  0
 13 16  1  0  0  0  0
 16 17  1  0  0  0  0
 16 18  1  0  0  0  0
 16 19  1  0  0  0  0
 19 20  1  0  0  0  0
 19 21  1  0  0  0  0
 19 22  1  0  0  0  0
 22 23  1  0  0  0  0
 22 24  1  0  0  0  0
 22 25  1  0  0  0  0
M  END
> <VConfSearch Rank>
252

> <Conf_Id>
19

> <Delta U+W>
3.222

> <U+W>
-48.407

> <U>
10.617

> <W>
-59.025

> <W(PB)>
-61.462

> <W(SA)>
2.437

> <Valence>
11.188

> <Coulomb>
-1.778

> <VdW>
1.208

> <VdW6>
-9.786

> <VdW12>
10.993

> <Bond>
0.241

> <Angle>
3.294

> <Pdih>
7.653

> <Idih>
0.001

> <Tether>
0.000

$$$$
VeraChem MOL file


 25 24  0  0  0  0  0  0  0  0999 V2000     
   18.7829   19.2367   27.2625 C   0  0  0  0  0  0  0  0  0  0  0  0
   19.6294   18.8723   28.0546 O   0  5  0  0  0  0  0  0  0  0  0  0
   17.5930   19.2527   27.5090 O   0  0  0  0  0  0  0  0  0  0  0  0
   19.2365   19.6759   25.8749 C   0  0  0  0  0  0  0  0  0  0  0  0
   20.2189   20.1490   25.9811 H   0  0  0  0  0  0  0  0  0  0  0  0
   18.5413   20.4450   25.5179 H   0  0  0  0  0  0  0  0  0  0  0  0
   19.2985   18.5003   24.8649 C   0  0  0  0  0  0  0  0  0  0  0  0
   20.0330   17.7584   25.2076 H   0  0  0  0  0  0  0  0  0  0  0  0
   18.3244   17.9919   24.8595 H   0  0  0  0  0  0  0  0  0  0  0  0
   19.6331   18.9400   23.4194 C   0  0  0  0  0  0  0  0  0  0  0  0
   18.9126   19.7001   23.0880 H   0  0  0  0  0  0  0  0  0  0  0  0
   19.4994   18.0703   22.7638 H   0  0  0  0  0  0  0  0  0  0  0  0
   21.0754   19.4763   23.2561 C   0  0  0  0  0  0  0  0  0  0  0  0
   21.2408   20.3042   23.9567 H   0  0  0  0  0  0  0  0  0  0  0  0
   21.7901   18.6897   23.5335 H   0  0  0  0  0  0  0  0  0  0  0  0
   21.4040   19.9908   21.8317 C   0  0  0  0  0  0  0  0  0  0  0  0
   22.4263   20.3923   21.8537 H   0  0  0  0  0  0  0  0  0  0  0  0
   20.7556   20.8413   21.5803 H   0  0  0  0  0  0  0  0  0  0  0  0
   21.3332   18.9146   20.7195 C   0  0  0  0  0  0  0  0  0  0  0  0
   22.1419   19.0998   19.9990 H   0  0  0  0  0  0  0  0  0  0  0  0
   21.5225   17.9176   21.1407 H   0  0  0  0  0  0  0  0  0  0  0  0
   19.9946   18.9255   19.9480 C   0  0  0  0  0  0  0  0  0  0  0  0
   19.8351   19.8946   19.4576 H   0  0  0  0  0  0  0  0  0  0  0  0
   19.9934   18.1514   19.1698 H   0  0  0  0  0  0  0  0  0  0  0  0
   19.1409   18.7373   20.6091 H   0  0  0  0  0  0  0  0  0  0  0  0
  1  2  1  0  0  0  0
  1  3  2  0  0  0  0
  1  4  1  0  0  0  0
  4  5  1  0  0  0  0
  4  6  1  0  0  0  0
  4  7  1  0  0  0  0
  7  8  1  0  0  0  0
  7  9  1  0  0  0  0
  7 10  1  0  0  0  0
 10 11  1  0  0  0  0
 10 12  1  0  0  0  0
 10 13  1  0  0  0  0
 13 14  1  0  0  0  0
 13 15  1  0  0  0  0
 13 16  1  0  0  0  0
 16 17  1  0  0  0  0
 16 18  1  0  0  0  0
 16 19  1  0  0  0  0
 19 20  1  0  0  0  0
 19 21  1  0  0  0  0
 19 22  1  0  0  0  0
 22 23  1  0  0  0  0
 22 24  1  0  0  0  0
 22 25  1  0  0  0  0
M  END
> <VConfSearch Rank>
253

> <Conf_Id>
20

> <Delta U+W>
3.224

> <U+W>
-48.406

> <U>
10.617

> <W>
-59.023

> <W(PB)>
-61.467

> <W(SA)>
2.444

> <Valence>
11.188

> <Coulomb>
-1.778

> <VdW>
1.208

> <VdW6>
-9.786

> <VdW12>
10.993

> <Bond>
0.241

> <Angle>
3.294

> <Pdih>
7.653

> <Idih>
0.001

> <Tether>
0.000

$$$$
VeraChem MOL file


 25 24  0  0  0  0  0  0  0  0999 V2000     
   20.3142   20.2057   26.5997 C   0  0  0  0  0  0  0  0  0  0  0  0
   19.6381   19.4607   27.2819 O   0  5  0  0  0  0  0  0  0  0  0  0
   19.9851   21.3415   26.3190 O   0  0  0  0  0  0  0  0  0  0  0  0
   21.6797   19.7136   26.1238 C   0  0  0  0  0  0  0  0  0  0  0  0
   22.2766   19.5408   27.0268 H   0  0  0  0  0  0  0  0  0  0  0  0
   22.1757   20.5194   25.5693 H   0  0  0  0  0  0  0  0  0  0  0  0
   21.6568   18.4108   25.2756 C   0  0  0  0  0  0  0  0  0  0  0  0
   22.6608   17.9666   25.3092 H   0  0  0  0  0  0  0  0  0  0  0  0
   20.9852   17.6744   25.7384 H   0  0  0  0  0  0  0  0  0  0  0  0
   21.2796   18.6115   23.7868 C   0  0  0  0  0  0  0  0  0  0  0  0
   21.4439   17.6608   23.2613 H   0  0  0  0  0  0  0  0  0  0  0  0
   21.9619   19.3398   23.3275 H   0  0  0  0  0  0  0  0  0  0  0  0
   19.8168   19.0568   23.5617 C   0  0  0  0  0  0  0  0  0  0  0  0
   19.1391   18.3871   24.1088 H   0  0  0  0  0  0  0  0  0  0  0  0
   19.6679   20.0658   23.9664 H   0  0  0  0  0  0  0  0  0  0  0  0
   19.4445   19.0587   22.0631 C   0  0  0  0  0  0  0  0  0  0  0  0
   19.5817   18.0506   21.6485 H   0  0  0  0  0  0  0  0  0  0  0  0
   20.1262   19.7250   21.5170 H   0  0  0  0  0  0  0  0  0  0  0  0
   17.9875   19.5140   21.8364 C   0  0  0  0  0  0  0  0  0  0  0  0
   17.3029   18.8490   22.3808 H   0  0  0  0  0  0  0  0  0  0  0  0
   17.8468   20.5230   22.2485 H   0  0  0  0  0  0  0  0  0  0  0  0
   17.6187   19.5155   20.3392 C   0  0  0  0  0  0  0  0  0  0  0  0
   17.7205   18.5107   19.9087 H   0  0  0  0  0  0  0  0  0  0  0  0
   16.5803   19.8417   20.1969 H   0  0  0  0  0  0  0  0  0  0  0  0
   18.2686   20.1975   19.7753 H   0  0  0  0  0  0  0  0  0  0  0  0
  1  2  1  0  0  0  0
  1  3  2  0  0  0  0
  1  4  1  0  0  0  0
  4  5  1  0  0  0  0
  4  6  1  0  0  0  0
  4  7  1  0  0  0  0
  7  8  1  0  0  0  0
  7  9  1  0  0  0  0
  7 10  1  0  0  0  0
 10 11  1  0  0  0  0
 10 12  1  0  0  0  0
 10 13  1  0  0  0  0
 13 14  1  0  0  0  0
 13 15  1  0  0  0  0
 13 16  1  0  0  0  0
 16 17  1  0  0  0  0
 16 18  1  0  0  0  0
 16 19  1  0  0  0  0
 19 20  1  0  0  0  0
 19 21  1  0  0  0  0
 19 22  1  0  0  0  0
 22 23  1  0  0  0  0
 22 24  1  0  0  0  0
 22 25  1  0  0  0  0
M  END
> <VConfSearch Rank>
254

> <Conf_Id>
24

> <Delta U+W>
1.784

> <U+W>
-49.846

> <U>
10.904

> <W>
-60.749

> <W(PB)>
-63.220

> <W(SA)>
2.471

> <Valence>
9.445

> <Coulomb>
0.780

> <VdW>
0.679

> <VdW6>
-10.008

> <VdW12>
10.687

> <Bond>
0.201

> <Angle>
3.198

> <Pdih>
6.039

> <Idih>
0.006

> <Tether>
0.000

$$$$
VeraChem MOL file


 25 24  0  0  0  0  0  0  0  0999 V2000     
   22.7913   19.0610   25.3836 C   0  0  0  0  0  0  0  0  0  0  0  0
   22.5369   18.4083   26.3770 O   0  5  0  0  0  0  0  0  0  0  0  0
   23.4617   18.6429   24.4601 O   0  0  0  0  0  0  0  0  0  0  0  0
   22.2997   20.5059   25.3199 C   0  0  0  0  0  0  0  0  0  0  0  0
   22.6557   20.9628   24.3886 H   0  0  0  0  0  0  0  0  0  0  0  0
   22.7970   21.0368   26.1399 H   0  0  0  0  0  0  0  0  0  0  0  0
   20.7621   20.6901   25.4568 C   0  0  0  0  0  0  0  0  0  0  0  0
   20.3805   20.0597   26.2720 H   0  0  0  0  0  0  0  0  0  0  0  0
   20.5708   21.7275   25.7628 H   0  0  0  0  0  0  0  0  0  0  0  0
   19.9580   20.4250   24.1598 C   0  0  0  0  0  0  0  0  0  0  0  0
   20.3365   21.0668   23.3525 H   0  0  0  0  0  0  0  0  0  0  0  0
   18.9172   20.7304   24.3344 H   0  0  0  0  0  0  0  0  0  0  0  0
   19.9719   18.9495   23.7000 C   0  0  0  0  0  0  0  0  0  0  0  0
   20.9864   18.6640   23.3944 H   0  0  0  0  0  0  0  0  0  0  0  0
   19.6935   18.2987   24.5402 H   0  0  0  0  0  0  0  0  0  0  0  0
   19.0073   18.7104   22.5181 C   0  0  0  0  0  0  0  0  0  0  0  0
   19.2843   19.3655   21.6808 H   0  0  0  0  0  0  0  0  0  0  0  0
   17.9860   18.9851   22.8153 H   0  0  0  0  0  0  0  0  0  0  0  0
   19.0291   17.2398   22.0508 C   0  0  0  0  0  0  0  0  0  0  0  0
   20.0491   16.9618   21.7509 H   0  0  0  0  0  0  0  0  0  0  0  0
   18.7517   16.5819   22.8860 H   0  0  0  0  0  0  0  0  0  0  0  0
   18.0653   17.0041   20.8704 C   0  0  0  0  0  0  0  0  0  0  0  0
   18.3393   17.6275   20.0092 H   0  0  0  0  0  0  0  0  0  0  0  0
   18.0938   15.9541   20.5514 H   0  0  0  0  0  0  0  0  0  0  0  0
   17.0320   17.2446   21.1529 H   0  0  0  0  0  0  0  0  0  0  0  0
  1  2  1  0  0  0  0
  1  3  2  0  0  0  0
  1  4  1  0  0  0  0
  4  5  1  0  0  0  0
  4  6  1  0  0  0  0
  4  7  1  0  0  0  0
  7  8  1  0  0  0  0
  7  9  1  0  0  0  0
  7 10  1  0  0  0  0
 10 11  1  0  0  0  0
 10 12  1  0  0  0  0
 10 13  1  0  0  0  0
 13 14  1  0  0  0  0
 13 15  1  0  0  0  0
 13 16  1  0  0  0  0
 16 17  1  0  0  0  0
 16 18  1  0  0  0  0
 16 19  1  0  0  0  0
 19 20  1  0  0  0  0
 19 21  1  0  0  0  0
 19 22  1  0  0  0  0
 22 23  1  0  0  0  0
 22 24  1  0  0  0  0
 22 25  1  0  0  0  0
M  END
> <VConfSearch Rank>
255

> <Conf_Id>
9

> <Delta U+W>
1.764

> <U+W>
-49.865

> <U>
10.902

> <W>
-60.768

> <W(PB)>
-63.223

> <W(SA)>
2.456

> <Valence>
9.445

> <Coulomb>
0.778

> <VdW>
0.679

> <VdW6>
-10.007

> <VdW12>
10.687

> <Bond>
0.201

> <Angle>
3.198

> <Pdih>
6.040

> <Idih>
0.006

> <Tether>
0.000

$$$$
VeraChem MOL file


 25 24  0  0  0  0  0  0  0  0999 V2000     
   20.6004   20.9555   26.5749 C   0  0  0  0  0  0  0  0  0  0  0  0
   20.3069   22.0207   26.0691 O   0  5  0  0  0  0  0  0  0  0  0  0
   20.6746   20.7775   27.7747 O   0  0  0  0  0  0  0  0  0  0  0  0
   20.8706   19.7712   25.6539 C   0  0  0  0  0  0  0  0  0  0  0  0
   21.6280   19.1380   26.1312 H   0  0  0  0  0  0  0  0  0  0  0  0
   21.3141   20.1589   24.7318 H   0  0  0  0  0  0  0  0  0  0  0  0
   19.5944   18.9405   25.3555 C   0  0  0  0  0  0  0  0  0  0  0  0
   19.1993   18.5732   26.3127 H   0  0  0  0  0  0  0  0  0  0  0  0
   18.8135   19.5861   24.9304 H   0  0  0  0  0  0  0  0  0  0  0  0
   19.8506   17.7261   24.4270 C   0  0  0  0  0  0  0  0  0  0  0  0
   19.1921   16.9071   24.7471 H   0  0  0  0  0  0  0  0  0  0  0  0
   20.8756   17.3539   24.5599 H   0  0  0  0  0  0  0  0  0  0  0  0
   19.5691   17.9891   22.9262 C   0  0  0  0  0  0  0  0  0  0  0  0
   19.7012   17.0453   22.3801 H   0  0  0  0  0  0  0  0  0  0  0  0
   18.5154   18.2723   22.8039 H   0  0  0  0  0  0  0  0  0  0  0  0
   20.4763   19.0683   22.2893 C   0  0  0  0  0  0  0  0  0  0  0  0
   21.5224   18.8578   22.5494 H   0  0  0  0  0  0  0  0  0  0  0  0
   20.2346   20.0525   22.7114 H   0  0  0  0  0  0  0  0  0  0  0  0
   20.3554   19.1378   20.7492 C   0  0  0  0  0  0  0  0  0  0  0  0
   21.0974   19.8533   20.3689 H   0  0  0  0  0  0  0  0  0  0  0  0
   20.6123   18.1630   20.3122 H   0  0  0  0  0  0  0  0  0  0  0  0
   18.9536   19.5698   20.2668 C   0  0  0  0  0  0  0  0  0  0  0  0
   18.6645   20.5311   20.7112 H   0  0  0  0  0  0  0  0  0  0  0  0
   18.9414   19.6845   19.1752 H   0  0  0  0  0  0  0  0  0  0  0  0
   18.1925   18.8252   20.5316 H   0  0  0  0  0  0  0  0  0  0  0  0
  1  2  1  0  0  0  0
  1  3  2  0  0  0  0
  1  4  1  0  0  0  0
  4  5  1  0  0  0  0
  4  6  1  0  0  0  0
  4  7  1  0  0  0  0
  7  8  1  0  0  0  0
  7  9  1  0  0  0  0
  7 10  1  0  0  0  0
 10 11  1  0  0  0  0
 10 12  1  0  0  0  0
 10 13  1  0  0  0  0
 13 14  1  0  0  0  0
 13 15  1  0  0  0  0
 13 16  1  0  0  0  0
 16 17  1  0  0  0  0
 16 18  1  0  0  0  0
 16 19  1  0  0  0  0
 19 20  1  0  0  0  0
 19 21  1  0  0  0  0
 19 22  1  0  0  0  0
 22 23  1  0  0  0  0
 22 24  1  0  0  0  0
 22 25  1  0  0  0  0
M  END
> <VConfSearch Rank>
256

> <Conf_Id>
89

> <Delta U+W>
2.903

> <U+W>
-48.726

> <U>
10.996

> <W>
-59.723

> <W(PB)>
-62.151

> <W(SA)>
2.428

> <Valence>
10.985

> <Coulomb>
-0.995

> <VdW>
1.006

> <VdW6>
-10.062

> <VdW12>
11.069

> <Bond>
0.238

> <Angle>
3.202

> <Pdih>
7.544

> <Idih>
0.001

> <Tether>
0.000

$$$$
VeraChem MOL file


 25 24  0  0  0  0  0  0  0  0999 V2000     
   17.6112   16.6385   23.9023 C   0  0  0  0  0  0  0  0  0  0  0  0
   16.6365   17.3524   23.7689 O   0  5  0  0  0  0  0  0  0  0  0  0
   17.8930   15.7384   23.1355 O   0  0  0  0  0  0  0  0  0  0  0  0
   18.4906   16.8440   25.1342 C   0  0  0  0  0  0  0  0  0  0  0  0
   18.4035   15.9280   25.7300 H   0  0  0  0  0  0  0  0  0  0  0  0
   18.0702   17.6544   25.7419 H   0  0  0  0  0  0  0  0  0  0  0  0
   19.9933   17.1143   24.8399 C   0  0  0  0  0  0  0  0  0  0  0  0
   20.5648   16.8628   25.7435 H   0  0  0  0  0  0  0  0  0  0  0  0
   20.3513   16.4312   24.0571 H   0  0  0  0  0  0  0  0  0  0  0  0
   20.3312   18.5783   24.4626 C   0  0  0  0  0  0  0  0  0  0  0  0
   21.4240   18.6741   24.4498 H   0  0  0  0  0  0  0  0  0  0  0  0
   19.9710   19.2550   25.2493 H   0  0  0  0  0  0  0  0  0  0  0  0
   19.7625   19.0234   23.0934 C   0  0  0  0  0  0  0  0  0  0  0  0
   20.0702   18.3145   22.3126 H   0  0  0  0  0  0  0  0  0  0  0  0
   18.6669   18.9912   23.1296 H   0  0  0  0  0  0  0  0  0  0  0  0
   20.1788   20.4578   22.6879 C   0  0  0  0  0  0  0  0  0  0  0  0
   19.8997   21.1614   23.4841 H   0  0  0  0  0  0  0  0  0  0  0  0
   19.5991   20.7480   21.8009 H   0  0  0  0  0  0  0  0  0  0  0  0
   21.6841   20.6004   22.3670 C   0  0  0  0  0  0  0  0  0  0  0  0
   22.2850   20.3957   23.2625 H   0  0  0  0  0  0  0  0  0  0  0  0
   21.9734   19.8582   21.6102 H   0  0  0  0  0  0  0  0  0  0  0  0
   22.0206   22.0144   21.8518 C   0  0  0  0  0  0  0  0  0  0  0  0
   21.7660   22.7757   22.6007 H   0  0  0  0  0  0  0  0  0  0  0  0
   23.0926   22.1008   21.6314 H   0  0  0  0  0  0  0  0  0  0  0  0
   21.4664   22.2399   20.9313 H   0  0  0  0  0  0  0  0  0  0  0  0
  1  2  1  0  0  0  0
  1  3  2  0  0  0  0
  1  4  1  0  0  0  0
  4  5  1  0  0  0  0
  4  6  1  0  0  0  0
  4  7  1  0  0  0  0
  7  8  1  0  0  0  0
  7  9  1  0  0  0  0
  7 10  1  0  0  0  0
 10 11  1  0  0  0  0
 10 12  1  0  0  0  0
 10 13  1  0  0  0  0
 13 14  1  0  0  0  0
 13 15  1  0  0  0  0
 13 16  1  0  0  0  0
 16 17  1  0  0  0  0
 16 18  1  0  0  0  0
 16 19  1  0  0  0  0
 19 20  1  0  0  0  0
 19 21  1  0  0  0  0
 19 22  1  0  0  0  0
 22 23  1  0  0  0  0
 22 24  1  0  0  0  0
 22 25  1  0  0  0  0
M  END
> <VConfSearch Rank>
257

> <Conf_Id>
114

> <Delta U+W>
2.758

> <U+W>
-48.871

> <U>
11.422

> <W>
-60.293

> <W(PB)>
-62.719

> <W(SA)>
2.425

> <Valence>
10.135

> <Coulomb>
0.369

> <VdW>
0.918

> <VdW6>
-10.482

> <VdW12>
11.400

> <Bond>
0.245

> <Angle>
3.539

> <Pdih>
6.346

> <Idih>
0.006

> <Tether>
0.000

$$$$
VeraChem MOL file


 25 24  0  0  0  0  0  0  0  0999 V2000     
   22.3452   17.4574   26.1162 C   0  0  0  0  0  0  0  0  0  0  0  0
   21.6752   17.5048   27.1291 O   0  5  0  0  0  0  0  0  0  0  0  0
   22.7150   16.4201   25.6022 O   0  0  0  0  0  0  0  0  0  0  0  0
   22.7638   18.7720   25.4639 C   0  0  0  0  0  0  0  0  0  0  0  0
   23.8277   18.6895   25.2122 H   0  0  0  0  0  0  0  0  0  0  0  0
   22.6745   19.5748   26.2057 H   0  0  0  0  0  0  0  0  0  0  0  0
   21.9556   19.1269   24.1888 C   0  0  0  0  0  0  0  0  0  0  0  0
   22.4049   20.0108   23.7163 H   0  0  0  0  0  0  0  0  0  0  0  0
   22.0460   18.3017   23.4705 H   0  0  0  0  0  0  0  0  0  0  0  0
   20.4653   19.4123   24.4935 C   0  0  0  0  0  0  0  0  0  0  0  0
   20.4033   20.1744   25.2823 H   0  0  0  0  0  0  0  0  0  0  0  0
   19.9869   18.5097   24.8982 H   0  0  0  0  0  0  0  0  0  0  0  0
   19.6670   19.9124   23.2657 C   0  0  0  0  0  0  0  0  0  0  0  0
   18.6734   20.2240   23.6120 H   0  0  0  0  0  0  0  0  0  0  0  0
   20.1487   20.8095   22.8537 H   0  0  0  0  0  0  0  0  0  0  0  0
   19.5122   18.8447   22.1546 C   0  0  0  0  0  0  0  0  0  0  0  0
   19.0336   17.9465   22.5681 H   0  0  0  0  0  0  0  0  0  0  0  0
   20.5049   18.5354   21.8042 H   0  0  0  0  0  0  0  0  0  0  0  0
   18.7075   19.3431   20.9313 C   0  0  0  0  0  0  0  0  0  0  0  0
   19.1769   20.2484   20.5221 H   0  0  0  0  0  0  0  0  0  0  0  0
   18.7622   18.5816   20.1411 H   0  0  0  0  0  0  0  0  0  0  0  0
   17.2218   19.6237   21.2458 C   0  0  0  0  0  0  0  0  0  0  0  0
   16.6774   19.8801   20.3278 H   0  0  0  0  0  0  0  0  0  0  0  0
   16.7406   18.7419   21.6886 H   0  0  0  0  0  0  0  0  0  0  0  0
   17.1102   20.4637   21.9425 H   0  0  0  0  0  0  0  0  0  0  0  0
  1  2  1  0  0  0  0
  1  3  2  0  0  0  0
  1  4  1  0  0  0  0
  4  5  1  0  0  0  0
  4  6  1  0  0  0  0
  4  7  1  0  0  0  0
  7  8  1  0  0  0  0
  7  9  1  0  0  0  0
  7 10  1  0  0  0  0
 10 11  1  0  0  0  0
 10 12  1  0  0  0  0
 10 13  1  0  0  0  0
 13 14  1  0  0  0  0
 13 15  1  0  0  0  0
 13 16  1  0  0  0  0
 16 17  1  0  0  0  0
 16 18  1  0  0  0  0
 16 19  1  0  0  0  0
 19 20  1  0  0  0  0
 19 21  1  0  0  0  0
 19 22  1  0  0  0  0
 22 23  1  0  0  0  0
 22 24  1  0  0  0  0
 22 25  1  0  0  0  0
M  END
> <VConfSearch Rank>
258

> <Conf_Id>
87

> <Delta U+W>
1.453

> <U+W>
-50.176

> <U>
9.763

> <W>
-59.940

> <W(PB)>
-62.392

> <W(SA)>
2.452

> <Valence>
8.883

> <Coulomb>
-0.122

> <VdW>
1.003

> <VdW6>
-9.782

> <VdW12>
10.785

> <Bond>
0.212

> <Angle>
2.940

> <Pdih>
5.730

> <Idih>
0.001

> <Tether>
0.000

$$$$
VeraChem MOL file


 25 24  0  0  0  0  0  0  0  0999 V2000     
   22.4132   16.5478   21.4252 C   0  0  0  0  0  0  0  0  0  0  0  0
   21.6068   15.8747   20.8142 O   0  5  0  0  0  0  0  0  0  0  0  0
   23.5311   16.7943   21.0173 O   0  0  0  0  0  0  0  0  0  0  0  0
   21.9929   17.1308   22.7697 C   0  0  0  0  0  0  0  0  0  0  0  0
   22.8805   17.1808   23.4116 H   0  0  0  0  0  0  0  0  0  0  0  0
   21.2912   16.4314   23.2399 H   0  0  0  0  0  0  0  0  0  0  0  0
   21.3450   18.5314   22.6416 C   0  0  0  0  0  0  0  0  0  0  0  0
   22.0556   19.2184   22.1618 H   0  0  0  0  0  0  0  0  0  0  0  0
   20.4718   18.4595   21.9797 H   0  0  0  0  0  0  0  0  0  0  0  0
   20.9221   19.0958   24.0176 C   0  0  0  0  0  0  0  0  0  0  0  0
   21.7929   19.0950   24.6871 H   0  0  0  0  0  0  0  0  0  0  0  0
   20.1816   18.4304   24.4806 H   0  0  0  0  0  0  0  0  0  0  0  0
   20.3628   20.5389   23.9466 C   0  0  0  0  0  0  0  0  0  0  0  0
   20.1437   20.8846   24.9654 H   0  0  0  0  0  0  0  0  0  0  0  0
   21.1503   21.2056   23.5700 H   0  0  0  0  0  0  0  0  0  0  0  0
   19.0994   20.7174   23.0636 C   0  0  0  0  0  0  0  0  0  0  0  0
   19.3602   20.5295   22.0139 H   0  0  0  0  0  0  0  0  0  0  0  0
   18.7880   21.7698   23.1075 H   0  0  0  0  0  0  0  0  0  0  0  0
   17.8941   19.8247   23.4488 C   0  0  0  0  0  0  0  0  0  0  0  0
   17.0746   20.0192   22.7436 H   0  0  0  0  0  0  0  0  0  0  0  0
   18.1546   18.7649   23.3267 H   0  0  0  0  0  0  0  0  0  0  0  0
   17.3841   20.0743   24.8847 C   0  0  0  0  0  0  0  0  0  0  0  0
   17.1330   21.1324   25.0338 H   0  0  0  0  0  0  0  0  0  0  0  0
   16.4817   19.4810   25.0806 H   0  0  0  0  0  0  0  0  0  0  0  0
   18.1376   19.7905   25.6301 H   0  0  0  0  0  0  0  0  0  0  0  0
  1  2  1  0  0  0  0
  1  3  2  0  0  0  0
  1  4  1  0  0  0  0
  4  5  1  0  0  0  0
  4  6  1  0  0  0  0
  4  7  1  0  0  0  0
  7  8  1  0  0  0  0
  7  9  1  0  0  0  0
  7 10  1  0  0  0  0
 10 11  1  0  0  0  0
 10 12  1  0  0  0  0
 10 13  1  0  0  0  0
 13 14  1  0  0  0  0
 13 15  1  0  0  0  0
 13 16  1  0  0  0  0
 16 17  1  0  0  0  0
 16 18  1  0  0  0  0
 16 19  1  0  0  0  0
 19 20  1  0  0  0  0
 19 21  1  0  0  0  0
 19 22  1  0  0  0  0
 22 23  1  0  0  0  0
 22 24  1  0  0  0  0
 22 25  1  0  0  0  0
M  END
> <VConfSearch Rank>
259

> <Conf_Id>
29

> <Delta U+W>
0.850

> <U+W>
-50.780

> <U>
8.646

> <W>
-59.426

> <W(PB)>
-61.868

> <W(SA)>
2.442

> <Valence>
8.924

> <Coulomb>
-1.171

> <VdW>
0.894

> <VdW6>
-10.223

> <VdW12>
11.117

> <Bond>
0.231

> <Angle>
3.232

> <Pdih>
5.461

> <Idih>
0.001

> <Tether>
0.000

$$$$
VeraChem MOL file


 25 24  0  0  0  0  0  0  0  0999 V2000     
   20.7676   17.7568   19.7211 C   0  0  0  0  0  0  0  0  0  0  0  0
   21.9272   17.4106   19.8304 O   0  5  0  0  0  0  0  0  0  0  0  0
   20.2838   18.1729   18.6869 O   0  0  0  0  0  0  0  0  0  0  0  0
   19.8748   17.6831   20.9547 C   0  0  0  0  0  0  0  0  0  0  0  0
   20.2110   16.8389   21.5686 H   0  0  0  0  0  0  0  0  0  0  0  0
   18.8541   17.4575   20.6234 H   0  0  0  0  0  0  0  0  0  0  0  0
   19.8912   18.9885   21.7876 C   0  0  0  0  0  0  0  0  0  0  0  0
   20.9246   19.2036   22.0903 H   0  0  0  0  0  0  0  0  0  0  0  0
   19.5604   19.8259   21.1580 H   0  0  0  0  0  0  0  0  0  0  0  0
   18.9842   18.8841   23.0355 C   0  0  0  0  0  0  0  0  0  0  0  0
   19.3381   18.0730   23.6854 H   0  0  0  0  0  0  0  0  0  0  0  0
   17.9715   18.6003   22.7184 H   0  0  0  0  0  0  0  0  0  0  0  0
   18.8910   20.2035   23.8421 C   0  0  0  0  0  0  0  0  0  0  0  0
   18.4462   20.9784   23.2032 H   0  0  0  0  0  0  0  0  0  0  0  0
   18.1860   20.0627   24.6719 H   0  0  0  0  0  0  0  0  0  0  0  0
   20.2375   20.7356   24.4004 C   0  0  0  0  0  0  0  0  0  0  0  0
   20.0420   21.6570   24.9655 H   0  0  0  0  0  0  0  0  0  0  0  0
   20.8852   21.0326   23.5652 H   0  0  0  0  0  0  0  0  0  0  0  0
   21.0110   19.7484   25.3088 C   0  0  0  0  0  0  0  0  0  0  0  0
   21.2959   18.8543   24.7386 H   0  0  0  0  0  0  0  0  0  0  0  0
   21.9517   20.2227   25.6202 H   0  0  0  0  0  0  0  0  0  0  0  0
   20.2222   19.3335   26.5697 C   0  0  0  0  0  0  0  0  0  0  0  0
   19.3239   18.7607   26.3072 H   0  0  0  0  0  0  0  0  0  0  0  0
   20.8414   18.7025   27.2201 H   0  0  0  0  0  0  0  0  0  0  0  0
   19.9129   20.2144   27.1470 H   0  0  0  0  0  0  0  0  0  0  0  0
  1  2  1  0  0  0  0
  1  3  2  0  0  0  0
  1  4  1  0  0  0  0
  4  5  1  0  0  0  0
  4  6  1  0  0  0  0
  4  7  1  0  0  0  0
  7  8  1  0  0  0  0
  7  9  1  0  0  0  0
  7 10  1  0  0  0  0
 10 11  1  0  0  0  0
 10 12  1  0  0  0  0
 10 13  1  0  0  0  0
 13 14  1  0  0  0  0
 13 15  1  0  0  0  0
 13 16  1  0  0  0  0
 16 17  1  0  0  0  0
 16 18  1  0  0  0  0
 16 19  1  0  0  0  0
 19 20  1  0  0  0  0
 19 21  1  0  0  0  0
 19 22  1  0  0  0  0
 22 23  1  0  0  0  0
 22 24  1  0  0  0  0
 22 25  1  0  0  0  0
M  END
> <VConfSearch Rank>
260

> <Conf_Id>
30

> <Delta U+W>
0.843

> <U+W>
-50.787

> <U>
8.647

> <W>
-59.434

> <W(PB)>
-61.861

> <W(SA)>
2.428

> <Valence>
8.924

> <Coulomb>
-1.170

> <VdW>
0.894

> <VdW6>
-10.224

> <VdW12>
11.118

> <Bond>
0.231

> <Angle>
3.232

> <Pdih>
5.460

> <Idih>
0.000

> <Tether>
0.000

$$$$
VeraChem MOL file


 25 24  0  0  0  0  0  0  0  0999 V2000     
   21.1536   15.6118   20.2546 C   0  0  0  0  0  0  0  0  0  0  0  0
   20.1789   14.9581   20.5726 O   0  5  0  0  0  0  0  0  0  0  0  0
   21.9718   15.2310   19.4412 O   0  0  0  0  0  0  0  0  0  0  0  0
   21.3885   16.9824   20.8916 C   0  0  0  0  0  0  0  0  0  0  0  0
   21.4451   17.7154   20.0784 H   0  0  0  0  0  0  0  0  0  0  0  0
   22.3749   16.9561   21.3694 H   0  0  0  0  0  0  0  0  0  0  0  0
   20.3173   17.4254   21.9235 C   0  0  0  0  0  0  0  0  0  0  0  0
   19.3308   17.4434   21.4399 H   0  0  0  0  0  0  0  0  0  0  0  0
   20.2614   16.6834   22.7321 H   0  0  0  0  0  0  0  0  0  0  0  0
   20.6310   18.8166   22.5158 C   0  0  0  0  0  0  0  0  0  0  0  0
   20.6865   19.5567   21.7057 H   0  0  0  0  0  0  0  0  0  0  0  0
   21.6177   18.7962   22.9987 H   0  0  0  0  0  0  0  0  0  0  0  0
   19.5642   19.2552   23.5420 C   0  0  0  0  0  0  0  0  0  0  0  0
   18.5775   19.2757   23.0593 H   0  0  0  0  0  0  0  0  0  0  0  0
   19.5085   18.5153   24.3523 H   0  0  0  0  0  0  0  0  0  0  0  0
   19.8773   20.6462   24.1346 C   0  0  0  0  0  0  0  0  0  0  0  0
   19.9330   21.3862   23.3244 H   0  0  0  0  0  0  0  0  0  0  0  0
   20.8640   20.6259   24.6174 H   0  0  0  0  0  0  0  0  0  0  0  0
   18.8110   21.0847   25.1603 C   0  0  0  0  0  0  0  0  0  0  0  0
   17.8228   21.1080   24.6804 H   0  0  0  0  0  0  0  0  0  0  0  0
   18.7538   20.3477   25.9733 H   0  0  0  0  0  0  0  0  0  0  0  0
   19.1271   22.4741   25.7497 C   0  0  0  0  0  0  0  0  0  0  0  0
   19.1593   23.2373   24.9611 H   0  0  0  0  0  0  0  0  0  0  0  0
   18.3594   22.7699   26.4764 H   0  0  0  0  0  0  0  0  0  0  0  0
   20.0973   22.4712   26.2637 H   0  0  0  0  0  0  0  0  0  0  0  0
  1  2  1  0  0  0  0
  1  3  2  0  0  0  0
  1  4  1  0  0  0  0
  4  5  1  0  0  0  0
  4  6  1  0  0  0  0
  4  7  1  0  0  0  0
  7  8  1  0  0  0  0
  7  9  1  0  0  0  0
  7 10  1  0  0  0  0
 10 11  1  0  0  0  0
 10 12  1  0  0  0  0
 10 13  1  0  0  0  0
 13 14  1  0  0  0  0
 13 15  1  0  0  0  0
 13 16  1  0  0  0  0
 16 17  1  0  0  0  0
 16 18  1  0  0  0  0
 16 19  1  0  0  0  0
 19 20  1  0  0  0  0
 19 21  1  0  0  0  0
 19 22  1  0  0  0  0
 22 23  1  0  0  0  0
 22 24  1  0  0  0  0
 22 25  1  0  0  0  0
M  END
> <VConfSearch Rank>
261

> <Conf_Id>
0

> <Delta U+W>
0.000

> <U+W>
-51.629

> <U>
6.586

> <W>
-58.216

> <W(PB)>
-60.757

> <W(SA)>
2.541

> <Valence>
8.027

> <Coulomb>
-2.892

> <VdW>
1.451

> <VdW6>
-7.931

> <VdW12>
9.383

> <Bond>
0.149

> <Angle>
2.726

> <Pdih>
5.152

> <Idih>
0.000

> <Tether>
0.000

$$$$
VeraChem MOL file


 25 24  0  0  0  0  0  0  0  0999 V2000     
   19.4712   22.5369   26.2917 C   0  0  0  0  0  0  0  0  0  0  0  0
   20.4313   23.2644   26.4516 O   0  5  0  0  0  0  0  0  0  0  0  0
   18.3193   22.9083   26.4006 O   0  0  0  0  0  0  0  0  0  0  0  0
   19.7255   21.0829   25.9107 C   0  0  0  0  0  0  0  0  0  0  0  0
   18.9225   20.4726   26.3410 H   0  0  0  0  0  0  0  0  0  0  0  0
   20.6628   20.7659   26.3837 H   0  0  0  0  0  0  0  0  0  0  0  0
   19.7995   20.8666   24.3791 C   0  0  0  0  0  0  0  0  0  0  0  0
   18.8591   21.2011   23.9196 H   0  0  0  0  0  0  0  0  0  0  0  0
   20.5992   21.4946   23.9622 H   0  0  0  0  0  0  0  0  0  0  0  0
   20.0578   19.3875   24.0192 C   0  0  0  0  0  0  0  0  0  0  0  0
   19.2573   18.7625   24.4383 H   0  0  0  0  0  0  0  0  0  0  0  0
   20.9978   19.0559   24.4812 H   0  0  0  0  0  0  0  0  0  0  0  0
   20.1312   19.1751   22.4918 C   0  0  0  0  0  0  0  0  0  0  0  0
   19.1912   19.5066   22.0296 H   0  0  0  0  0  0  0  0  0  0  0  0
   20.9317   19.8001   22.0725 H   0  0  0  0  0  0  0  0  0  0  0  0
   20.3895   17.6962   22.1310 C   0  0  0  0  0  0  0  0  0  0  0  0
   19.5892   17.0710   22.5501 H   0  0  0  0  0  0  0  0  0  0  0  0
   21.3294   17.3644   22.5931 H   0  0  0  0  0  0  0  0  0  0  0  0
   20.4630   17.4837   20.6043 C   0  0  0  0  0  0  0  0  0  0  0  0
   19.5236   17.8128   20.1388 H   0  0  0  0  0  0  0  0  0  0  0  0
   21.2639   18.1062   20.1818 H   0  0  0  0  0  0  0  0  0  0  0  0
   20.7210   16.0058   20.2482 C   0  0  0  0  0  0  0  0  0  0  0  0
   20.7703   15.8730   19.1596 H   0  0  0  0  0  0  0  0  0  0  0  0
   21.6711   15.6589   20.6753 H   0  0  0  0  0  0  0  0  0  0  0  0
   19.9177   15.3632   20.6320 H   0  0  0  0  0  0  0  0  0  0  0  0
  1  2  1  0  0  0  0
  1  3  2  0  0  0  0
  1  4  1  0  0  0  0
  4  5  1  0  0  0  0
  4  6  1  0  0  0  0
  4  7  1  0  0  0  0
  7  8  1  0  0  0  0
  7  9  1  0  0  0  0
  7 10  1  0  0  0  0
 10 11  1  0  0  0  0
 10 12  1  0  0  0  0
 10 13  1  0  0  0  0
 13 14  1  0  0  0  0
 13 15  1  0  0  0  0
 13 16  1  0  0  0  0
 16 17  1  0  0  0  0
 16 18  1  0  0  0  0
 16 19  1  0  0  0  0
 19 20  1  0  0  0  0
 19 21  1  0  0  0  0
 19 22  1  0  0  0  0
 22 23  1  0  0  0  0
 22 24  1  0  0  0  0
 22 25  1  0  0  0  0
M  END
> <VConfSearch Rank>
262

> <Conf_Id>
27

> <Delta U+W>
-1.297

> <U+W>
-52.926

> <U>
5.617

> <W>
-58.543

> <W(PB)>
-61.065

> <W(SA)>
2.522

> <Valence>
7.531

> <Coulomb>
-2.818

> <VdW>
0.904

> <VdW6>
-7.640

> <VdW12>
8.544

> <Bond>
0.115

> <Angle>
2.271

> <Pdih>
5.144

> <Idih>
0.001

> <Tether>
0.000

$$$$
VeraChem MOL file


 25 24  0  0  0  0  0  0  0  0999 V2000     
   16.5154   20.5986   23.7725 C   0  0  0  0  0  0  0  0  0  0  0  0
   16.3940   21.3235   24.7404 O   0  5  0  0  0  0  0  0  0  0  0  0
   16.4328   20.9895   22.6247 O   0  0  0  0  0  0  0  0  0  0  0  0
   16.7686   19.1132   24.0143 C   0  0  0  0  0  0  0  0  0  0  0  0
   16.5133   18.5615   23.1015 H   0  0  0  0  0  0  0  0  0  0  0  0
   16.0684   18.7835   24.7908 H   0  0  0  0  0  0  0  0  0  0  0  0
   18.2197   18.7841   24.4511 C   0  0  0  0  0  0  0  0  0  0  0  0
   18.4698   19.3649   25.3499 H   0  0  0  0  0  0  0  0  0  0  0  0
   18.2750   17.7242   24.7342 H   0  0  0  0  0  0  0  0  0  0  0  0
   19.2542   19.0691   23.3392 C   0  0  0  0  0  0  0  0  0  0  0  0
   19.2172   20.1320   23.0627 H   0  0  0  0  0  0  0  0  0  0  0  0
   18.9922   18.4968   22.4387 H   0  0  0  0  0  0  0  0  0  0  0  0
   20.6869   18.7046   23.7841 C   0  0  0  0  0  0  0  0  0  0  0  0
   20.9480   19.2774   24.6846 H   0  0  0  0  0  0  0  0  0  0  0  0
   20.7271   17.6414   24.0582 H   0  0  0  0  0  0  0  0  0  0  0  0
   21.7212   18.9899   22.6739 C   0  0  0  0  0  0  0  0  0  0  0  0
   21.6812   20.0531   22.3996 H   0  0  0  0  0  0  0  0  0  0  0  0
   21.4602   18.4175   21.7732 H   0  0  0  0  0  0  0  0  0  0  0  0
   23.1536   18.6262   23.1183 C   0  0  0  0  0  0  0  0  0  0  0  0
   23.4188   19.1984   24.0181 H   0  0  0  0  0  0  0  0  0  0  0  0
   23.1978   17.5628   23.3916 H   0  0  0  0  0  0  0  0  0  0  0  0
   24.1833   18.9128   22.0069 C   0  0  0  0  0  0  0  0  0  0  0  0
   24.1826   19.9767   21.7357 H   0  0  0  0  0  0  0  0  0  0  0  0
   25.1955   18.6485   22.3397 H   0  0  0  0  0  0  0  0  0  0  0  0
   23.9600   18.3288   21.1044 H   0  0  0  0  0  0  0  0  0  0  0  0
  1  2  1  0  0  0  0
  1  3  2  0  0  0  0
  1  4  1  0  0  0  0
  4  5  1  0  0  0  0
  4  6  1  0  0  0  0
  4  7  1  0  0  0  0
  7  8  1  0  0  0  0
  7  9  1  0  0  0  0
  7 10  1  0  0  0  0
 10 11  1  0  0  0  0
 10 12  1  0  0  0  0
 10 13  1  0  0  0  0
 13 14  1  0  0  0  0
 13 15  1  0  0  0  0
 13 16  1  0  0  0  0
 16 17  1  0  0  0  0
 16 18  1  0  0  0  0
 16 19  1  0  0  0  0
 19 20  1  0  0  0  0
 19 21  1  0  0  0  0
 19 22  1  0  0  0  0
 22 23  1  0  0  0  0
 22 24  1  0  0  0  0
 22 25  1  0  0  0  0
M  END
> <VConfSearch Rank>
263

> <Conf_Id>
37

> <Delta U+W>
-0.230

> <U+W>
-51.860

> <U>
7.816

> <W>
-59.675

> <W(PB)>
-62.180

> <W(SA)>
2.505

> <Valence>
7.785

> <Coulomb>
-0.713

> <VdW>
0.744

> <VdW6>
-8.514

> <VdW12>
9.259

> <Bond>
0.136

> <Angle>
2.433

> <Pdih>
5.216

> <Idih>
0.000

> <Tether>
0.000

$$$$
VeraChem MOL file


 25 24  0  0  0  0  0  0  0  0999 V2000     
   16.0275   20.0466   23.1825 C   0  0  0  0  0  0  0  0  0  0  0  0
   15.5521   20.3829   24.2493 O   0  5  0  0  0  0  0  0  0  0  0  0
   15.7602   18.9992   22.6271 O   0  0  0  0  0  0  0  0  0  0  0  0
   17.0010   21.0010   22.4967 C   0  0  0  0  0  0  0  0  0  0  0  0
   16.5645   22.0055   22.5454 H   0  0  0  0  0  0  0  0  0  0  0  0
   17.0642   20.7333   21.4350 H   0  0  0  0  0  0  0  0  0  0  0  0
   18.4166   21.0198   23.1297 C   0  0  0  0  0  0  0  0  0  0  0  0
   19.0030   21.8254   22.6675 H   0  0  0  0  0  0  0  0  0  0  0  0
   18.3341   21.2619   24.1985 H   0  0  0  0  0  0  0  0  0  0  0  0
   19.1645   19.6792   22.9530 C   0  0  0  0  0  0  0  0  0  0  0  0
   19.2326   19.4351   21.8840 H   0  0  0  0  0  0  0  0  0  0  0  0
   18.5922   18.8705   23.4283 H   0  0  0  0  0  0  0  0  0  0  0  0
   20.5822   19.7308   23.5621 C   0  0  0  0  0  0  0  0  0  0  0  0
   21.1573   20.5369   23.0863 H   0  0  0  0  0  0  0  0  0  0  0  0
   20.5131   19.9748   24.6311 H   0  0  0  0  0  0  0  0  0  0  0  0
   21.3299   18.3914   23.3865 C   0  0  0  0  0  0  0  0  0  0  0  0
   21.3988   18.1470   22.3176 H   0  0  0  0  0  0  0  0  0  0  0  0
   20.7548   17.5851   23.8622 H   0  0  0  0  0  0  0  0  0  0  0  0
   22.7468   18.4422   23.9958 C   0  0  0  0  0  0  0  0  0  0  0  0
   23.3255   19.2466   23.5210 H   0  0  0  0  0  0  0  0  0  0  0  0
   22.6815   18.6846   25.0656 H   0  0  0  0  0  0  0  0  0  0  0  0
   23.4899   17.1029   23.8183 C   0  0  0  0  0  0  0  0  0  0  0  0
   23.5974   16.8511   22.7551 H   0  0  0  0  0  0  0  0  0  0  0  0
   24.4948   17.1569   24.2570 H   0  0  0  0  0  0  0  0  0  0  0  0
   22.9484   16.2849   24.3113 H   0  0  0  0  0  0  0  0  0  0  0  0
  1  2  1  0  0  0  0
  1  3  2  0  0  0  0
  1  4  1  0  0  0  0
  4  5  1  0  0  0  0
  4  6  1  0  0  0  0
  4  7  1  0  0  0  0
  7  8  1  0  0  0  0
  7  9  1  0  0  0  0
  7 10  1  0  0  0  0
 10 11  1  0  0  0  0
 10 12  1  0  0  0  0
 10 13  1  0  0  0  0
 13 14  1  0  0  0  0
 13 15  1  0  0  0  0
 13 16  1  0  0  0  0
 16 17  1  0  0  0  0
 16 18  1  0  0  0  0
 16 19  1  0  0  0  0
 19 20  1  0  0  0  0
 19 21  1  0  0  0  0
 19 22  1  0  0  0  0
 22 23  1  0  0  0  0
 22 24  1  0  0  0  0
 22 25  1  0  0  0  0
M  END
> <VConfSearch Rank>
264

> <Conf_Id>
54

> <Delta U+W>
-0.224

> <U+W>
-51.854

> <U>
7.816

> <W>
-59.670

> <W(PB)>
-62.157

> <W(SA)>
2.487

> <Valence>
7.785

> <Coulomb>
-0.713

> <VdW>
0.744

> <VdW6>
-8.515

> <VdW12>
9.259

> <Bond>
0.136

> <Angle>
2.433

> <Pdih>
5.215

> <Idih>
0.000

> <Tether>
0.000

$$$$
VeraChem MOL file


 25 24  0  0  0  0  0  0  0  0999 V2000     
   20.1907   15.1102   22.7198 C   0  0  0  0  0  0  0  0  0  0  0  0
   19.2410   14.6890   23.3505 O   0  5  0  0  0  0  0  0  0  0  0  0
   20.4057   14.8262   21.5578 O   0  0  0  0  0  0  0  0  0  0  0  0
   21.1788   16.0318   23.4293 C   0  0  0  0  0  0  0  0  0  0  0  0
   22.1876   15.6755   23.1900 H   0  0  0  0  0  0  0  0  0  0  0  0
   21.0500   15.9166   24.5124 H   0  0  0  0  0  0  0  0  0  0  0  0
   21.0492   17.5251   23.0305 C   0  0  0  0  0  0  0  0  0  0  0  0
   21.8927   18.0746   23.4669 H   0  0  0  0  0  0  0  0  0  0  0  0
   21.1391   17.6192   21.9394 H   0  0  0  0  0  0  0  0  0  0  0  0
   19.7155   18.1523   23.5034 C   0  0  0  0  0  0  0  0  0  0  0  0
   19.6474   18.0987   24.5985 H   0  0  0  0  0  0  0  0  0  0  0  0
   18.8797   17.5557   23.1128 H   0  0  0  0  0  0  0  0  0  0  0  0
   19.5215   19.6169   23.0426 C   0  0  0  0  0  0  0  0  0  0  0  0
   19.6084   19.6729   21.9490 H   0  0  0  0  0  0  0  0  0  0  0  0
   18.4946   19.9154   23.2885 H   0  0  0  0  0  0  0  0  0  0  0  0
   20.5146   20.6084   23.6981 C   0  0  0  0  0  0  0  0  0  0  0  0
   21.5421   20.3164   23.4475 H   0  0  0  0  0  0  0  0  0  0  0  0
   20.4308   20.5483   24.7917 H   0  0  0  0  0  0  0  0  0  0  0  0
   20.3105   22.0727   23.2436 C   0  0  0  0  0  0  0  0  0  0  0  0
   21.1334   22.6820   23.6422 H   0  0  0  0  0  0  0  0  0  0  0  0
   20.3812   22.1349   22.1488 H   0  0  0  0  0  0  0  0  0  0  0  0
   18.9715   22.6815   23.7142 C   0  0  0  0  0  0  0  0  0  0  0  0
   18.1156   22.1819   23.2440 H   0  0  0  0  0  0  0  0  0  0  0  0
   18.8636   22.5988   24.8035 H   0  0  0  0  0  0  0  0  0  0  0  0
   18.9202   23.7456   23.4497 H   0  0  0  0  0  0  0  0  0  0  0  0
  1  2  1  0  0  0  0
  1  3  2  0  0  0  0
  1  4  1  0  0  0  0
  4  5  1  0  0  0  0
  4  6  1  0  0  0  0
  4  7  1  0  0  0  0
  7  8  1  0  0  0  0
  7  9  1  0  0  0  0
  7 10  1  0  0  0  0
 10 11  1  0  0  0  0
 10 12  1  0  0  0  0
 10 13  1  0  0  0  0
 13 14  1  0  0  0  0
 13 15  1  0  0  0  0
 13 16  1  0  0  0  0
 16 17  1  0  0  0  0
 16 18  1  0  0  0  0
 16 19  1  0  0  0  0
 19 20  1  0  0  0  0
 19 21  1  0  0  0  0
 19 22  1  0  0  0  0
 22 23  1  0  0  0  0
 22 24  1  0  0  0  0
 22 25  1  0  0  0  0
M  END
> <VConfSearch Rank>
265

> <Conf_Id>
101

> <Delta U+W>
1.534

> <U+W>
-50.095

> <U>
9.416

> <W>
-59.512

> <W(PB)>
-61.988

> <W(SA)>
2.476

> <Valence>
8.939

> <Coulomb>
-0.615

> <VdW>
1.092

> <VdW6>
-9.710

> <VdW12>
10.802

> <Bond>
0.216

> <Angle>
2.979

> <Pdih>
5.743

> <Idih>
0.000

> <Tether>
0.000

$$$$
VeraChem MOL file


 25 24  0  0  0  0  0  0  0  0999 V2000     
   20.3422   23.3656   23.5943 C   0  0  0  0  0  0  0  0  0  0  0  0
   20.6465   23.6239   24.7421 O   0  5  0  0  0  0  0  0  0  0  0  0
   20.5011   24.1343   22.6666 O   0  0  0  0  0  0  0  0  0  0  0  0
   19.7490   21.9928   23.2981 C   0  0  0  0  0  0  0  0  0  0  0  0
   19.0545   22.0972   22.4559 H   0  0  0  0  0  0  0  0  0  0  0  0
   19.1597   21.6901   24.1707 H   0  0  0  0  0  0  0  0  0  0  0  0
   20.8308   20.9306   22.9711 C   0  0  0  0  0  0  0  0  0  0  0  0
   21.4625   21.3122   22.1569 H   0  0  0  0  0  0  0  0  0  0  0  0
   21.4911   20.7987   23.8394 H   0  0  0  0  0  0  0  0  0  0  0  0
   20.2485   19.5619   22.5443 C   0  0  0  0  0  0  0  0  0  0  0  0
   21.0796   18.9331   22.2001 H   0  0  0  0  0  0  0  0  0  0  0  0
   19.5813   19.6975   21.6823 H   0  0  0  0  0  0  0  0  0  0  0  0
   19.4923   18.8328   23.6820 C   0  0  0  0  0  0  0  0  0  0  0  0
   20.1593   18.6965   24.5431 H   0  0  0  0  0  0  0  0  0  0  0  0
   18.6660   19.4631   24.0338 H   0  0  0  0  0  0  0  0  0  0  0  0
   18.8962   17.4678   23.2531 C   0  0  0  0  0  0  0  0  0  0  0  0
   18.1668   17.6356   22.4491 H   0  0  0  0  0  0  0  0  0  0  0  0
   18.3269   17.0537   24.0963 H   0  0  0  0  0  0  0  0  0  0  0  0
   19.9244   16.4100   22.7805 C   0  0  0  0  0  0  0  0  0  0  0  0
   19.3818   15.4961   22.5026 H   0  0  0  0  0  0  0  0  0  0  0  0
   20.4282   16.7515   21.8668 H   0  0  0  0  0  0  0  0  0  0  0  0
   20.9760   16.0554   23.8540 C   0  0  0  0  0  0  0  0  0  0  0  0
   20.4932   15.7338   24.7860 H   0  0  0  0  0  0  0  0  0  0  0  0
   21.6196   15.2372   23.5060 H   0  0  0  0  0  0  0  0  0  0  0  0
   21.6217   16.9138   24.0781 H   0  0  0  0  0  0  0  0  0  0  0  0
  1  2  1  0  0  0  0
  1  3  2  0  0  0  0
  1  4  1  0  0  0  0
  4  5  1  0  0  0  0
  4  6  1  0  0  0  0
  4  7  1  0  0  0  0
  7  8  1  0  0  0  0
  7  9  1  0  0  0  0
  7 10  1  0  0  0  0
 10 11  1  0  0  0  0
 10 12  1  0  0  0  0
 10 13  1  0  0  0  0
 13 14  1  0  0  0  0
 13 15  1  0  0  0  0
 13 16  1  0  0  0  0
 16 17  1  0  0  0  0
 16 18  1  0  0  0  0
 16 19  1  0  0  0  0
 19 20  1  0  0  0  0
 19 21  1  0  0  0  0
 19 22  1  0  0  0  0
 22 23  1  0  0  0  0
 22 24  1  0  0  0  0
 22 25  1  0  0  0  0
M  END
> <VConfSearch Rank>
266

> <Conf_Id>
75

> <Delta U+W>
1.014

> <U+W>
-50.615

> <U>
8.474

> <W>
-59.089

> <W(PB)>
-61.530

> <W(SA)>
2.441

> <Valence>
9.080

> <Coulomb>
-1.772

> <VdW>
1.165

> <VdW6>
-9.830

> <VdW12>
10.996

> <Bond>
0.240

> <Angle>
3.225

> <Pdih>
5.615

> <Idih>
0.001

> <Tether>
0.000

$$$$
VeraChem MOL file


 25 24  0  0  0  0  0  0  0  0999 V2000     
   18.8880   18.9671   27.3382 C   0  0  0  0  0  0  0  0  0  0  0  0
   19.5493   19.7653   27.9724 O   0  5  0  0  0  0  0  0  0  0  0  0
   17.7836   18.5889   27.6757 O   0  0  0  0  0  0  0  0  0  0  0  0
   19.4671   18.4263   26.0358 C   0  0  0  0  0  0  0  0  0  0  0  0
   19.1032   17.4006   25.9011 H   0  0  0  0  0  0  0  0  0  0  0  0
   20.5571   18.3721   26.1443 H   0  0  0  0  0  0  0  0  0  0  0  0
   19.0946   19.2915   24.8067 C   0  0  0  0  0  0  0  0  0  0  0  0
   18.0006   19.3466   24.7196 H   0  0  0  0  0  0  0  0  0  0  0  0
   19.4544   20.3180   24.9633 H   0  0  0  0  0  0  0  0  0  0  0  0
   19.6938   18.7244   23.5015 C   0  0  0  0  0  0  0  0  0  0  0  0
   19.3319   17.6984   23.3494 H   0  0  0  0  0  0  0  0  0  0  0  0
   20.7840   18.6618   23.6004 H   0  0  0  0  0  0  0  0  0  0  0  0
   19.3139   19.5887   22.2762 C   0  0  0  0  0  0  0  0  0  0  0  0
   18.2186   19.6009   22.1928 H   0  0  0  0  0  0  0  0  0  0  0  0
   19.6205   20.6318   22.4339 H   0  0  0  0  0  0  0  0  0  0  0  0
   19.9020   19.0579   20.9440 C   0  0  0  0  0  0  0  0  0  0  0  0
   19.1640   19.2366   20.1500 H   0  0  0  0  0  0  0  0  0  0  0  0
   20.0306   17.9680   20.9915 H   0  0  0  0  0  0  0  0  0  0  0  0
   21.2268   19.7314   20.5080 C   0  0  0  0  0  0  0  0  0  0  0  0
   21.5075   19.3412   19.5200 H   0  0  0  0  0  0  0  0  0  0  0  0
   21.0656   20.8104   20.3774 H   0  0  0  0  0  0  0  0  0  0  0  0
   22.4022   19.5038   21.4812 C   0  0  0  0  0  0  0  0  0  0  0  0
   22.5451   18.4344   21.6835 H   0  0  0  0  0  0  0  0  0  0  0  0
   23.3347   19.8957   21.0551 H   0  0  0  0  0  0  0  0  0  0  0  0
   22.2321   20.0201   22.4342 H   0  0  0  0  0  0  0  0  0  0  0  0
  1  2  1  0  0  0  0
  1  3  2  0  0  0  0
  1  4  1  0  0  0  0
  4  5  1  0  0  0  0
  4  6  1  0  0  0  0
  4  7  1  0  0  0  0
  7  8  1  0  0  0  0
  7  9  1  0  0  0  0
  7 10  1  0  0  0  0
 10 11  1  0  0  0  0
 10 12  1  0  0  0  0
 10 13  1  0  0  0  0
 13 14  1  0  0  0  0
 13 15  1  0  0  0  0
 13 16  1  0  0  0  0
 16 17  1  0  0  0  0
 16 18  1  0  0  0  0
 16 19  1  0  0  0  0
 19 20  1  0  0  0  0
 19 21  1  0  0  0  0
 19 22  1  0  0  0  0
 22 23  1  0  0  0  0
 22 24  1  0  0  0  0
 22 25  1  0  0  0  0
M  END
> <VConfSearch Rank>
267

> <Conf_Id>
125

> <Delta U+W>
2.314

> <U+W>
-49.315

> <U>
9.740

> <W>
-59.054

> <W(PB)>
-61.488

> <W(SA)>
2.433

> <Valence>
10.506

> <Coulomb>
-1.761

> <VdW>
0.994

> <VdW6>
-9.209

> <VdW12>
10.203

> <Bond>
0.193

> <Angle>
2.979

> <Pdih>
7.334

> <Idih>
0.001

> <Tether>
0.000

$$$$
VeraChem MOL file


 25 24  0  0  0  0  0  0  0  0999 V2000     
   20.9030   18.6639   19.3181 C   0  0  0  0  0  0  0  0  0  0  0  0
   19.8719   18.2442   18.8309 O   0  5  0  0  0  0  0  0  0  0  0  0
   21.9505   18.7477   18.7078 O   0  0  0  0  0  0  0  0  0  0  0  0
   20.8879   19.0858   20.7829 C   0  0  0  0  0  0  0  0  0  0  0  0
   19.8961   19.4982   21.0002 H   0  0  0  0  0  0  0  0  0  0  0  0
   21.6136   19.8979   20.9104 H   0  0  0  0  0  0  0  0  0  0  0  0
   21.2178   17.9167   21.7471 C   0  0  0  0  0  0  0  0  0  0  0  0
   20.4575   17.1302   21.6436 H   0  0  0  0  0  0  0  0  0  0  0  0
   22.1727   17.4669   21.4418 H   0  0  0  0  0  0  0  0  0  0  0  0
   21.3249   18.3487   23.2290 C   0  0  0  0  0  0  0  0  0  0  0  0
   22.0924   19.1282   23.3306 H   0  0  0  0  0  0  0  0  0  0  0  0
   21.6747   17.4895   23.8174 H   0  0  0  0  0  0  0  0  0  0  0  0
   19.9885   18.8538   23.8206 C   0  0  0  0  0  0  0  0  0  0  0  0
   19.6652   19.7531   23.2828 H   0  0  0  0  0  0  0  0  0  0  0  0
   19.2108   18.0922   23.6732 H   0  0  0  0  0  0  0  0  0  0  0  0
   20.1179   19.1741   25.3279 C   0  0  0  0  0  0  0  0  0  0  0  0
   20.8618   19.9691   25.4745 H   0  0  0  0  0  0  0  0  0  0  0  0
   20.5029   18.2877   25.8504 H   0  0  0  0  0  0  0  0  0  0  0  0
   18.7812   19.5887   25.9859 C   0  0  0  0  0  0  0  0  0  0  0  0
   18.0362   18.7933   25.8458 H   0  0  0  0  0  0  0  0  0  0  0  0
   18.9359   19.6813   27.0697 H   0  0  0  0  0  0  0  0  0  0  0  0
   18.2226   20.9241   25.4480 C   0  0  0  0  0  0  0  0  0  0  0  0
   17.9417   20.8442   24.3905 H   0  0  0  0  0  0  0  0  0  0  0  0
   17.3256   21.2182   26.0082 H   0  0  0  0  0  0  0  0  0  0  0  0
   18.9627   21.7286   25.5485 H   0  0  0  0  0  0  0  0  0  0  0  0
  1  2  1  0  0  0  0
  1  3  2  0  0  0  0
  1  4  1  0  0  0  0
  4  5  1  0  0  0  0
  4  6  1  0  0  0  0
  4  7  1  0  0  0  0
  7  8  1  0  0  0  0
  7  9  1  0  0  0  0
  7 10  1  0  0  0  0
 10 11  1  0  0  0  0
 10 12  1  0  0  0  0
 10 13  1  0  0  0  0
 13 14  1  0  0  0  0
 13 15  1  0  0  0  0
 13 16  1  0  0  0  0
 16 17  1  0  0  0  0
 16 18  1  0  0  0  0
 16 19  1  0  0  0  0
 19 20  1  0  0  0  0
 19 21  1  0  0  0  0
 19 22  1  0  0  0  0
 22 23  1  0  0  0  0
 22 24  1  0  0  0  0
 22 25  1  0  0  0  0
M  END
> <VConfSearch Rank>
268

> <Conf_Id>
4

> <Delta U+W>
0.189

> <U+W>
-51.441

> <U>
7.701

> <W>
-59.141

> <W(PB)>
-61.609

> <W(SA)>
2.467

> <Valence>
8.550

> <Coulomb>
-1.988

> <VdW>
1.139

> <VdW6>
-8.988

> <VdW12>
10.127

> <Bond>
0.191

> <Angle>
2.738

> <Pdih>
5.621

> <Idih>
0.001

> <Tether>
0.000

$$$$
VeraChem MOL file


 25 24  0  0  0  0  0  0  0  0999 V2000     
   20.6756   19.6888   19.2878 C   0  0  0  0  0  0  0  0  0  0  0  0
   21.5529   18.8968   19.0052 O   0  5  0  0  0  0  0  0  0  0  0  0
   20.0637   20.3381   18.4628 O   0  0  0  0  0  0  0  0  0  0  0  0
   20.3059   19.8601   20.7568 C   0  0  0  0  0  0  0  0  0  0  0  0
   19.9760   20.8951   20.9061 H   0  0  0  0  0  0  0  0  0  0  0  0
   21.2180   19.7204   21.3480 H   0  0  0  0  0  0  0  0  0  0  0  0
   19.2001   18.8743   21.2156 C   0  0  0  0  0  0  0  0  0  0  0  0
   18.3369   18.9750   20.5431 H   0  0  0  0  0  0  0  0  0  0  0  0
   19.5600   17.8420   21.1054 H   0  0  0  0  0  0  0  0  0  0  0  0
   18.7257   19.1101   22.6694 C   0  0  0  0  0  0  0  0  0  0  0  0
   17.8686   18.4519   22.8668 H   0  0  0  0  0  0  0  0  0  0  0  0
   18.3572   20.1399   22.7738 H   0  0  0  0  0  0  0  0  0  0  0  0
   19.8221   18.8399   23.7258 C   0  0  0  0  0  0  0  0  0  0  0  0
   20.2235   17.8268   23.5872 H   0  0  0  0  0  0  0  0  0  0  0  0
   20.6539   19.5392   23.5790 H   0  0  0  0  0  0  0  0  0  0  0  0
   19.2747   18.9856   25.1647 C   0  0  0  0  0  0  0  0  0  0  0  0
   18.4024   18.3286   25.2840 H   0  0  0  0  0  0  0  0  0  0  0  0
   18.9150   20.0117   25.3214 H   0  0  0  0  0  0  0  0  0  0  0  0
   20.3104   18.6281   26.2561 C   0  0  0  0  0  0  0  0  0  0  0  0
   19.8103   18.6420   27.2343 H   0  0  0  0  0  0  0  0  0  0  0  0
   20.6685   17.6003   26.1055 H   0  0  0  0  0  0  0  0  0  0  0  0
   21.5129   19.5961   26.2993 C   0  0  0  0  0  0  0  0  0  0  0  0
   21.1774   20.6346   26.4176 H   0  0  0  0  0  0  0  0  0  0  0  0
   22.1696   19.3547   27.1451 H   0  0  0  0  0  0  0  0  0  0  0  0
   22.1137   19.5301   25.3836 H   0  0  0  0  0  0  0  0  0  0  0  0
  1  2  1  0  0  0  0
  1  3  2  0  0  0  0
  1  4  1  0  0  0  0
  4  5  1  0  0  0  0
  4  6  1  0  0  0  0
  4  7  1  0  0  0  0
  7  8  1  0  0  0  0
  7  9  1  0  0  0  0
  7 10  1  0  0  0  0
 10 11  1  0  0  0  0
 10 12  1  0  0  0  0
 10 13  1  0  0  0  0
 13 14  1  0  0  0  0
 13 15  1  0  0  0  0
 13 16  1  0  0  0  0
 16 17  1  0  0  0  0
 16 18  1  0  0  0  0
 16 19  1  0  0  0  0
 19 20  1  0  0  0  0
 19 21  1  0  0  0  0
 19 22  1  0  0  0  0
 22 23  1  0  0  0  0
 22 24  1  0  0  0  0
 22 25  1  0  0  0  0
M  END
> <VConfSearch Rank>
269

> <Conf_Id>
17

> <Delta U+W>
0.219

> <U+W>
-51.411

> <U>
7.701

> <W>
-59.111

> <W(PB)>
-61.599

> <W(SA)>
2.488

> <Valence>
8.550

> <Coulomb>
-1.988

> <VdW>
1.139

> <VdW6>
-8.988

> <VdW12>
10.127

> <Bond>
0.191

> <Angle>
2.738

> <Pdih>
5.621

> <Idih>
0.001

> <Tether>
0.000

$$$$
VeraChem MOL file


 25 24  0  0  0  0  0  0  0  0999 V2000     
   20.1780   20.4506   19.7878 C   0  0  0  0  0  0  0  0  0  0  0  0
   20.3864   19.4996   19.0603 O   0  5  0  0  0  0  0  0  0  0  0  0
   20.9568   21.3728   19.9294 O   0  0  0  0  0  0  0  0  0  0  0  0
   18.8578   20.5010   20.5517 C   0  0  0  0  0  0  0  0  0  0  0  0
   18.1445   19.8267   20.0625 H   0  0  0  0  0  0  0  0  0  0  0  0
   18.4570   21.5162   20.4480 H   0  0  0  0  0  0  0  0  0  0  0  0
   18.9874   20.1461   22.0557 C   0  0  0  0  0  0  0  0  0  0  0  0
   19.7197   20.8208   22.5183 H   0  0  0  0  0  0  0  0  0  0  0  0
   18.0250   20.3336   22.5507 H   0  0  0  0  0  0  0  0  0  0  0  0
   19.4000   18.6719   22.2825 C   0  0  0  0  0  0  0  0  0  0  0  0
   20.3947   18.4923   21.8517 H   0  0  0  0  0  0  0  0  0  0  0  0
   18.7048   18.0188   21.7377 H   0  0  0  0  0  0  0  0  0  0  0  0
   19.4008   18.2546   23.7724 C   0  0  0  0  0  0  0  0  0  0  0  0
   18.4047   18.4251   24.2030 H   0  0  0  0  0  0  0  0  0  0  0  0
   19.5833   17.1729   23.8302 H   0  0  0  0  0  0  0  0  0  0  0  0
   20.4672   18.9896   24.6172 C   0  0  0  0  0  0  0  0  0  0  0  0
   20.2560   20.0667   24.6327 H   0  0  0  0  0  0  0  0  0  0  0  0
   21.4547   18.8628   24.1529 H   0  0  0  0  0  0  0  0  0  0  0  0
   20.5083   18.4630   26.0673 C   0  0  0  0  0  0  0  0  0  0  0  0
   19.5212   18.5868   26.5340 H   0  0  0  0  0  0  0  0  0  0  0  0
   20.7276   17.3863   26.0648 H   0  0  0  0  0  0  0  0  0  0  0  0
   21.5695   19.1994   26.9094 C   0  0  0  0  0  0  0  0  0  0  0  0
   21.3566   20.2755   26.9560 H   0  0  0  0  0  0  0  0  0  0  0  0
   21.5852   18.8124   27.9366 H   0  0  0  0  0  0  0  0  0  0  0  0
   22.5718   19.0665   26.4817 H   0  0  0  0  0  0  0  0  0  0  0  0
  1  2  1  0  0  0  0
  1  3  2  0  0  0  0
  1  4  1  0  0  0  0
  4  5  1  0  0  0  0
  4  6  1  0  0  0  0
  4  7  1  0  0  0  0
  7  8  1  0  0  0  0
  7  9  1  0  0  0  0
  7 10  1  0  0  0  0
 10 11  1  0  0  0  0
 10 12  1  0  0  0  0
 10 13  1  0  0  0  0
 13 14  1  0  0  0  0
 13 15  1  0  0  0  0
 13 16  1  0  0  0  0
 16 17  1  0  0  0  0
 16 18  1  0  0  0  0
 16 19  1  0  0  0  0
 19 20  1  0  0  0  0
 19 21  1  0  0  0  0
 19 22  1  0  0  0  0
 22 23  1  0  0  0  0
 22 24  1  0  0  0  0
 22 25  1  0  0  0  0
M  END
> <VConfSearch Rank>
270

> <Conf_Id>
142

> <Delta U+W>
0.593

> <U+W>
-51.037

> <U>
8.903

> <W>
-59.940

> <W(PB)>
-62.418

> <W(SA)>
2.478

> <Valence>
8.305

> <Coulomb>
-0.223

> <VdW>
0.821

> <VdW6>
-9.236

> <VdW12>
10.057

> <Bond>
0.173

> <Angle>
2.663

> <Pdih>
5.469

> <Idih>
0.001

> <Tether>
0.000

$$$$
VeraChem MOL file


 25 24  0  0  0  0  0  0  0  0999 V2000     
   22.3828   21.9428   22.9943 C   0  0  0  0  0  0  0  0  0  0  0  0
   23.5001   22.2994   23.3138 O   0  5  0  0  0  0  0  0  0  0  0  0
   21.9175   22.1056   21.8834 O   0  0  0  0  0  0  0  0  0  0  0  0
   21.5093   21.2799   24.0556 C   0  0  0  0  0  0  0  0  0  0  0  0
   20.4711   21.2760   23.7040 H   0  0  0  0  0  0  0  0  0  0  0  0
   21.5335   21.9204   24.9448 H   0  0  0  0  0  0  0  0  0  0  0  0
   21.9607   19.8451   24.4426 C   0  0  0  0  0  0  0  0  0  0  0  0
   22.9782   19.8954   24.8542 H   0  0  0  0  0  0  0  0  0  0  0  0
   21.3254   19.4734   25.2568 H   0  0  0  0  0  0  0  0  0  0  0  0
   21.9509   18.8319   23.2687 C   0  0  0  0  0  0  0  0  0  0  0  0
   22.2898   17.8562   23.6423 H   0  0  0  0  0  0  0  0  0  0  0  0
   22.6939   19.1432   22.5216 H   0  0  0  0  0  0  0  0  0  0  0  0
   20.5842   18.6512   22.5617 C   0  0  0  0  0  0  0  0  0  0  0  0
   20.2830   19.5935   22.0847 H   0  0  0  0  0  0  0  0  0  0  0  0
   20.7109   17.9263   21.7462 H   0  0  0  0  0  0  0  0  0  0  0  0
   19.4616   18.1573   23.5032 C   0  0  0  0  0  0  0  0  0  0  0  0
   19.2725   18.9061   24.2834 H   0  0  0  0  0  0  0  0  0  0  0  0
   19.7857   17.2386   24.0107 H   0  0  0  0  0  0  0  0  0  0  0  0
   18.1505   17.8876   22.7352 C   0  0  0  0  0  0  0  0  0  0  0  0
   17.8259   18.8049   22.2245 H   0  0  0  0  0  0  0  0  0  0  0  0
   18.3258   17.1332   21.9558 H   0  0  0  0  0  0  0  0  0  0  0  0
   17.0303   17.4010   23.6764 C   0  0  0  0  0  0  0  0  0  0  0  0
   16.8118   18.1513   24.4476 H   0  0  0  0  0  0  0  0  0  0  0  0
   16.1063   17.2142   23.1139 H   0  0  0  0  0  0  0  0  0  0  0  0
   17.3167   16.4673   24.1778 H   0  0  0  0  0  0  0  0  0  0  0  0
  1  2  1  0  0  0  0
  1  3  2  0  0  0  0
  1  4  1  0  0  0  0
  4  5  1  0  0  0  0
  4  6  1  0  0  0  0
  4  7  1  0  0  0  0
  7  8  1  0  0  0  0
  7  9  1  0  0  0  0
  7 10  1  0  0  0  0
 10 11  1  0  0  0  0
 10 12  1  0  0  0  0
 10 13  1  0  0  0  0
 13 14  1  0  0  0  0
 13 15  1  0  0  0  0
 13 16  1  0  0  0  0
 16 17  1  0  0  0  0
 16 18  1  0  0  0  0
 16 19  1  0  0  0  0
 19 20  1  0  0  0  0
 19 21  1  0  0  0  0
 19 22  1  0  0  0  0
 22 23  1  0  0  0  0
 22 24  1  0  0  0  0
 22 25  1  0  0  0  0
M  END
> <VConfSearch Rank>
271

> <Conf_Id>
135

> <Delta U+W>
1.314

> <U+W>
-50.316

> <U>
9.773

> <W>
-60.088

> <W(PB)>
-62.535

> <W(SA)>
2.447

> <Valence>
8.741

> <Coulomb>
0.479

> <VdW>
0.552

> <VdW6>
-10.627

> <VdW12>
11.179

> <Bond>
0.227

> <Angle>
3.155

> <Pdih>
5.358

> <Idih>
0.001

> <Tether>
0.000

$$$$
VeraChem MOL file


 25 24  0  0  0  0  0  0  0  0999 V2000     
   19.4184   15.1439   22.3331 C   0  0  0  0  0  0  0  0  0  0  0  0
   20.2629   14.3957   22.7846 O   0  5  0  0  0  0  0  0  0  0  0  0
   18.3132   14.7788   21.9839 O   0  0  0  0  0  0  0  0  0  0  0  0
   19.7561   16.6262   22.2197 C   0  0  0  0  0  0  0  0  0  0  0  0
   19.2139   17.0331   21.3578 H   0  0  0  0  0  0  0  0  0  0  0  0
   20.8261   16.7071   21.9988 H   0  0  0  0  0  0  0  0  0  0  0  0
   19.3974   17.4221   23.5018 C   0  0  0  0  0  0  0  0  0  0  0  0
   18.3418   17.2374   23.7444 H   0  0  0  0  0  0  0  0  0  0  0  0
   19.9816   17.0380   24.3494 H   0  0  0  0  0  0  0  0  0  0  0  0
   19.6124   18.9486   23.3661 C   0  0  0  0  0  0  0  0  0  0  0  0
   19.1876   19.4286   24.2567 H   0  0  0  0  0  0  0  0  0  0  0  0
   19.0475   19.3262   22.5030 H   0  0  0  0  0  0  0  0  0  0  0  0
   21.1005   19.3529   23.2380 C   0  0  0  0  0  0  0  0  0  0  0  0
   21.6459   19.0231   24.1326 H   0  0  0  0  0  0  0  0  0  0  0  0
   21.5526   18.8251   22.3892 H   0  0  0  0  0  0  0  0  0  0  0  0
   21.3301   20.8708   23.0262 C   0  0  0  0  0  0  0  0  0  0  0  0
   20.8670   21.1932   22.0836 H   0  0  0  0  0  0  0  0  0  0  0  0
   22.4098   21.0260   22.8957 H   0  0  0  0  0  0  0  0  0  0  0  0
   20.8521   21.7696   24.1940 C   0  0  0  0  0  0  0  0  0  0  0  0
   20.8643   21.2073   25.1379 H   0  0  0  0  0  0  0  0  0  0  0  0
   21.5689   22.5928   24.3203 H   0  0  0  0  0  0  0  0  0  0  0  0
   19.4554   22.3852   23.9545 C   0  0  0  0  0  0  0  0  0  0  0  0
   18.6860   21.6150   23.8281 H   0  0  0  0  0  0  0  0  0  0  0  0
   19.1627   23.0157   24.8039 H   0  0  0  0  0  0  0  0  0  0  0  0
   19.4555   23.0137   23.0544 H   0  0  0  0  0  0  0  0  0  0  0  0
  1  2  1  0  0  0  0
  1  3  2  0  0  0  0
  1  4  1  0  0  0  0
  4  5  1  0  0  0  0
  4  6  1  0  0  0  0
  4  7  1  0  0  0  0
  7  8  1  0  0  0  0
  7  9  1  0  0  0  0
  7 10  1  0  0  0  0
 10 11  1  0  0  0  0
 10 12  1  0  0  0  0
 10 13  1  0  0  0  0
 13 14  1  0  0  0  0
 13 15  1  0  0  0  0
 13 16  1  0  0  0  0
 16 17  1  0  0  0  0
 16 18  1  0  0  0  0
 16 19  1  0  0  0  0
 19 20  1  0  0  0  0
 19 21  1  0  0  0  0
 19 22  1  0  0  0  0
 22 23  1  0  0  0  0
 22 24  1  0  0  0  0
 22 25  1  0  0  0  0
M  END
> <VConfSearch Rank>
272

> <Conf_Id>
19

> <Delta U+W>
3.222

> <U+W>
-48.407

> <U>
10.617

> <W>
-59.025

> <W(PB)>
-61.462

> <W(SA)>
2.437

> <Valence>
11.188

> <Coulomb>
-1.778

> <VdW>
1.208

> <VdW6>
-9.786

> <VdW12>
10.993

> <Bond>
0.241

> <Angle>
3.294

> <Pdih>
7.653

> <Idih>
0.001

> <Tether>
0.000

$$$$
VeraChem MOL file


 25 24  0  0  0  0  0  0  0  0999 V2000     
   21.7951   20.2035   26.9798 C   0  0  0  0  0  0  0  0  0  0  0  0
   22.8114   19.5868   27.2322 O   0  5  0  0  0  0  0  0  0  0  0  0
   21.1201   20.7620   27.8219 O   0  0  0  0  0  0  0  0  0  0  0  0
   21.3285   20.2600   25.5295 C   0  0  0  0  0  0  0  0  0  0  0  0
   22.2206   20.2645   24.8936 H   0  0  0  0  0  0  0  0  0  0  0  0
   20.8137   21.2158   25.3754 H   0  0  0  0  0  0  0  0  0  0  0  0
   20.3922   19.0815   25.1551 C   0  0  0  0  0  0  0  0  0  0  0  0
   20.9327   18.1314   25.2670 H   0  0  0  0  0  0  0  0  0  0  0  0
   19.5621   19.0519   25.8746 H   0  0  0  0  0  0  0  0  0  0  0  0
   19.8037   19.1847   23.7275 C   0  0  0  0  0  0  0  0  0  0  0  0
   19.2854   20.1460   23.6099 H   0  0  0  0  0  0  0  0  0  0  0  0
   19.0440   18.4004   23.6194 H   0  0  0  0  0  0  0  0  0  0  0  0
   20.8618   19.0180   22.6108 C   0  0  0  0  0  0  0  0  0  0  0  0
   21.6619   19.7556   22.7500 H   0  0  0  0  0  0  0  0  0  0  0  0
   21.3336   18.0301   22.7005 H   0  0  0  0  0  0  0  0  0  0  0  0
   20.3033   19.1928   21.1759 C   0  0  0  0  0  0  0  0  0  0  0  0
   21.1492   19.1073   20.4800 H   0  0  0  0  0  0  0  0  0  0  0  0
   19.9127   20.2113   21.0459 H   0  0  0  0  0  0  0  0  0  0  0  0
   19.2335   18.1509   20.7634 C   0  0  0  0  0  0  0  0  0  0  0  0
   19.3843   17.8916   19.7063 H   0  0  0  0  0  0  0  0  0  0  0  0
   19.3709   17.2188   21.3286 H   0  0  0  0  0  0  0  0  0  0  0  0
   17.7869   18.6686   20.9263 C   0  0  0  0  0  0  0  0  0  0  0  0
   17.6177   19.5559   20.3024 H   0  0  0  0  0  0  0  0  0  0  0  0
   17.0667   17.8997   20.6182 H   0  0  0  0  0  0  0  0  0  0  0  0
   17.5646   18.9390   21.9649 H   0  0  0  0  0  0  0  0  0  0  0  0
  1  2  1  0  0  0  0
  1  3  2  0  0  0  0
  1  4  1  0  0  0  0
  4  5  1  0  0  0  0
  4  6  1  0  0  0  0
  4  7  1  0  0  0  0
  7  8  1  0  0  0  0
  7  9  1  0  0  0  0
  7 10  1  0  0  0  0
 10 11  1  0  0  0  0
 10 12  1  0  0  0  0
 10 13  1  0  0  0  0
 13 14  1  0  0  0  0
 13 15  1  0  0  0  0
 13 16  1  0  0  0  0
 16 17  1  0  0  0  0
 16 18  1  0  0  0  0
 16 19  1  0  0  0  0
 19 20  1  0  0  0  0
 19 21  1  0  0  0  0
 19 22  1  0  0  0  0
 22 23  1  0  0  0  0
 22 24  1  0  0  0  0
 22 25  1  0  0  0  0
M  END
> <VConfSearch Rank>
273

> <Conf_Id>
20

> <Delta U+W>
3.224

> <U+W>
-48.406

> <U>
10.617

> <W>
-59.023

> <W(PB)>
-61.467

> <W(SA)>
2.444

> <Valence>
11.188

> <Coulomb>
-1.778

> <VdW>
1.208

> <VdW6>
-9.786

> <VdW12>
10.993

> <Bond>
0.241

> <Angle>
3.294

> <Pdih>
7.653

> <Idih>
0.001

> <Tether>
0.000

$$$$
VeraChem MOL file


 25 24  0  0  0  0  0  0  0  0999 V2000     
   21.7775   17.5609   21.6275 C   0  0  0  0  0  0  0  0  0  0  0  0
   21.0702   17.1798   20.7153 O   0  5  0  0  0  0  0  0  0  0  0  0
   22.1210   16.8503   22.5518 O   0  0  0  0  0  0  0  0  0  0  0  0
   22.3186   18.9886   21.5776 C   0  0  0  0  0  0  0  0  0  0  0  0
   22.9543   19.0461   20.6865 H   0  0  0  0  0  0  0  0  0  0  0  0
   22.9739   19.1519   22.4417 H   0  0  0  0  0  0  0  0  0  0  0  0
   21.2390   20.1048   21.5017 C   0  0  0  0  0  0  0  0  0  0  0  0
   21.7167   21.0123   21.1083 H   0  0  0  0  0  0  0  0  0  0  0  0
   20.4662   19.8294   20.7707 H   0  0  0  0  0  0  0  0  0  0  0  0
   20.5828   20.4671   22.8571 C   0  0  0  0  0  0  0  0  0  0  0  0
   19.9584   21.3585   22.7072 H   0  0  0  0  0  0  0  0  0  0  0  0
   21.3596   20.7526   23.5795 H   0  0  0  0  0  0  0  0  0  0  0  0
   19.7070   19.3422   23.4540 C   0  0  0  0  0  0  0  0  0  0  0  0
   18.9979   18.9846   22.6948 H   0  0  0  0  0  0  0  0  0  0  0  0
   20.3367   18.4882   23.7335 H   0  0  0  0  0  0  0  0  0  0  0  0
   18.9323   19.8220   24.7007 C   0  0  0  0  0  0  0  0  0  0  0  0
   18.2913   20.6725   24.4309 H   0  0  0  0  0  0  0  0  0  0  0  0
   19.6427   20.1837   25.4567 H   0  0  0  0  0  0  0  0  0  0  0  0
   18.0663   18.6963   25.3041 C   0  0  0  0  0  0  0  0  0  0  0  0
   17.3540   18.3328   24.5505 H   0  0  0  0  0  0  0  0  0  0  0  0
   18.7045   17.8442   25.5769 H   0  0  0  0  0  0  0  0  0  0  0  0
   17.2944   19.1780   26.5490 C   0  0  0  0  0  0  0  0  0  0  0  0
   16.6241   20.0104   26.2978 H   0  0  0  0  0  0  0  0  0  0  0  0
   16.6846   18.3654   26.9646 H   0  0  0  0  0  0  0  0  0  0  0  0
   17.9849   19.5181   27.3320 H   0  0  0  0  0  0  0  0  0  0  0  0
  1  2  1  0  0  0  0
  1  3  2  0  0  0  0
  1  4  1  0  0  0  0
  4  5  1  0  0  0  0
  4  6  1  0  0  0  0
  4  7  1  0  0  0  0
  7  8  1  0  0  0  0
  7  9  1  0  0  0  0
  7 10  1  0  0  0  0
 10 11  1  0  0  0  0
 10 12  1  0  0  0  0
 10 13  1  0  0  0  0
 13 14  1  0  0  0  0
 13 15  1  0  0  0  0
 13 16  1  0  0  0  0
 16 17  1  0  0  0  0
 16 18  1  0  0  0  0
 16 19  1  0  0  0  0
 19 20  1  0  0  0  0
 19 21  1  0  0  0  0
 19 22  1  0  0  0  0
 22 23  1  0  0  0  0
 22 24  1  0  0  0  0
 22 25  1  0  0  0  0
M  END
> <VConfSearch Rank>
274

> <Conf_Id>
24

> <Delta U+W>
1.784

> <U+W>
-49.846

> <U>
10.904

> <W>
-60.749

> <W(PB)>
-63.220

> <W(SA)>
2.471

> <Valence>
9.445

> <Coulomb>
0.780

> <VdW>
0.679

> <VdW6>
-10.008

> <VdW12>
10.687

> <Bond>
0.201

> <Angle>
3.198

> <Pdih>
6.039

> <Idih>
0.006

> <Tether>
0.000

$$$$
VeraChem MOL file


 25 24  0  0  0  0  0  0  0  0999 V2000     
   23.2045   18.3209   22.8853 C   0  0  0  0  0  0  0  0  0  0  0  0
   23.2363   17.1366   22.6129 O   0  5  0  0  0  0  0  0  0  0  0  0
   23.2344   19.2024   22.0492 O   0  0  0  0  0  0  0  0  0  0  0  0
   23.1935   18.7260   24.3582 C   0  0  0  0  0  0  0  0  0  0  0  0
   23.2165   19.8203   24.4271 H   0  0  0  0  0  0  0  0  0  0  0  0
   24.1369   18.3650   24.7839 H   0  0  0  0  0  0  0  0  0  0  0  0
   22.0115   18.1583   25.1935 C   0  0  0  0  0  0  0  0  0  0  0  0
   21.8634   17.0951   24.9585 H   0  0  0  0  0  0  0  0  0  0  0  0
   22.2966   18.1962   26.2536 H   0  0  0  0  0  0  0  0  0  0  0  0
   20.6765   18.9278   25.0364 C   0  0  0  0  0  0  0  0  0  0  0  0
   20.8289   19.9871   25.2843 H   0  0  0  0  0  0  0  0  0  0  0  0
   19.9670   18.5363   25.7782 H   0  0  0  0  0  0  0  0  0  0  0  0
   20.0422   18.8093   23.6320 C   0  0  0  0  0  0  0  0  0  0  0  0
   20.6772   19.3133   22.8926 H   0  0  0  0  0  0  0  0  0  0  0  0
   19.9861   17.7514   23.3406 H   0  0  0  0  0  0  0  0  0  0  0  0
   18.6306   19.4338   23.5882 C   0  0  0  0  0  0  0  0  0  0  0  0
   18.6880   20.4901   23.8846 H   0  0  0  0  0  0  0  0  0  0  0  0
   17.9829   18.9309   24.3193 H   0  0  0  0  0  0  0  0  0  0  0  0
   18.0011   19.3262   22.1834 C   0  0  0  0  0  0  0  0  0  0  0  0
   18.6455   19.8298   21.4495 H   0  0  0  0  0  0  0  0  0  0  0  0
   17.9416   18.2705   21.8842 H   0  0  0  0  0  0  0  0  0  0  0  0
   16.5919   19.9509   22.1426 C   0  0  0  0  0  0  0  0  0  0  0  0
   16.6266   21.0159   22.4074 H   0  0  0  0  0  0  0  0  0  0  0  0
   16.1599   19.8656   21.1370 H   0  0  0  0  0  0  0  0  0  0  0  0
   15.9173   19.4447   22.8454 H   0  0  0  0  0  0  0  0  0  0  0  0
  1  2  1  0  0  0  0
  1  3  2  0  0  0  0
  1  4  1  0  0  0  0
  4  5  1  0  0  0  0
  4  6  1  0  0  0  0
  4  7  1  0  0  0  0
  7  8  1  0  0  0  0
  7  9  1  0  0  0  0
  7 10  1  0  0  0  0
 10 11  1  0  0  0  0
 10 12  1  0  0  0  0
 10 13  1  0  0  0  0
 13 14  1  0  0  0  0
 13 15  1  0  0  0  0
 13 16  1  0  0  0  0
 16 17  1  0  0  0  0
 16 18  1  0  0  0  0
 16 19  1  0  0  0  0
 19 20  1  0  0  0  0
 19 21  1  0  0  0  0
 19 22  1  0  0  0  0
 22 23  1  0  0  0  0
 22 24  1  0  0  0  0
 22 25  1  0  0  0  0
M  END
> <VConfSearch Rank>
275

> <Conf_Id>
9

> <Delta U+W>
1.764

> <U+W>
-49.865

> <U>
10.902

> <W>
-60.768

> <W(PB)>
-63.223

> <W(SA)>
2.456

> <Valence>
9.445

> <Coulomb>
0.778

> <VdW>
0.679

> <VdW6>
-10.007

> <VdW12>
10.687

> <Bond>
0.201

> <Angle>
3.198

> <Pdih>
6.040

> <Idih>
0.006

> <Tether>
0.000

$$$$
VeraChem MOL file


 25 24  0  0  0  0  0  0  0  0999 V2000     
   16.9117   17.7313   21.9331 C   0  0  0  0  0  0  0  0  0  0  0  0
   17.1178   18.2870   20.8723 O   0  5  0  0  0  0  0  0  0  0  0  0
   16.1194   16.8206   22.0734 O   0  0  0  0  0  0  0  0  0  0  0  0
   17.7058   18.1880   23.1516 C   0  0  0  0  0  0  0  0  0  0  0  0
   17.0692   18.0638   24.0357 H   0  0  0  0  0  0  0  0  0  0  0  0
   17.8964   19.2602   23.0440 H   0  0  0  0  0  0  0  0  0  0  0  0
   19.0296   17.3995   23.3345 C   0  0  0  0  0  0  0  0  0  0  0  0
   18.7764   16.3358   23.4440 H   0  0  0  0  0  0  0  0  0  0  0  0
   19.6437   17.4752   22.4264 H   0  0  0  0  0  0  0  0  0  0  0  0
   19.8475   17.8439   24.5738 C   0  0  0  0  0  0  0  0  0  0  0  0
   20.3364   16.9555   24.9963 H   0  0  0  0  0  0  0  0  0  0  0  0
   19.1767   18.2171   25.3597 H   0  0  0  0  0  0  0  0  0  0  0  0
   20.9544   18.8868   24.2777 C   0  0  0  0  0  0  0  0  0  0  0  0
   21.5192   19.0624   25.2033 H   0  0  0  0  0  0  0  0  0  0  0  0
   21.6652   18.4600   23.5580 H   0  0  0  0  0  0  0  0  0  0  0  0
   20.4261   20.2409   23.7480 C   0  0  0  0  0  0  0  0  0  0  0  0
   19.6064   20.5844   24.3935 H   0  0  0  0  0  0  0  0  0  0  0  0
   20.0058   20.1076   22.7426 H   0  0  0  0  0  0  0  0  0  0  0  0
   21.5097   21.3431   23.6984 C   0  0  0  0  0  0  0  0  0  0  0  0
   21.0358   22.2910   23.4083 H   0  0  0  0  0  0  0  0  0  0  0  0
   21.9266   21.4994   24.7029 H   0  0  0  0  0  0  0  0  0  0  0  0
   22.6505   21.0319   22.7054 C   0  0  0  0  0  0  0  0  0  0  0  0
   22.2548   20.8468   21.6983 H   0  0  0  0  0  0  0  0  0  0  0  0
   23.3483   21.8770   22.6447 H   0  0  0  0  0  0  0  0  0  0  0  0
   23.2230   20.1496   23.0179 H   0  0  0  0  0  0  0  0  0  0  0  0
  1  2  1  0  0  0  0
  1  3  2  0  0  0  0
  1  4  1  0  0  0  0
  4  5  1  0  0  0  0
  4  6  1  0  0  0  0
  4  7  1  0  0  0  0
  7  8  1  0  0  0  0
  7  9  1  0  0  0  0
  7 10  1  0  0  0  0
 10 11  1  0  0  0  0
 10 12  1  0  0  0  0
 10 13  1  0  0  0  0
 13 14  1  0  0  0  0
 13 15  1  0  0  0  0
 13 16  1  0  0  0  0
 16 17  1  0  0  0  0
 16 18  1  0  0  0  0
 16 19  1  0  0  0  0
 19 20  1  0  0  0  0
 19 21  1  0  0  0  0
 19 22  1  0  0  0  0
 22 23  1  0  0  0  0
 22 24  1  0  0  0  0
 22 25  1  0  0  0  0
M  END
> <VConfSearch Rank>
276

> <Conf_Id>
89

> <Delta U+W>
2.903

> <U+W>
-48.726

> <U>
10.996

> <W>
-59.723

> <W(PB)>
-62.151

> <W(SA)>
2.428

> <Valence>
10.985

> <Coulomb>
-0.995

> <VdW>
1.006

> <VdW6>
-10.062

> <VdW12>
11.069

> <Bond>
0.238

> <Angle>
3.202

> <Pdih>
7.544

> <Idih>
0.001

> <Tether>
0.000

$$$$
VeraChem MOL file


 25 24  0  0  0  0  0  0  0  0999 V2000     
   21.3118   22.2337   22.9554 C   0  0  0  0  0  0  0  0  0  0  0  0
   21.7288   22.0923   21.8225 O   0  5  0  0  0  0  0  0  0  0  0  0
   20.3992   22.9825   23.2454 O   0  0  0  0  0  0  0  0  0  0  0  0
   22.0158   21.4782   24.0810 C   0  0  0  0  0  0  0  0  0  0  0  0
   22.4696   22.2400   24.7253 H   0  0  0  0  0  0  0  0  0  0  0  0
   22.8413   20.8939   23.6570 H   0  0  0  0  0  0  0  0  0  0  0  0
   21.0982   20.5674   24.9447 C   0  0  0  0  0  0  0  0  0  0  0  0
   21.5999   20.3983   25.9070 H   0  0  0  0  0  0  0  0  0  0  0  0
   20.1626   21.0931   25.1809 H   0  0  0  0  0  0  0  0  0  0  0  0
   20.7872   19.1811   24.3271 C   0  0  0  0  0  0  0  0  0  0  0  0
   20.2848   18.5805   25.0954 H   0  0  0  0  0  0  0  0  0  0  0  0
   21.7265   18.6615   24.0940 H   0  0  0  0  0  0  0  0  0  0  0  0
   19.8979   19.2404   23.0614 C   0  0  0  0  0  0  0  0  0  0  0  0
   18.9841   19.8122   23.2732 H   0  0  0  0  0  0  0  0  0  0  0  0
   20.4299   19.7841   22.2713 H   0  0  0  0  0  0  0  0  0  0  0  0
   19.5225   17.8463   22.5037 C   0  0  0  0  0  0  0  0  0  0  0  0
   20.4361   17.2636   22.3231 H   0  0  0  0  0  0  0  0  0  0  0  0
   19.0438   17.9835   21.5245 H   0  0  0  0  0  0  0  0  0  0  0  0
   18.5649   17.0489   23.4184 C   0  0  0  0  0  0  0  0  0  0  0  0
   19.0516   16.8261   24.3766 H   0  0  0  0  0  0  0  0  0  0  0  0
   17.6767   17.6553   23.6431 H   0  0  0  0  0  0  0  0  0  0  0  0
   18.1273   15.7246   22.7604 C   0  0  0  0  0  0  0  0  0  0  0  0
   18.9949   15.0861   22.5489 H   0  0  0  0  0  0  0  0  0  0  0  0
   17.4507   15.1688   23.4225 H   0  0  0  0  0  0  0  0  0  0  0  0
   17.5996   15.9103   21.8157 H   0  0  0  0  0  0  0  0  0  0  0  0
  1  2  1  0  0  0  0
  1  3  2  0  0  0  0
  1  4  1  0  0  0  0
  4  5  1  0  0  0  0
  4  6  1  0  0  0  0
  4  7  1  0  0  0  0
  7  8  1  0  0  0  0
  7  9  1  0  0  0  0
  7 10  1  0  0  0  0
 10 11  1  0  0  0  0
 10 12  1  0  0  0  0
 10 13  1  0  0  0  0
 13 14  1  0  0  0  0
 13 15  1  0  0  0  0
 13 16  1  0  0  0  0
 16 17  1  0  0  0  0
 16 18  1  0  0  0  0
 16 19  1  0  0  0  0
 19 20  1  0  0  0  0
 19 21  1  0  0  0  0
 19 22  1  0  0  0  0
 22 23  1  0  0  0  0
 22 24  1  0  0  0  0
 22 25  1  0  0  0  0
M  END
> <VConfSearch Rank>
277

> <Conf_Id>
114

> <Delta U+W>
2.758

> <U+W>
-48.871

> <U>
11.422

> <W>
-60.293

> <W(PB)>
-62.719

> <W(SA)>
2.425

> <Valence>
10.135

> <Coulomb>
0.369

> <VdW>
0.918

> <VdW6>
-10.482

> <VdW12>
11.400

> <Bond>
0.245

> <Angle>
3.539

> <Pdih>
6.346

> <Idih>
0.006

> <Tether>
0.000

$$$$
VeraChem MOL file


 25 24  0  0  0  0  0  0  0  0999 V2000     
   20.2632   15.6110   21.7931 C   0  0  0  0  0  0  0  0  0  0  0  0
   19.6836   15.7314   20.7317 O   0  5  0  0  0  0  0  0  0  0  0  0
   21.4271   15.2746   21.8897 O   0  0  0  0  0  0  0  0  0  0  0  0
   19.4828   15.8765   23.0774 C   0  0  0  0  0  0  0  0  0  0  0  0
   19.7123   15.0627   23.7753 H   0  0  0  0  0  0  0  0  0  0  0  0
   18.4108   15.8112   22.8554 H   0  0  0  0  0  0  0  0  0  0  0  0
   19.8112   17.2381   23.7431 C   0  0  0  0  0  0  0  0  0  0  0  0
   19.3086   17.2887   24.7183 H   0  0  0  0  0  0  0  0  0  0  0  0
   20.8905   17.2861   23.9386 H   0  0  0  0  0  0  0  0  0  0  0  0
   19.3687   18.4420   22.8770 C   0  0  0  0  0  0  0  0  0  0  0  0
   18.3083   18.3218   22.6167 H   0  0  0  0  0  0  0  0  0  0  0  0
   19.9215   18.4426   21.9274 H   0  0  0  0  0  0  0  0  0  0  0  0
   19.5486   19.8092   23.5791 C   0  0  0  0  0  0  0  0  0  0  0  0
   19.0761   20.5763   22.9526 H   0  0  0  0  0  0  0  0  0  0  0  0
   19.0045   19.8077   24.5333 H   0  0  0  0  0  0  0  0  0  0  0  0
   21.0308   20.1867   23.8227 C   0  0  0  0  0  0  0  0  0  0  0  0
   21.5752   20.1846   22.8686 H   0  0  0  0  0  0  0  0  0  0  0  0
   21.5035   19.4228   24.4528 H   0  0  0  0  0  0  0  0  0  0  0  0
   21.2097   21.5570   24.5175 C   0  0  0  0  0  0  0  0  0  0  0  0
   20.6567   21.5668   25.4669 H   0  0  0  0  0  0  0  0  0  0  0  0
   22.2701   21.6842   24.7754 H   0  0  0  0  0  0  0  0  0  0  0  0
   20.7663   22.7512   23.6445 C   0  0  0  0  0  0  0  0  0  0  0  0
   21.0030   23.6997   24.1436 H   0  0  0  0  0  0  0  0  0  0  0  0
   21.2815   22.7420   22.6751 H   0  0  0  0  0  0  0  0  0  0  0  0
   19.6850   22.7349   23.4604 H   0  0  0  0  0  0  0  0  0  0  0  0
  1  2  1  0  0  0  0
  1  3  2  0  0  0  0
  1  4  1  0  0  0  0
  4  5  1  0  0  0  0
  4  6  1  0  0  0  0
  4  7  1  0  0  0  0
  7  8  1  0  0  0  0
  7  9  1  0  0  0  0
  7 10  1  0  0  0  0
 10 11  1  0  0  0  0
 10 12  1  0  0  0  0
 10 13  1  0  0  0  0
 13 14  1  0  0  0  0
 13 15  1  0  0  0  0
 13 16  1  0  0  0  0
 16 17  1  0  0  0  0
 16 18  1  0  0  0  0
 16 19  1  0  0  0  0
 19 20  1  0  0  0  0
 19 21  1  0  0  0  0
 19 22  1  0  0  0  0
 22 23  1  0  0  0  0
 22 24  1  0  0  0  0
 22 25  1  0  0  0  0
M  END
> <VConfSearch Rank>
278

> <Conf_Id>
87

> <Delta U+W>
1.453

> <U+W>
-50.176

> <U>
9.763

> <W>
-59.940

> <W(PB)>
-62.392

> <W(SA)>
2.452

> <Valence>
8.883

> <Coulomb>
-0.122

> <VdW>
1.003

> <VdW6>
-9.782

> <VdW12>
10.785

> <Bond>
0.212

> <Angle>
2.940

> <Pdih>
5.730

> <Idih>
0.001

> <Tether>
0.000

$$$$
VeraChem MOL file


 25 24  0  0  0  0  0  0  0  0999 V2000     
   17.4943   20.4658   26.0240 C   0  0  0  0  0  0  0  0  0  0  0  0
   18.1407   20.3930   27.0504 O   0  5  0  0  0  0  0  0  0  0  0  0
   16.6517   21.3169   25.8179 O   0  0  0  0  0  0  0  0  0  0  0  0
   17.7684   19.4438   24.9265 C   0  0  0  0  0  0  0  0  0  0  0  0
   16.8289   19.2572   24.3926 H   0  0  0  0  0  0  0  0  0  0  0  0
   18.0631   18.5017   25.4041 H   0  0  0  0  0  0  0  0  0  0  0  0
   18.8649   19.9055   23.9353 C   0  0  0  0  0  0  0  0  0  0  0  0
   18.5601   20.8536   23.4714 H   0  0  0  0  0  0  0  0  0  0  0  0
   19.7884   20.1047   24.4950 H   0  0  0  0  0  0  0  0  0  0  0  0
   19.1279   18.8486   22.8378 C   0  0  0  0  0  0  0  0  0  0  0  0
   18.1802   18.6114   22.3357 H   0  0  0  0  0  0  0  0  0  0  0  0
   19.4713   17.9126   23.2977 H   0  0  0  0  0  0  0  0  0  0  0  0
   20.1450   19.3132   21.7654 C   0  0  0  0  0  0  0  0  0  0  0  0
   20.2295   18.5346   20.9960 H   0  0  0  0  0  0  0  0  0  0  0  0
   19.7396   20.1953   21.2516 H   0  0  0  0  0  0  0  0  0  0  0  0
   21.5602   19.6591   22.2999 C   0  0  0  0  0  0  0  0  0  0  0  0
   21.4984   20.5454   22.9448 H   0  0  0  0  0  0  0  0  0  0  0  0
   22.1920   19.9539   21.4512 H   0  0  0  0  0  0  0  0  0  0  0  0
   22.2679   18.5216   23.0766 C   0  0  0  0  0  0  0  0  0  0  0  0
   23.2429   18.8891   23.4247 H   0  0  0  0  0  0  0  0  0  0  0  0
   21.6979   18.2700   23.9808 H   0  0  0  0  0  0  0  0  0  0  0  0
   22.4896   17.2501   22.2291 C   0  0  0  0  0  0  0  0  0  0  0  0
   23.0444   17.4821   21.3107 H   0  0  0  0  0  0  0  0  0  0  0  0
   23.0662   16.5069   22.7947 H   0  0  0  0  0  0  0  0  0  0  0  0
   21.5353   16.7874   21.9477 H   0  0  0  0  0  0  0  0  0  0  0  0
  1  2  1  0  0  0  0
  1  3  2  0  0  0  0
  1  4  1  0  0  0  0
  4  5  1  0  0  0  0
  4  6  1  0  0  0  0
  4  7  1  0  0  0  0
  7  8  1  0  0  0  0
  7  9  1  0  0  0  0
  7 10  1  0  0  0  0
 10 11  1  0  0  0  0
 10 12  1  0  0  0  0
 10 13  1  0  0  0  0
 13 14  1  0  0  0  0
 13 15  1  0  0  0  0
 13 16  1  0  0  0  0
 16 17  1  0  0  0  0
 16 18  1  0  0  0  0
 16 19  1  0  0  0  0
 19 20  1  0  0  0  0
 19 21  1  0  0  0  0
 19 22  1  0  0  0  0
 22 23  1  0  0  0  0
 22 24  1  0  0  0  0
 22 25  1  0  0  0  0
M  END
> <VConfSearch Rank>
279

> <Conf_Id>
29

> <Delta U+W>
0.850

> <U+W>
-50.780

> <U>
8.646

> <W>
-59.426

> <W(PB)>
-61.868

> <W(SA)>
2.442

> <Valence>
8.924

> <Coulomb>
-1.171

> <VdW>
0.894

> <VdW6>
-10.223

> <VdW12>
11.117

> <Bond>
0.231

> <Angle>
3.232

> <Pdih>
5.461

> <Idih>
0.001

> <Tether>
0.000

$$$$
VeraChem MOL file


 25 24  0  0  0  0  0  0  0  0999 V2000     
   16.6871   18.1029   25.2351 C   0  0  0  0  0  0  0  0  0  0  0  0
   16.7965   16.8930   25.2652 O   0  5  0  0  0  0  0  0  0  0  0  0
   15.6204   18.6810   25.1656 O   0  0  0  0  0  0  0  0  0  0  0  0
   17.9596   18.9418   25.2671 C   0  0  0  0  0  0  0  0  0  0  0  0
   18.7068   18.4049   25.8638 H   0  0  0  0  0  0  0  0  0  0  0  0
   17.7369   19.8785   25.7921 H   0  0  0  0  0  0  0  0  0  0  0  0
   18.5191   19.2399   23.8543 C   0  0  0  0  0  0  0  0  0  0  0  0
   18.7151   18.2886   23.3421 H   0  0  0  0  0  0  0  0  0  0  0  0
   17.7575   19.7700   23.2659 H   0  0  0  0  0  0  0  0  0  0  0  0
   19.8123   20.0851   23.9160 C   0  0  0  0  0  0  0  0  0  0  0  0
   20.5873   19.5389   24.4697 H   0  0  0  0  0  0  0  0  0  0  0  0
   19.6145   20.9996   24.4914 H   0  0  0  0  0  0  0  0  0  0  0  0
   20.3495   20.4930   22.5212 C   0  0  0  0  0  0  0  0  0  0  0  0
   19.5975   21.1185   22.0213 H   0  0  0  0  0  0  0  0  0  0  0  0
   21.2292   21.1363   22.6544 H   0  0  0  0  0  0  0  0  0  0  0  0
   20.7161   19.3141   21.5813 C   0  0  0  0  0  0  0  0  0  0  0  0
   21.1004   19.7253   20.6381 H   0  0  0  0  0  0  0  0  0  0  0  0
   19.8039   18.7646   21.3147 H   0  0  0  0  0  0  0  0  0  0  0  0
   21.7550   18.3161   22.1497 C   0  0  0  0  0  0  0  0  0  0  0  0
   21.3554   17.8248   23.0468 H   0  0  0  0  0  0  0  0  0  0  0  0
   21.9142   17.5180   21.4118 H   0  0  0  0  0  0  0  0  0  0  0  0
   23.1150   18.9705   22.4755 C   0  0  0  0  0  0  0  0  0  0  0  0
   23.0206   19.7029   23.2870 H   0  0  0  0  0  0  0  0  0  0  0  0
   23.8403   18.2111   22.7949 H   0  0  0  0  0  0  0  0  0  0  0  0
   23.5255   19.4821   21.5953 H   0  0  0  0  0  0  0  0  0  0  0  0
  1  2  1  0  0  0  0
  1  3  2  0  0  0  0
  1  4  1  0  0  0  0
  4  5  1  0  0  0  0
  4  6  1  0  0  0  0
  4  7  1  0  0  0  0
  7  8  1  0  0  0  0
  7  9  1  0  0  0  0
  7 10  1  0  0  0  0
 10 11  1  0  0  0  0
 10 12  1  0  0  0  0
 10 13  1  0  0  0  0
 13 14  1  0  0  0  0
 13 15  1  0  0  0  0
 13 16  1  0  0  0  0
 16 17  1  0  0  0  0
 16 18  1  0  0  0  0
 16 19  1  0  0  0  0
 19 20  1  0  0  0  0
 19 21  1  0  0  0  0
 19 22  1  0  0  0  0
 22 23  1  0  0  0  0
 22 24  1  0  0  0  0
 22 25  1  0  0  0  0
M  END
> <VConfSearch Rank>
280

> <Conf_Id>
30

> <Delta U+W>
0.843

> <U+W>
-50.787

> <U>
8.647

> <W>
-59.434

> <W(PB)>
-61.861

> <W(SA)>
2.428

> <Valence>
8.924

> <Coulomb>
-1.170

> <VdW>
0.894

> <VdW6>
-10.224

> <VdW12>
11.118

> <Bond>
0.231

> <Angle>
3.232

> <Pdih>
5.460

> <Idih>
0.000

> <Tether>
0.000

$$$$
VeraChem MOL file


 25 24  0  0  0  0  0  0  0  0999 V2000     
   20.0080   14.8919   21.1854 C   0  0  0  0  0  0  0  0  0  0  0  0
   18.7972   14.8764   21.0737 O   0  5  0  0  0  0  0  0  0  0  0  0
   20.7191   13.9728   20.8310 O   0  0  0  0  0  0  0  0  0  0  0  0
   20.6977   16.1122   21.7974 C   0  0  0  0  0  0  0  0  0  0  0  0
   21.4161   16.4864   21.0585 H   0  0  0  0  0  0  0  0  0  0  0  0
   21.2771   15.7620   22.6596 H   0  0  0  0  0  0  0  0  0  0  0  0
   19.7485   17.2597   22.2341 C   0  0  0  0  0  0  0  0  0  0  0  0
   19.1666   17.6014   21.3669 H   0  0  0  0  0  0  0  0  0  0  0  0
   19.0276   16.8763   22.9695 H   0  0  0  0  0  0  0  0  0  0  0  0
   20.5256   18.4489   22.8396 C   0  0  0  0  0  0  0  0  0  0  0  0
   21.2457   18.8304   22.1027 H   0  0  0  0  0  0  0  0  0  0  0  0
   21.1066   18.1049   23.7063 H   0  0  0  0  0  0  0  0  0  0  0  0
   19.5795   19.5891   23.2734 C   0  0  0  0  0  0  0  0  0  0  0  0
   18.9984   19.9333   22.4068 H   0  0  0  0  0  0  0  0  0  0  0  0
   18.8592   19.2079   24.0103 H   0  0  0  0  0  0  0  0  0  0  0  0
   20.3558   20.7785   23.8788 C   0  0  0  0  0  0  0  0  0  0  0  0
   21.0761   21.1600   23.1420 H   0  0  0  0  0  0  0  0  0  0  0  0
   20.9369   20.4346   24.7455 H   0  0  0  0  0  0  0  0  0  0  0  0
   19.4102   21.9183   24.3124 C   0  0  0  0  0  0  0  0  0  0  0  0
   18.8285   22.2663   23.4475 H   0  0  0  0  0  0  0  0  0  0  0  0
   18.6893   21.5409   25.0509 H   0  0  0  0  0  0  0  0  0  0  0  0
   20.1892   23.1041   24.9164 C   0  0  0  0  0  0  0  0  0  0  0  0
   20.8961   23.5218   24.1875 H   0  0  0  0  0  0  0  0  0  0  0  0
   19.5018   23.9047   25.2189 H   0  0  0  0  0  0  0  0  0  0  0  0
   20.7559   22.7909   25.8030 H   0  0  0  0  0  0  0  0  0  0  0  0
  1  2  1  0  0  0  0
  1  3  2  0  0  0  0
  1  4  1  0  0  0  0
  4  5  1  0  0  0  0
  4  6  1  0  0  0  0
  4  7  1  0  0  0  0
  7  8  1  0  0  0  0
  7  9  1  0  0  0  0
  7 10  1  0  0  0  0
 10 11  1  0  0  0  0
 10 12  1  0  0  0  0
 10 13  1  0  0  0  0
 13 14  1  0  0  0  0
 13 15  1  0  0  0  0
 13 16  1  0  0  0  0
 16 17  1  0  0  0  0
 16 18  1  0  0  0  0
 16 19  1  0  0  0  0
 19 20  1  0  0  0  0
 19 21  1  0  0  0  0
 19 22  1  0  0  0  0
 22 23  1  0  0  0  0
 22 24  1  0  0  0  0
 22 25  1  0  0  0  0
M  END
> <VConfSearch Rank>
281

> <Conf_Id>
0

> <Delta U+W>
0.000

> <U+W>
-51.629

> <U>
6.586

> <W>
-58.216

> <W(PB)>
-60.757

> <W(SA)>
2.541

> <Valence>
8.027

> <Coulomb>
-2.892

> <VdW>
1.451

> <VdW6>
-7.931

> <VdW12>
9.383

> <Bond>
0.149

> <Angle>
2.726

> <Pdih>
5.152

> <Idih>
0.000

> <Tether>
0.000

$$$$
VeraChem MOL file


 25 24  0  0  0  0  0  0  0  0999 V2000     
   24.1159   19.7810   20.8007 C   0  0  0  0  0  0  0  0  0  0  0  0
   24.1826   20.8328   20.1959 O   0  5  0  0  0  0  0  0  0  0  0  0
   25.0783   19.2233   21.2900 O   0  0  0  0  0  0  0  0  0  0  0  0
   22.7452   19.1368   20.9752 C   0  0  0  0  0  0  0  0  0  0  0  0
   22.8800   18.0487   20.9929 H   0  0  0  0  0  0  0  0  0  0  0  0
   22.1420   19.3746   20.0908 H   0  0  0  0  0  0  0  0  0  0  0  0
   22.0191   19.6067   22.2598 C   0  0  0  0  0  0  0  0  0  0  0  0
   22.6418   19.3732   23.1346 H   0  0  0  0  0  0  0  0  0  0  0  0
   21.9040   20.6992   22.2326 H   0  0  0  0  0  0  0  0  0  0  0  0
   20.6345   18.9410   22.4137 C   0  0  0  0  0  0  0  0  0  0  0  0
   20.7529   17.8489   22.4394 H   0  0  0  0  0  0  0  0  0  0  0  0
   20.0150   19.1751   21.5370 H   0  0  0  0  0  0  0  0  0  0  0  0
   19.9130   19.4114   23.6949 C   0  0  0  0  0  0  0  0  0  0  0  0
   20.5323   19.1773   24.5718 H   0  0  0  0  0  0  0  0  0  0  0  0
   19.7945   20.5034   23.6694 H   0  0  0  0  0  0  0  0  0  0  0  0
   18.5283   18.7461   23.8495 C   0  0  0  0  0  0  0  0  0  0  0  0
   18.6465   17.6541   23.8752 H   0  0  0  0  0  0  0  0  0  0  0  0
   17.9088   18.9801   22.9728 H   0  0  0  0  0  0  0  0  0  0  0  0
   17.8069   19.2163   25.1301 C   0  0  0  0  0  0  0  0  0  0  0  0
   18.4229   18.9822   26.0095 H   0  0  0  0  0  0  0  0  0  0  0  0
   17.6852   20.3081   25.1071 H   0  0  0  0  0  0  0  0  0  0  0  0
   16.4247   18.5498   25.2808 C   0  0  0  0  0  0  0  0  0  0  0  0
   15.9263   18.8952   26.1959 H   0  0  0  0  0  0  0  0  0  0  0  0
   15.7761   18.7933   24.4291 H   0  0  0  0  0  0  0  0  0  0  0  0
   16.5194   17.4575   25.3382 H   0  0  0  0  0  0  0  0  0  0  0  0
  1  2  1  0  0  0  0
  1  3  2  0  0  0  0
  1  4  1  0  0  0  0
  4  5  1  0  0  0  0
  4  6  1  0  0  0  0
  4  7  1  0  0  0  0
  7  8  1  0  0  0  0
  7  9  1  0  0  0  0
  7 10  1  0  0  0  0
 10 11  1  0  0  0  0
 10 12  1  0  0  0  0
 10 13  1  0  0  0  0
 13 14  1  0  0  0  0
 13 15  1  0  0  0  0
 13 16  1  0  0  0  0
 16 17  1  0  0  0  0
 16 18  1  0  0  0  0
 16 19  1  0  0  0  0
 19 20  1  0  0  0  0
 19 21  1  0  0  0  0
 19 22  1  0  0  0  0
 22 23  1  0  0  0  0
 22 24  1  0  0  0  0
 22 25  1  0  0  0  0
M  END
> <VConfSearch Rank>
282

> <Conf_Id>
27

> <Delta U+W>
-1.297

> <U+W>
-52.926

> <U>
5.617

> <W>
-58.543

> <W(PB)>
-61.065

> <W(SA)>
2.522

> <Valence>
7.531

> <Coulomb>
-2.818

> <VdW>
0.904

> <VdW6>
-7.640

> <VdW12>
8.544

> <Bond>
0.115

> <Angle>
2.271

> <Pdih>
5.144

> <Idih>
0.001

> <Tether>
0.000

$$$$
VeraChem MOL file


 25 24  0  0  0  0  0  0  0  0999 V2000     
   23.6799   20.8863   24.3740 C   0  0  0  0  0  0  0  0  0  0  0  0
   24.6701   20.2861   24.0047 O   0  5  0  0  0  0  0  0  0  0  0  0
   23.3562   21.9773   23.9474 O   0  0  0  0  0  0  0  0  0  0  0  0
   22.8054   20.2399   25.4448 C   0  0  0  0  0  0  0  0  0  0  0  0
   22.1831   21.0171   25.9047 H   0  0  0  0  0  0  0  0  0  0  0  0
   23.4724   19.8622   26.2287 H   0  0  0  0  0  0  0  0  0  0  0  0
   21.9164   19.0832   24.9189 C   0  0  0  0  0  0  0  0  0  0  0  0
   22.5511   18.3266   24.4369 H   0  0  0  0  0  0  0  0  0  0  0  0
   21.4304   18.5910   25.7722 H   0  0  0  0  0  0  0  0  0  0  0  0
   20.8354   19.5683   23.9271 C   0  0  0  0  0  0  0  0  0  0  0  0
   21.3147   20.0466   23.0617 H   0  0  0  0  0  0  0  0  0  0  0  0
   20.2122   20.3340   24.4090 H   0  0  0  0  0  0  0  0  0  0  0  0
   19.9423   18.4063   23.4413 C   0  0  0  0  0  0  0  0  0  0  0  0
   20.5664   17.6412   22.9595 H   0  0  0  0  0  0  0  0  0  0  0  0
   19.4595   17.9285   24.3048 H   0  0  0  0  0  0  0  0  0  0  0  0
   18.8624   18.8902   22.4496 C   0  0  0  0  0  0  0  0  0  0  0  0
   19.3451   19.3682   21.5860 H   0  0  0  0  0  0  0  0  0  0  0  0
   18.2385   19.6556   22.9311 H   0  0  0  0  0  0  0  0  0  0  0  0
   17.9699   17.7290   21.9633 C   0  0  0  0  0  0  0  0  0  0  0  0
   18.5906   16.9622   21.4794 H   0  0  0  0  0  0  0  0  0  0  0  0
   17.4839   17.2497   22.8245 H   0  0  0  0  0  0  0  0  0  0  0  0
   16.8930   18.2164   20.9731 C   0  0  0  0  0  0  0  0  0  0  0  0
   17.3524   18.6724   20.0863 H   0  0  0  0  0  0  0  0  0  0  0  0
   16.2680   17.3785   20.6379 H   0  0  0  0  0  0  0  0  0  0  0  0
   16.2374   18.9621   21.4415 H   0  0  0  0  0  0  0  0  0  0  0  0
  1  2  1  0  0  0  0
  1  3  2  0  0  0  0
  1  4  1  0  0  0  0
  4  5  1  0  0  0  0
  4  6  1  0  0  0  0
  4  7  1  0  0  0  0
  7  8  1  0  0  0  0
  7  9  1  0  0  0  0
  7 10  1  0  0  0  0
 10 11  1  0  0  0  0
 10 12  1  0  0  0  0
 10 13  1  0  0  0  0
 13 14  1  0  0  0  0
 13 15  1  0  0  0  0
 13 16  1  0  0  0  0
 16 17  1  0  0  0  0
 16 18  1  0  0  0  0
 16 19  1  0  0  0  0
 19 20  1  0  0  0  0
 19 21  1  0  0  0  0
 19 22  1  0  0  0  0
 22 23  1  0  0  0  0
 22 24  1  0  0  0  0
 22 25  1  0  0  0  0
M  END
> <VConfSearch Rank>
283

> <Conf_Id>
37

> <Delta U+W>
-0.230

> <U+W>
-51.860

> <U>
7.816

> <W>
-59.675

> <W(PB)>
-62.180

> <W(SA)>
2.505

> <Valence>
7.785

> <Coulomb>
-0.713

> <VdW>
0.744

> <VdW6>
-8.514

> <VdW12>
9.259

> <Bond>
0.136

> <Angle>
2.433

> <Pdih>
5.216

> <Idih>
0.000

> <Tether>
0.000

$$$$
VeraChem MOL file


 25 24  0  0  0  0  0  0  0  0999 V2000     
   23.8727   20.3159   22.9069 C   0  0  0  0  0  0  0  0  0  0  0  0
   24.0993   20.9869   21.9192 O   0  5  0  0  0  0  0  0  0  0  0  0
   24.2786   19.1802   23.0563 O   0  0  0  0  0  0  0  0  0  0  0  0
   23.0465   20.9419   24.0269 C   0  0  0  0  0  0  0  0  0  0  0  0
   23.4377   21.9517   24.1979 H   0  0  0  0  0  0  0  0  0  0  0  0
   23.2195   20.3739   24.9490 H   0  0  0  0  0  0  0  0  0  0  0  0
   21.5279   21.0193   23.7222 C   0  0  0  0  0  0  0  0  0  0  0  0
   21.0351   21.6020   24.5123 H   0  0  0  0  0  0  0  0  0  0  0  0
   21.3727   21.5666   22.7820 H   0  0  0  0  0  0  0  0  0  0  0  0
   20.8683   19.6248   23.6310 C   0  0  0  0  0  0  0  0  0  0  0  0
   21.0376   19.0767   24.5680 H   0  0  0  0  0  0  0  0  0  0  0  0
   21.3445   19.0416   22.8307 H   0  0  0  0  0  0  0  0  0  0  0  0
   19.3519   19.7263   23.3589 C   0  0  0  0  0  0  0  0  0  0  0  0
   18.8731   20.3066   24.1595 H   0  0  0  0  0  0  0  0  0  0  0  0
   19.1836   20.2744   22.4217 H   0  0  0  0  0  0  0  0  0  0  0  0
   18.6923   18.3333   23.2669 C   0  0  0  0  0  0  0  0  0  0  0  0
   18.8608   17.7849   24.2039 H   0  0  0  0  0  0  0  0  0  0  0  0
   19.1711   17.7528   22.4664 H   0  0  0  0  0  0  0  0  0  0  0  0
   17.1768   18.4341   22.9943 C   0  0  0  0  0  0  0  0  0  0  0  0
   16.6942   19.0128   23.7942 H   0  0  0  0  0  0  0  0  0  0  0  0
   17.0046   18.9805   22.0566 H   0  0  0  0  0  0  0  0  0  0  0  0
   16.5220   17.0411   22.9032 C   0  0  0  0  0  0  0  0  0  0  0  0
   16.6518   16.4840   23.8403 H   0  0  0  0  0  0  0  0  0  0  0  0
   15.4453   17.1316   22.7091 H   0  0  0  0  0  0  0  0  0  0  0  0
   16.9646   16.4515   22.0897 H   0  0  0  0  0  0  0  0  0  0  0  0
  1  2  1  0  0  0  0
  1  3  2  0  0  0  0
  1  4  1  0  0  0  0
  4  5  1  0  0  0  0
  4  6  1  0  0  0  0
  4  7  1  0  0  0  0
  7  8  1  0  0  0  0
  7  9  1  0  0  0  0
  7 10  1  0  0  0  0
 10 11  1  0  0  0  0
 10 12  1  0  0  0  0
 10 13  1  0  0  0  0
 13 14  1  0  0  0  0
 13 15  1  0  0  0  0
 13 16  1  0  0  0  0
 16 17  1  0  0  0  0
 16 18  1  0  0  0  0
 16 19  1  0  0  0  0
 19 20  1  0  0  0  0
 19 21  1  0  0  0  0
 19 22  1  0  0  0  0
 22 23  1  0  0  0  0
 22 24  1  0  0  0  0
 22 25  1  0  0  0  0
M  END
> <VConfSearch Rank>
284

> <Conf_Id>
54

> <Delta U+W>
-0.224

> <U+W>
-51.854

> <U>
7.816

> <W>
-59.670

> <W(PB)>
-62.157

> <W(SA)>
2.487

> <Valence>
7.785

> <Coulomb>
-0.713

> <VdW>
0.744

> <VdW6>
-8.515

> <VdW12>
9.259

> <Bond>
0.136

> <Angle>
2.433

> <Pdih>
5.215

> <Idih>
0.000

> <Tether>
0.000

$$$$
VeraChem MOL file


 25 24  0  0  0  0  0  0  0  0999 V2000     
   17.9162   17.7112   26.4031 C   0  0  0  0  0  0  0  0  0  0  0  0
   18.1340   16.5157   26.4222 O   0  5  0  0  0  0  0  0  0  0  0  0
   17.9960   18.4251   27.3835 O   0  0  0  0  0  0  0  0  0  0  0  0
   17.5014   18.3498   25.0805 C   0  0  0  0  0  0  0  0  0  0  0  0
   16.6419   18.9986   25.2863 H   0  0  0  0  0  0  0  0  0  0  0  0
   17.1491   17.5606   24.4054 H   0  0  0  0  0  0  0  0  0  0  0  0
   18.6225   19.1769   24.3986 C   0  0  0  0  0  0  0  0  0  0  0  0
   18.1863   19.7173   23.5491 H   0  0  0  0  0  0  0  0  0  0  0  0
   18.9932   19.9358   25.1014 H   0  0  0  0  0  0  0  0  0  0  0  0
   19.7972   18.2952   23.9102 C   0  0  0  0  0  0  0  0  0  0  0  0
   19.4333   17.5665   23.1730 H   0  0  0  0  0  0  0  0  0  0  0  0
   20.1838   17.7111   24.7566 H   0  0  0  0  0  0  0  0  0  0  0  0
   20.9694   19.1043   23.3048 C   0  0  0  0  0  0  0  0  0  0  0  0
   21.3205   19.8456   24.0354 H   0  0  0  0  0  0  0  0  0  0  0  0
   21.8053   18.4136   23.1365 H   0  0  0  0  0  0  0  0  0  0  0  0
   20.6115   19.8102   21.9735 C   0  0  0  0  0  0  0  0  0  0  0  0
   19.7806   20.5070   22.1407 H   0  0  0  0  0  0  0  0  0  0  0  0
   20.2557   19.0691   21.2450 H   0  0  0  0  0  0  0  0  0  0  0  0
   21.7887   20.6087   21.3659 C   0  0  0  0  0  0  0  0  0  0  0  0
   21.4162   21.1852   20.5079 H   0  0  0  0  0  0  0  0  0  0  0  0
   22.1556   21.3428   22.0965 H   0  0  0  0  0  0  0  0  0  0  0  0
   22.9570   19.7166   20.8924 C   0  0  0  0  0  0  0  0  0  0  0  0
   23.4438   19.2109   21.7355 H   0  0  0  0  0  0  0  0  0  0  0  0
   22.6068   18.9520   20.1869 H   0  0  0  0  0  0  0  0  0  0  0  0
   23.7193   20.3212   20.3841 H   0  0  0  0  0  0  0  0  0  0  0  0
  1  2  1  0  0  0  0
  1  3  2  0  0  0  0
  1  4  1  0  0  0  0
  4  5  1  0  0  0  0
  4  6  1  0  0  0  0
  4  7  1  0  0  0  0
  7  8  1  0  0  0  0
  7  9  1  0  0  0  0
  7 10  1  0  0  0  0
 10 11  1  0  0  0  0
 10 12  1  0  0  0  0
 10 13  1  0  0  0  0
 13 14  1  0  0  0  0
 13 15  1  0  0  0  0
 13 16  1  0  0  0  0
 16 17  1  0  0  0  0
 16 18  1  0  0  0  0
 16 19  1  0  0  0  0
 19 20  1  0  0  0  0
 19 21  1  0  0  0  0
 19 22  1  0  0  0  0
 22 23  1  0  0  0  0
 22 24  1  0  0  0  0
 22 25  1  0  0  0  0
M  END
> <VConfSearch Rank>
285

> <Conf_Id>
101

> <Delta U+W>
1.534

> <U+W>
-50.095

> <U>
9.416

> <W>
-59.512

> <W(PB)>
-61.988

> <W(SA)>
2.476

> <Valence>
8.939

> <Coulomb>
-0.615

> <VdW>
1.092

> <VdW6>
-9.710

> <VdW12>
10.802

> <Bond>
0.216

> <Angle>
2.979

> <Pdih>
5.743

> <Idih>
0.000

> <Tether>
0.000

$$$$
VeraChem MOL file


 25 24  0  0  0  0  0  0  0  0999 V2000     
   22.4736   22.4523   24.4008 C   0  0  0  0  0  0  0  0  0  0  0  0
   22.1309   22.7832   25.5188 O   0  5  0  0  0  0  0  0  0  0  0  0
   23.5501   22.7380   23.9147 O   0  0  0  0  0  0  0  0  0  0  0  0
   21.5088   21.6133   23.5706 C   0  0  0  0  0  0  0  0  0  0  0  0
   21.6630   21.8638   22.5142 H   0  0  0  0  0  0  0  0  0  0  0  0
   20.4905   21.9209   23.8330 H   0  0  0  0  0  0  0  0  0  0  0  0
   21.6963   20.0897   23.7923 C   0  0  0  0  0  0  0  0  0  0  0  0
   22.7506   19.8364   23.6147 H   0  0  0  0  0  0  0  0  0  0  0  0
   21.4913   19.8430   24.8432 H   0  0  0  0  0  0  0  0  0  0  0  0
   20.8158   19.2146   22.8684 C   0  0  0  0  0  0  0  0  0  0  0  0
   21.1228   18.1691   22.9995 H   0  0  0  0  0  0  0  0  0  0  0  0
   21.0152   19.4698   21.8188 H   0  0  0  0  0  0  0  0  0  0  0  0
   19.3004   19.3433   23.1596 C   0  0  0  0  0  0  0  0  0  0  0  0
   19.1009   19.0875   24.2083 H   0  0  0  0  0  0  0  0  0  0  0  0
   18.9926   20.3893   23.0375 H   0  0  0  0  0  0  0  0  0  0  0  0
   18.4155   18.4782   22.2263 C   0  0  0  0  0  0  0  0  0  0  0  0
   18.5645   18.8080   21.1892 H   0  0  0  0  0  0  0  0  0  0  0  0
   17.3608   18.6787   22.4587 H   0  0  0  0  0  0  0  0  0  0  0  0
   18.6595   16.9504   22.3035 C   0  0  0  0  0  0  0  0  0  0  0  0
   17.9799   16.4526   21.5983 H   0  0  0  0  0  0  0  0  0  0  0  0
   19.6756   16.7103   21.9640 H   0  0  0  0  0  0  0  0  0  0  0  0
   18.4286   16.3636   23.7129 C   0  0  0  0  0  0  0  0  0  0  0  0
   17.4255   16.6126   24.0828 H   0  0  0  0  0  0  0  0  0  0  0  0
   18.5208   15.2700   23.6936 H   0  0  0  0  0  0  0  0  0  0  0  0
   19.1658   16.7467   24.4296 H   0  0  0  0  0  0  0  0  0  0  0  0
  1  2  1  0  0  0  0
  1  3  2  0  0  0  0
  1  4  1  0  0  0  0
  4  5  1  0  0  0  0
  4  6  1  0  0  0  0
  4  7  1  0  0  0  0
  7  8  1  0  0  0  0
  7  9  1  0  0  0  0
  7 10  1  0  0  0  0
 10 11  1  0  0  0  0
 10 12  1  0  0  0  0
 10 13  1  0  0  0  0
 13 14  1  0  0  0  0
 13 15  1  0  0  0  0
 13 16  1  0  0  0  0
 16 17  1  0  0  0  0
 16 18  1  0  0  0  0
 16 19  1  0  0  0  0
 19 20  1  0  0  0  0
 19 21  1  0  0  0  0
 19 22  1  0  0  0  0
 22 23  1  0  0  0  0
 22 24  1  0  0  0  0
 22 25  1  0  0  0  0
M  END
> <VConfSearch Rank>
286

> <Conf_Id>
75

> <Delta U+W>
1.014

> <U+W>
-50.615

> <U>
8.474

> <W>
-59.089

> <W(PB)>
-61.530

> <W(SA)>
2.441

> <Valence>
9.080

> <Coulomb>
-1.772

> <VdW>
1.165

> <VdW6>
-9.830

> <VdW12>
10.996

> <Bond>
0.240

> <Angle>
3.225

> <Pdih>
5.615

> <Idih>
0.001

> <Tether>
0.000

$$$$
VeraChem MOL file


 25 24  0  0  0  0  0  0  0  0999 V2000     
   23.9598   17.6533   22.4723 C   0  0  0  0  0  0  0  0  0  0  0  0
   24.5704   18.4873   21.8336 O   0  5  0  0  0  0  0  0  0  0  0  0
   24.4949   16.8170   23.1730 O   0  0  0  0  0  0  0  0  0  0  0  0
   22.4367   17.6704   22.4079 C   0  0  0  0  0  0  0  0  0  0  0  0
   22.0797   16.6387   22.5117 H   0  0  0  0  0  0  0  0  0  0  0  0
   22.1419   18.0169   21.4101 H   0  0  0  0  0  0  0  0  0  0  0  0
   21.7987   18.5690   23.4959 C   0  0  0  0  0  0  0  0  0  0  0  0
   22.1138   18.2172   24.4881 H   0  0  0  0  0  0  0  0  0  0  0  0
   22.1765   19.5950   23.3862 H   0  0  0  0  0  0  0  0  0  0  0  0
   20.2571   18.5708   23.4087 C   0  0  0  0  0  0  0  0  0  0  0  0
   19.8841   17.5434   23.5183 H   0  0  0  0  0  0  0  0  0  0  0  0
   19.9508   18.9119   22.4126 H   0  0  0  0  0  0  0  0  0  0  0  0
   19.6245   19.4649   24.5010 C   0  0  0  0  0  0  0  0  0  0  0  0
   19.9282   19.0732   25.4815 H   0  0  0  0  0  0  0  0  0  0  0  0
   20.0272   20.4852   24.4409 H   0  0  0  0  0  0  0  0  0  0  0  0
   18.0760   19.5008   24.4447 C   0  0  0  0  0  0  0  0  0  0  0  0
   17.6981   19.5490   25.4752 H   0  0  0  0  0  0  0  0  0  0  0  0
   17.6877   18.5613   24.0284 H   0  0  0  0  0  0  0  0  0  0  0  0
   17.4847   20.7081   23.6754 C   0  0  0  0  0  0  0  0  0  0  0  0
   16.3903   20.6781   23.7680 H   0  0  0  0  0  0  0  0  0  0  0  0
   17.8078   21.6432   24.1534 H   0  0  0  0  0  0  0  0  0  0  0  0
   17.8529   20.7454   22.1776 C   0  0  0  0  0  0  0  0  0  0  0  0
   17.6019   19.7965   21.6862 H   0  0  0  0  0  0  0  0  0  0  0  0
   17.3037   21.5470   21.6672 H   0  0  0  0  0  0  0  0  0  0  0  0
   18.9239   20.9385   22.0384 H   0  0  0  0  0  0  0  0  0  0  0  0
  1  2  1  0  0  0  0
  1  3  2  0  0  0  0
  1  4  1  0  0  0  0
  4  5  1  0  0  0  0
  4  6  1  0  0  0  0
  4  7  1  0  0  0  0
  7  8  1  0  0  0  0
  7  9  1  0  0  0  0
  7 10  1  0  0  0  0
 10 11  1  0  0  0  0
 10 12  1  0  0  0  0
 10 13  1  0  0  0  0
 13 14  1  0  0  0  0
 13 15  1  0  0  0  0
 13 16  1  0  0  0  0
 16 17  1  0  0  0  0
 16 18  1  0  0  0  0
 16 19  1  0  0  0  0
 19 20  1  0  0  0  0
 19 21  1  0  0  0  0
 19 22  1  0  0  0  0
 22 23  1  0  0  0  0
 22 24  1  0  0  0  0
 22 25  1  0  0  0  0
M  END
> <VConfSearch Rank>
287

> <Conf_Id>
125

> <Delta U+W>
2.314

> <U+W>
-49.315

> <U>
9.740

> <W>
-59.054

> <W(PB)>
-61.488

> <W(SA)>
2.433

> <Valence>
10.506

> <Coulomb>
-1.761

> <VdW>
0.994

> <VdW6>
-9.209

> <VdW12>
10.203

> <Bond>
0.193

> <Angle>
2.979

> <Pdih>
7.334

> <Idih>
0.001

> <Tether>
0.000

$$$$
VeraChem MOL file


 25 24  0  0  0  0  0  0  0  0999 V2000     
   17.6665   21.9860   24.9359 C   0  0  0  0  0  0  0  0  0  0  0  0
   17.8634   22.9925   24.2841 O   0  5  0  0  0  0  0  0  0  0  0  0
   16.9876   21.9586   25.9434 O   0  0  0  0  0  0  0  0  0  0  0  0
   18.3274   20.6908   24.4781 C   0  0  0  0  0  0  0  0  0  0  0  0
   18.3769   20.7112   23.3836 H   0  0  0  0  0  0  0  0  0  0  0  0
   17.6729   19.8571   24.7593 H   0  0  0  0  0  0  0  0  0  0  0  0
   19.7400   20.4910   25.0862 C   0  0  0  0  0  0  0  0  0  0  0  0
   20.3990   21.3072   24.7592 H   0  0  0  0  0  0  0  0  0  0  0  0
   19.6674   20.5704   26.1798 H   0  0  0  0  0  0  0  0  0  0  0  0
   20.3797   19.1279   24.7298 C   0  0  0  0  0  0  0  0  0  0  0  0
   19.7231   18.3140   25.0666 H   0  0  0  0  0  0  0  0  0  0  0  0
   21.3166   19.0251   25.2941 H   0  0  0  0  0  0  0  0  0  0  0  0
   20.6795   18.9647   23.2216 C   0  0  0  0  0  0  0  0  0  0  0  0
   19.7413   18.9978   22.6548 H   0  0  0  0  0  0  0  0  0  0  0  0
   21.2951   19.8065   22.8767 H   0  0  0  0  0  0  0  0  0  0  0  0
   21.4121   17.6351   22.9274 C   0  0  0  0  0  0  0  0  0  0  0  0
   20.7788   16.7894   23.2284 H   0  0  0  0  0  0  0  0  0  0  0  0
   22.3181   17.5810   23.5464 H   0  0  0  0  0  0  0  0  0  0  0  0
   21.8212   17.4730   21.4447 C   0  0  0  0  0  0  0  0  0  0  0  0
   22.4594   18.3146   21.1418 H   0  0  0  0  0  0  0  0  0  0  0  0
   22.4350   16.5671   21.3457 H   0  0  0  0  0  0  0  0  0  0  0  0
   20.6158   17.3636   20.4857 C   0  0  0  0  0  0  0  0  0  0  0  0
   20.0362   18.2948   20.4624 H   0  0  0  0  0  0  0  0  0  0  0  0
   20.9568   17.1593   19.4625 H   0  0  0  0  0  0  0  0  0  0  0  0
   19.9460   16.5479   20.7878 H   0  0  0  0  0  0  0  0  0  0  0  0
  1  2  1  0  0  0  0
  1  3  2  0  0  0  0
  1  4  1  0  0  0  0
  4  5  1  0  0  0  0
  4  6  1  0  0  0  0
  4  7  1  0  0  0  0
  7  8  1  0  0  0  0
  7  9  1  0  0  0  0
  7 10  1  0  0  0  0
 10 11  1  0  0  0  0
 10 12  1  0  0  0  0
 10 13  1  0  0  0  0
 13 14  1  0  0  0  0
 13 15  1  0  0  0  0
 13 16  1  0  0  0  0
 16 17  1  0  0  0  0
 16 18  1  0  0  0  0
 16 19  1  0  0  0  0
 19 20  1  0  0  0  0
 19 21  1  0  0  0  0
 19 22  1  0  0  0  0
 22 23  1  0  0  0  0
 22 24  1  0  0  0  0
 22 25  1  0  0  0  0
M  END
> <VConfSearch Rank>
288

> <Conf_Id>
4

> <Delta U+W>
0.189

> <U+W>
-51.441

> <U>
7.701

> <W>
-59.141

> <W(PB)>
-61.609

> <W(SA)>
2.467

> <Valence>
8.550

> <Coulomb>
-1.988

> <VdW>
1.139

> <VdW6>
-8.988

> <VdW12>
10.127

> <Bond>
0.191

> <Angle>
2.738

> <Pdih>
5.621

> <Idih>
0.001

> <Tether>
0.000

$$$$
VeraChem MOL file


 25 24  0  0  0  0  0  0  0  0999 V2000     
   20.5721   17.0045   26.6968 C   0  0  0  0  0  0  0  0  0  0  0  0
   19.6891   16.1697   26.6814 O   0  5  0  0  0  0  0  0  0  0  0  0
   21.4759   17.0134   27.5091 O   0  0  0  0  0  0  0  0  0  0  0  0
   20.5584   18.0870   25.6235 C   0  0  0  0  0  0  0  0  0  0  0  0
   20.9945   18.9970   26.0527 H   0  0  0  0  0  0  0  0  0  0  0  0
   19.5116   18.3078   25.3869 H   0  0  0  0  0  0  0  0  0  0  0  0
   21.3331   17.6736   24.3452 C   0  0  0  0  0  0  0  0  0  0  0  0
   22.3491   17.3687   24.6319 H   0  0  0  0  0  0  0  0  0  0  0  0
   20.8585   16.7889   23.8986 H   0  0  0  0  0  0  0  0  0  0  0  0
   21.4333   18.8016   23.2908 C   0  0  0  0  0  0  0  0  0  0  0  0
   22.0925   18.4624   22.4801 H   0  0  0  0  0  0  0  0  0  0  0  0
   21.9171   19.6810   23.7375 H   0  0  0  0  0  0  0  0  0  0  0  0
   20.0664   19.2073   22.6922 C   0  0  0  0  0  0  0  0  0  0  0  0
   19.5630   18.3174   22.2907 H   0  0  0  0  0  0  0  0  0  0  0  0
   19.4242   19.6115   23.4839 H   0  0  0  0  0  0  0  0  0  0  0  0
   20.2258   20.2600   21.5708 C   0  0  0  0  0  0  0  0  0  0  0  0
   20.9205   19.8731   20.8128 H   0  0  0  0  0  0  0  0  0  0  0  0
   20.6868   21.1693   21.9800 H   0  0  0  0  0  0  0  0  0  0  0  0
   18.8937   20.6237   20.8745 C   0  0  0  0  0  0  0  0  0  0  0  0
   19.1104   21.2802   20.0205 H   0  0  0  0  0  0  0  0  0  0  0  0
   18.4323   19.7170   20.4594 H   0  0  0  0  0  0  0  0  0  0  0  0
   17.8904   21.3368   21.8070 C   0  0  0  0  0  0  0  0  0  0  0  0
   18.3407   22.2301   22.2591 H   0  0  0  0  0  0  0  0  0  0  0  0
   17.0024   21.6536   21.2449 H   0  0  0  0  0  0  0  0  0  0  0  0
   17.5531   20.6747   22.6142 H   0  0  0  0  0  0  0  0  0  0  0  0
  1  2  1  0  0  0  0
  1  3  2  0  0  0  0
  1  4  1  0  0  0  0
  4  5  1  0  0  0  0
  4  6  1  0  0  0  0
  4  7  1  0  0  0  0
  7  8  1  0  0  0  0
  7  9  1  0  0  0  0
  7 10  1  0  0  0  0
 10 11  1  0  0  0  0
 10 12  1  0  0  0  0
 10 13  1  0  0  0  0
 13 14  1  0  0  0  0
 13 15  1  0  0  0  0
 13 16  1  0  0  0  0
 16 17  1  0  0  0  0
 16 18  1  0  0  0  0
 16 19  1  0  0  0  0
 19 20  1  0  0  0  0
 19 21  1  0  0  0  0
 19 22  1  0  0  0  0
 22 23  1  0  0  0  0
 22 24  1  0  0  0  0
 22 25  1  0  0  0  0
M  END
> <VConfSearch Rank>
289

> <Conf_Id>
17

> <Delta U+W>
0.219

> <U+W>
-51.411

> <U>
7.701

> <W>
-59.111

> <W(PB)>
-61.599

> <W(SA)>
2.488

> <Valence>
8.550

> <Coulomb>
-1.988

> <VdW>
1.139

> <VdW6>
-8.988

> <VdW12>
10.127

> <Bond>
0.191

> <Angle>
2.738

> <Pdih>
5.621

> <Idih>
0.001

> <Tether>
0.000

$$$$
VeraChem MOL file


 25 24  0  0  0  0  0  0  0  0999 V2000     
   21.7760   16.4423   25.0743 C   0  0  0  0  0  0  0  0  0  0  0  0
   21.3114   15.3829   24.7015 O   0  5  0  0  0  0  0  0  0  0  0  0
   21.7150   16.8369   26.2222 O   0  0  0  0  0  0  0  0  0  0  0  0
   22.4929   17.3178   24.0504 C   0  0  0  0  0  0  0  0  0  0  0  0
   22.7759   16.6943   23.1937 H   0  0  0  0  0  0  0  0  0  0  0  0
   23.4248   17.6659   24.5111 H   0  0  0  0  0  0  0  0  0  0  0  0
   21.6624   18.5382   23.5749 C   0  0  0  0  0  0  0  0  0  0  0  0
   21.3752   19.1354   24.4504 H   0  0  0  0  0  0  0  0  0  0  0  0
   22.2965   19.1786   22.9472 H   0  0  0  0  0  0  0  0  0  0  0  0
   20.4048   18.1227   22.7746 C   0  0  0  0  0  0  0  0  0  0  0  0
   19.7296   17.5401   23.4165 H   0  0  0  0  0  0  0  0  0  0  0  0
   20.7068   17.4543   21.9568 H   0  0  0  0  0  0  0  0  0  0  0  0
   19.6350   19.3212   22.1707 C   0  0  0  0  0  0  0  0  0  0  0  0
   20.3058   19.9003   21.5215 H   0  0  0  0  0  0  0  0  0  0  0  0
   18.8369   18.9315   21.5242 H   0  0  0  0  0  0  0  0  0  0  0  0
   19.0092   20.2510   23.2360 C   0  0  0  0  0  0  0  0  0  0  0  0
   19.7996   20.7093   23.8444 H   0  0  0  0  0  0  0  0  0  0  0  0
   18.3823   19.6592   23.9170 H   0  0  0  0  0  0  0  0  0  0  0  0
   18.1588   21.3659   22.5912 C   0  0  0  0  0  0  0  0  0  0  0  0
   18.7827   21.9587   21.9079 H   0  0  0  0  0  0  0  0  0  0  0  0
   17.3582   20.9186   21.9859 H   0  0  0  0  0  0  0  0  0  0  0  0
   17.5385   22.2944   23.6546 C   0  0  0  0  0  0  0  0  0  0  0  0
   18.3187   22.7808   24.2546 H   0  0  0  0  0  0  0  0  0  0  0  0
   16.9375   23.0802   23.1789 H   0  0  0  0  0  0  0  0  0  0  0  0
   16.8846   21.7318   24.3338 H   0  0  0  0  0  0  0  0  0  0  0  0
  1  2  1  0  0  0  0
  1  3  2  0  0  0  0
  1  4  1  0  0  0  0
  4  5  1  0  0  0  0
  4  6  1  0  0  0  0
  4  7  1  0  0  0  0
  7  8  1  0  0  0  0
  7  9  1  0  0  0  0
  7 10  1  0  0  0  0
 10 11  1  0  0  0  0
 10 12  1  0  0  0  0
 10 13  1  0  0  0  0
 13 14  1  0  0  0  0
 13 15  1  0  0  0  0
 13 16  1  0  0  0  0
 16 17  1  0  0  0  0
 16 18  1  0  0  0  0
 16 19  1  0  0  0  0
 19 20  1  0  0  0  0
 19 21  1  0  0  0  0
 19 22  1  0  0  0  0
 22 23  1  0  0  0  0
 22 24  1  0  0  0  0
 22 25  1  0  0  0  0
M  END
> <VConfSearch Rank>
290

> <Conf_Id>
142

> <Delta U+W>
0.593

> <U+W>
-51.037

> <U>
8.903

> <W>
-59.940

> <W(PB)>
-62.418

> <W(SA)>
2.478

> <Valence>
8.305

> <Coulomb>
-0.223

> <VdW>
0.821

> <VdW6>
-9.236

> <VdW12>
10.057

> <Bond>
0.173

> <Angle>
2.663

> <Pdih>
5.469

> <Idih>
0.001

> <Tether>
0.000

$$$$
VeraChem MOL file


 25 24  0  0  0  0  0  0  0  0999 V2000     
   20.9280   22.0525   25.3283 C   0  0  0  0  0  0  0  0  0  0  0  0
   21.8063   22.8824   25.4605 O   0  5  0  0  0  0  0  0  0  0  0  0
   19.7441   22.3258   25.2996 O   0  0  0  0  0  0  0  0  0  0  0  0
   21.3357   20.5859   25.2204 C   0  0  0  0  0  0  0  0  0  0  0  0
   20.4502   19.9618   25.3869 H   0  0  0  0  0  0  0  0  0  0  0  0
   22.0233   20.3766   26.0481 H   0  0  0  0  0  0  0  0  0  0  0  0
   22.0206   20.2155   23.8766 C   0  0  0  0  0  0  0  0  0  0  0  0
   22.9394   20.8093   23.7745 H   0  0  0  0  0  0  0  0  0  0  0  0
   22.3431   19.1669   23.9120 H   0  0  0  0  0  0  0  0  0  0  0  0
   21.1386   20.4482   22.6225 C   0  0  0  0  0  0  0  0  0  0  0  0
   21.7126   20.1639   21.7301 H   0  0  0  0  0  0  0  0  0  0  0  0
   20.9375   21.5236   22.5214 H   0  0  0  0  0  0  0  0  0  0  0  0
   19.7879   19.6893   22.6131 C   0  0  0  0  0  0  0  0  0  0  0  0
   19.1544   20.0443   23.4370 H   0  0  0  0  0  0  0  0  0  0  0  0
   19.2541   19.9468   21.6883 H   0  0  0  0  0  0  0  0  0  0  0  0
   19.9415   18.1529   22.6935 C   0  0  0  0  0  0  0  0  0  0  0  0
   20.4088   17.8739   23.6469 H   0  0  0  0  0  0  0  0  0  0  0  0
   20.6113   17.8085   21.8939 H   0  0  0  0  0  0  0  0  0  0  0  0
   18.5802   17.4365   22.5709 C   0  0  0  0  0  0  0  0  0  0  0  0
   17.9076   17.7816   23.3684 H   0  0  0  0  0  0  0  0  0  0  0  0
   18.1059   17.7022   21.6160 H   0  0  0  0  0  0  0  0  0  0  0  0
   18.7342   15.9047   22.6574 C   0  0  0  0  0  0  0  0  0  0  0  0
   19.1772   15.6081   23.6172 H   0  0  0  0  0  0  0  0  0  0  0  0
   17.7574   15.4119   22.5682 H   0  0  0  0  0  0  0  0  0  0  0  0
   19.3784   15.5287   21.8517 H   0  0  0  0  0  0  0  0  0  0  0  0
  1  2  1  0  0  0  0
  1  3  2  0  0  0  0
  1  4  1  0  0  0  0
  4  5  1  0  0  0  0
  4  6  1  0  0  0  0
  4  7  1  0  0  0  0
  7  8  1  0  0  0  0
  7  9  1  0  0  0  0
  7 10  1  0  0  0  0
 10 11  1  0  0  0  0
 10 12  1  0  0  0  0
 10 13  1  0  0  0  0
 13 14  1  0  0  0  0
 13 15  1  0  0  0  0
 13 16  1  0  0  0  0
 16 17  1  0  0  0  0
 16 18  1  0  0  0  0
 16 19  1  0  0  0  0
 19 20  1  0  0  0  0
 19 21  1  0  0  0  0
 19 22  1  0  0  0  0
 22 23  1  0  0  0  0
 22 24  1  0  0  0  0
 22 25  1  0  0  0  0
M  END
> <VConfSearch Rank>
291

> <Conf_Id>
135

> <Delta U+W>
1.314

> <U+W>
-50.316

> <U>
9.773

> <W>
-60.088

> <W(PB)>
-62.535

> <W(SA)>
2.447

> <Valence>
8.741

> <Coulomb>
0.479

> <VdW>
0.552

> <VdW6>
-10.627

> <VdW12>
11.179

> <Bond>
0.227

> <Angle>
3.155

> <Pdih>
5.358

> <Idih>
0.001

> <Tether>
0.000

$$$$
VeraChem MOL file


 25 24  0  0  0  0  0  0  0  0999 V2000     
   23.3284   16.5876   23.9387 C   0  0  0  0  0  0  0  0  0  0  0  0
   23.0830   15.7086   24.7411 O   0  5  0  0  0  0  0  0  0  0  0  0
   24.2390   16.5310   23.1360 O   0  0  0  0  0  0  0  0  0  0  0  0
   22.4304   17.8195   23.9229 C   0  0  0  0  0  0  0  0  0  0  0  0
   23.0380   18.6788   23.6151 H   0  0  0  0  0  0  0  0  0  0  0  0
   22.1024   18.0045   24.9516 H   0  0  0  0  0  0  0  0  0  0  0  0
   21.2114   17.6600   22.9772 C   0  0  0  0  0  0  0  0  0  0  0  0
   21.5768   17.3797   21.9795 H   0  0  0  0  0  0  0  0  0  0  0  0
   20.5837   16.8268   23.3223 H   0  0  0  0  0  0  0  0  0  0  0  0
   20.3547   18.9421   22.8461 C   0  0  0  0  0  0  0  0  0  0  0  0
   19.6214   18.7764   22.0468 H   0  0  0  0  0  0  0  0  0  0  0  0
   20.9891   19.7795   22.5252 H   0  0  0  0  0  0  0  0  0  0  0  0
   19.6053   19.3187   24.1465 C   0  0  0  0  0  0  0  0  0  0  0  0
   18.9293   18.4998   24.4275 H   0  0  0  0  0  0  0  0  0  0  0  0
   20.3246   19.4206   24.9684 H   0  0  0  0  0  0  0  0  0  0  0  0
   18.8018   20.6407   24.0561 C   0  0  0  0  0  0  0  0  0  0  0  0
   19.4824   21.4823   23.8678 H   0  0  0  0  0  0  0  0  0  0  0  0
   18.3631   20.8284   25.0456 H   0  0  0  0  0  0  0  0  0  0  0  0
   17.6550   20.6345   23.0144 C   0  0  0  0  0  0  0  0  0  0  0  0
   17.2949   19.6096   22.8497 H   0  0  0  0  0  0  0  0  0  0  0  0
   16.8036   21.1945   23.4253 H   0  0  0  0  0  0  0  0  0  0  0  0
   18.0514   21.2860   21.6707 C   0  0  0  0  0  0  0  0  0  0  0  0
   18.8944   20.7685   21.1990 H   0  0  0  0  0  0  0  0  0  0  0  0
   17.2078   21.2624   20.9687 H   0  0  0  0  0  0  0  0  0  0  0  0
   18.3377   22.3358   21.8159 H   0  0  0  0  0  0  0  0  0  0  0  0
  1  2  1  0  0  0  0
  1  3  2  0  0  0  0
  1  4  1  0  0  0  0
  4  5  1  0  0  0  0
  4  6  1  0  0  0  0
  4  7  1  0  0  0  0
  7  8  1  0  0  0  0
  7  9  1  0  0  0  0
  7 10  1  0  0  0  0
 10 11  1  0  0  0  0
 10 12  1  0  0  0  0
 10 13  1  0  0  0  0
 13 14  1  0  0  0  0
 13 15  1  0  0  0  0
 13 16  1  0  0  0  0
 16 17  1  0  0  0  0
 16 18  1  0  0  0  0
 16 19  1  0  0  0  0
 19 20  1  0  0  0  0
 19 21  1  0  0  0  0
 19 22  1  0  0  0  0
 22 23  1  0  0  0  0
 22 24  1  0  0  0  0
 22 25  1  0  0  0  0
M  END
> <VConfSearch Rank>
292

> <Conf_Id>
19

> <Delta U+W>
3.222

> <U+W>
-48.407

> <U>
10.617

> <W>
-59.025

> <W(PB)>
-61.462

> <W(SA)>
2.437

> <Valence>
11.188

> <Coulomb>
-1.778

> <VdW>
1.208

> <VdW6>
-9.786

> <VdW12>
10.993

> <Bond>
0.241

> <Angle>
3.294

> <Pdih>
7.653

> <Idih>
0.001

> <Tether>
0.000

$$$$
VeraChem MOL file


 25 24  0  0  0  0  0  0  0  0999 V2000     
   24.1804   19.3284   22.2381 C   0  0  0  0  0  0  0  0  0  0  0  0
   24.4508   18.7002   21.2335 O   0  5  0  0  0  0  0  0  0  0  0  0
   25.0025   19.6468   23.0744 O   0  0  0  0  0  0  0  0  0  0  0  0
   22.7256   19.7185   22.4737 C   0  0  0  0  0  0  0  0  0  0  0  0
   22.2686   19.9032   21.4953 H   0  0  0  0  0  0  0  0  0  0  0  0
   22.7131   20.6672   23.0235 H   0  0  0  0  0  0  0  0  0  0  0  0
   21.9344   18.6370   23.2549 C   0  0  0  0  0  0  0  0  0  0  0  0
   21.9121   17.7049   22.6736 H   0  0  0  0  0  0  0  0  0  0  0  0
   22.4760   18.4097   24.1836 H   0  0  0  0  0  0  0  0  0  0  0  0
   20.4915   19.0632   23.6175 C   0  0  0  0  0  0  0  0  0  0  0  0
   20.5147   20.0083   24.1768 H   0  0  0  0  0  0  0  0  0  0  0  0
   20.0769   18.3053   24.2940 H   0  0  0  0  0  0  0  0  0  0  0  0
   19.5624   19.2028   22.3880 C   0  0  0  0  0  0  0  0  0  0  0  0
   20.0027   19.9090   21.6733 H   0  0  0  0  0  0  0  0  0  0  0  0
   19.4984   18.2372   21.8682 H   0  0  0  0  0  0  0  0  0  0  0  0
   18.1342   19.7010   22.7248 C   0  0  0  0  0  0  0  0  0  0  0  0
   17.5911   19.8116   21.7763 H   0  0  0  0  0  0  0  0  0  0  0  0
   18.1804   20.7085   23.1604 H   0  0  0  0  0  0  0  0  0  0  0  0
   17.3157   18.7572   23.6411 C   0  0  0  0  0  0  0  0  0  0  0  0
   16.2685   18.7649   23.3083 H   0  0  0  0  0  0  0  0  0  0  0  0
   17.6635   17.7210   23.5294 H   0  0  0  0  0  0  0  0  0  0  0  0
   17.3472   19.1762   25.1279 C   0  0  0  0  0  0  0  0  0  0  0  0
   16.9275   20.1821   25.2585 H   0  0  0  0  0  0  0  0  0  0  0  0
   16.7514   18.4826   25.7351 H   0  0  0  0  0  0  0  0  0  0  0  0
   18.3671   19.1815   25.5290 H   0  0  0  0  0  0  0  0  0  0  0  0
  1  2  1  0  0  0  0
  1  3  2  0  0  0  0
  1  4  1  0  0  0  0
  4  5  1  0  0  0  0
  4  6  1  0  0  0  0
  4  7  1  0  0  0  0
  7  8  1  0  0  0  0
  7  9  1  0  0  0  0
  7 10  1  0  0  0  0
 10 11  1  0  0  0  0
 10 12  1  0  0  0  0
 10 13  1  0  0  0  0
 13 14  1  0  0  0  0
 13 15  1  0  0  0  0
 13 16  1  0  0  0  0
 16 17  1  0  0  0  0
 16 18  1  0  0  0  0
 16 19  1  0  0  0  0
 19 20  1  0  0  0  0
 19 21  1  0  0  0  0
 19 22  1  0  0  0  0
 22 23  1  0  0  0  0
 22 24  1  0  0  0  0
 22 25  1  0  0  0  0
M  END
> <VConfSearch Rank>
293

> <Conf_Id>
20

> <Delta U+W>
3.224

> <U+W>
-48.406

> <U>
10.617

> <W>
-59.023

> <W(PB)>
-61.467

> <W(SA)>
2.444

> <Valence>
11.188

> <Coulomb>
-1.778

> <VdW>
1.208

> <VdW6>
-9.786

> <VdW12>
10.993

> <Bond>
0.241

> <Angle>
3.294

> <Pdih>
7.653

> <Idih>
0.001

> <Tether>
0.000

$$$$
VeraChem MOL file


 25 24  0  0  0  0  0  0  0  0999 V2000     
   16.7721   19.5392   22.8694 C   0  0  0  0  0  0  0  0  0  0  0  0
   16.4142   20.6066   23.3278 O   0  5  0  0  0  0  0  0  0  0  0  0
   16.5383   18.4700   23.3982 O   0  0  0  0  0  0  0  0  0  0  0  0
   17.4966   19.5339   21.5246 C   0  0  0  0  0  0  0  0  0  0  0  0
   16.7859   19.9306   20.7904 H   0  0  0  0  0  0  0  0  0  0  0  0
   17.7016   18.4964   21.2341 H   0  0  0  0  0  0  0  0  0  0  0  0
   18.8022   20.3763   21.4711 C   0  0  0  0  0  0  0  0  0  0  0  0
   19.0201   20.5974   20.4176 H   0  0  0  0  0  0  0  0  0  0  0  0
   18.6406   21.3488   21.9566 H   0  0  0  0  0  0  0  0  0  0  0  0
   20.0484   19.6821   22.0748 C   0  0  0  0  0  0  0  0  0  0  0  0
   20.9280   20.2991   21.8455 H   0  0  0  0  0  0  0  0  0  0  0  0
   20.2109   18.7163   21.5772 H   0  0  0  0  0  0  0  0  0  0  0  0
   19.9740   19.4723   23.6042 C   0  0  0  0  0  0  0  0  0  0  0  0
   19.7079   20.4191   24.0939 H   0  0  0  0  0  0  0  0  0  0  0  0
   19.1812   18.7525   23.8435 H   0  0  0  0  0  0  0  0  0  0  0  0
   21.3112   18.9522   24.1751 C   0  0  0  0  0  0  0  0  0  0  0  0
   22.1119   19.6695   23.9486 H   0  0  0  0  0  0  0  0  0  0  0  0
   21.5781   18.0080   23.6808 H   0  0  0  0  0  0  0  0  0  0  0  0
   21.2346   18.7315   25.7004 C   0  0  0  0  0  0  0  0  0  0  0  0
   20.9686   19.6745   26.1980 H   0  0  0  0  0  0  0  0  0  0  0  0
   20.4356   18.0130   25.9308 H   0  0  0  0  0  0  0  0  0  0  0  0
   22.5709   18.2117   26.2676 C   0  0  0  0  0  0  0  0  0  0  0  0
   23.3824   18.9266   26.0786 H   0  0  0  0  0  0  0  0  0  0  0  0
   22.4981   18.0605   27.3524 H   0  0  0  0  0  0  0  0  0  0  0  0
   22.8454   17.2525   25.8093 H   0  0  0  0  0  0  0  0  0  0  0  0
  1  2  1  0  0  0  0
  1  3  2  0  0  0  0
  1  4  1  0  0  0  0
  4  5  1  0  0  0  0
  4  6  1  0  0  0  0
  4  7  1  0  0  0  0
  7  8  1  0  0  0  0
  7  9  1  0  0  0  0
  7 10  1  0  0  0  0
 10 11  1  0  0  0  0
 10 12  1  0  0  0  0
 10 13  1  0  0  0  0
 13 14  1  0  0  0  0
 13 15  1  0  0  0  0
 13 16  1  0  0  0  0
 16 17  1  0  0  0  0
 16 18  1  0  0  0  0
 16 19  1  0  0  0  0
 19 20  1  0  0  0  0
 19 21  1  0  0  0  0
 19 22  1  0  0  0  0
 22 23  1  0  0  0  0
 22 24  1  0  0  0  0
 22 25  1  0  0  0  0
M  END
> <VConfSearch Rank>
294

> <Conf_Id>
24

> <Delta U+W>
1.784

> <U+W>
-49.846

> <U>
10.904

> <W>
-60.749

> <W(PB)>
-63.220

> <W(SA)>
2.471

> <Valence>
9.445

> <Coulomb>
0.780

> <VdW>
0.679

> <VdW6>
-10.008

> <VdW12>
10.687

> <Bond>
0.201

> <Angle>
3.198

> <Pdih>
6.039

> <Idih>
0.006

> <Tether>
0.000

$$$$
VeraChem MOL file


 25 24  0  0  0  0  0  0  0  0999 V2000     
   17.0894   18.1661   24.0192 C   0  0  0  0  0  0  0  0  0  0  0  0
   16.5349   19.1483   24.4726 O   0  5  0  0  0  0  0  0  0  0  0  0
   16.9918   17.8166   22.8592 O   0  0  0  0  0  0  0  0  0  0  0  0
   17.8979   17.2861   24.9706 C   0  0  0  0  0  0  0  0  0  0  0  0
   18.2850   16.4230   24.4156 H   0  0  0  0  0  0  0  0  0  0  0  0
   17.1864   16.8927   25.7058 H   0  0  0  0  0  0  0  0  0  0  0  0
   19.0535   18.0068   25.7203 C   0  0  0  0  0  0  0  0  0  0  0  0
   18.7058   18.9779   26.0993 H   0  0  0  0  0  0  0  0  0  0  0  0
   19.3067   17.4100   26.6069 H   0  0  0  0  0  0  0  0  0  0  0  0
   20.3488   18.1932   24.8917 C   0  0  0  0  0  0  0  0  0  0  0  0
   20.6974   17.2177   24.5261 H   0  0  0  0  0  0  0  0  0  0  0  0
   21.1330   18.5692   25.5630 H   0  0  0  0  0  0  0  0  0  0  0  0
   20.2018   19.1706   23.7035 C   0  0  0  0  0  0  0  0  0  0  0  0
   19.5189   18.7481   22.9557 H   0  0  0  0  0  0  0  0  0  0  0  0
   19.7547   20.1114   24.0529 H   0  0  0  0  0  0  0  0  0  0  0  0
   21.5614   19.4617   23.0317 C   0  0  0  0  0  0  0  0  0  0  0  0
   22.0091   18.5194   22.6874 H   0  0  0  0  0  0  0  0  0  0  0  0
   22.2515   19.8933   23.7695 H   0  0  0  0  0  0  0  0  0  0  0  0
   21.4140   20.4286   21.8380 C   0  0  0  0  0  0  0  0  0  0  0  0
   20.7256   19.9993   21.0969 H   0  0  0  0  0  0  0  0  0  0  0  0
   20.9670   21.3726   22.1793 H   0  0  0  0  0  0  0  0  0  0  0  0
   22.7730   20.7171   21.1690 C   0  0  0  0  0  0  0  0  0  0  0  0
   23.2283   19.7927   20.7900 H   0  0  0  0  0  0  0  0  0  0  0  0
   22.6493   21.4056   20.3230 H   0  0  0  0  0  0  0  0  0  0  0  0
   23.4715   21.1765   21.8806 H   0  0  0  0  0  0  0  0  0  0  0  0
  1  2  1  0  0  0  0
  1  3  2  0  0  0  0
  1  4  1  0  0  0  0
  4  5  1  0  0  0  0
  4  6  1  0  0  0  0
  4  7  1  0  0  0  0
  7  8  1  0  0  0  0
  7  9  1  0  0  0  0
  7 10  1  0  0  0  0
 10 11  1  0  0  0  0
 10 12  1  0  0  0  0
 10 13  1  0  0  0  0
 13 14  1  0  0  0  0
 13 15  1  0  0  0  0
 13 16  1  0  0  0  0
 16 17  1  0  0  0  0
 16 18  1  0  0  0  0
 16 19  1  0  0  0  0
 19 20  1  0  0  0  0
 19 21  1  0  0  0  0
 19 22  1  0  0  0  0
 22 23  1  0  0  0  0
 22 24  1  0  0  0  0
 22 25  1  0  0  0  0
M  END
> <VConfSearch Rank>
295

> <Conf_Id>
9

> <Delta U+W>
1.764

> <U+W>
-49.865

> <U>
10.902

> <W>
-60.768

> <W(PB)>
-63.223

> <W(SA)>
2.456

> <Valence>
9.445

> <Coulomb>
0.778

> <VdW>
0.679

> <VdW6>
-10.007

> <VdW12>
10.687

> <Bond>
0.201

> <Angle>
3.198

> <Pdih>
6.040

> <Idih>
0.006

> <Tether>
0.000

$$$$
VeraChem MOL file


 25 24  0  0  0  0  0  0  0  0999 V2000     
   18.1028   17.2147   25.9178 C   0  0  0  0  0  0  0  0  0  0  0  0
   18.9934   17.3406   26.7350 O   0  5  0  0  0  0  0  0  0  0  0  0
   16.9767   16.8551   26.1993 O   0  0  0  0  0  0  0  0  0  0  0  0
   18.4094   17.5458   24.4618 C   0  0  0  0  0  0  0  0  0  0  0  0
   17.8044   16.8845   23.8303 H   0  0  0  0  0  0  0  0  0  0  0  0
   19.4578   17.2938   24.2750 H   0  0  0  0  0  0  0  0  0  0  0  0
   18.1188   19.0289   24.1102 C   0  0  0  0  0  0  0  0  0  0  0  0
   17.0555   19.2210   24.3100 H   0  0  0  0  0  0  0  0  0  0  0  0
   18.6804   19.6939   24.7809 H   0  0  0  0  0  0  0  0  0  0  0  0
   18.4164   19.3832   22.6309 C   0  0  0  0  0  0  0  0  0  0  0  0
   17.6714   20.1197   22.3000 H   0  0  0  0  0  0  0  0  0  0  0  0
   18.2697   18.5025   21.9908 H   0  0  0  0  0  0  0  0  0  0  0  0
   19.8176   19.9958   22.3822 C   0  0  0  0  0  0  0  0  0  0  0  0
   19.8855   20.2832   21.3242 H   0  0  0  0  0  0  0  0  0  0  0  0
   19.9105   20.9239   22.9613 H   0  0  0  0  0  0  0  0  0  0  0  0
   20.9938   19.0498   22.7214 C   0  0  0  0  0  0  0  0  0  0  0  0
   20.8119   18.0701   22.2594 H   0  0  0  0  0  0  0  0  0  0  0  0
   21.0385   18.8875   23.8062 H   0  0  0  0  0  0  0  0  0  0  0  0
   22.3634   19.5779   22.2347 C   0  0  0  0  0  0  0  0  0  0  0  0
   23.1255   18.8095   22.4242 H   0  0  0  0  0  0  0  0  0  0  0  0
   22.3381   19.7279   21.1465 H   0  0  0  0  0  0  0  0  0  0  0  0
   22.7932   20.8881   22.9295 C   0  0  0  0  0  0  0  0  0  0  0  0
   22.8013   20.7694   24.0209 H   0  0  0  0  0  0  0  0  0  0  0  0
   23.8038   21.1772   22.6132 H   0  0  0  0  0  0  0  0  0  0  0  0
   22.1168   21.7146   22.6781 H   0  0  0  0  0  0  0  0  0  0  0  0
  1  2  1  0  0  0  0
  1  3  2  0  0  0  0
  1  4  1  0  0  0  0
  4  5  1  0  0  0  0
  4  6  1  0  0  0  0
  4  7  1  0  0  0  0
  7  8  1  0  0  0  0
  7  9  1  0  0  0  0
  7 10  1  0  0  0  0
 10 11  1  0  0  0  0
 10 12  1  0  0  0  0
 10 13  1  0  0  0  0
 13 14  1  0  0  0  0
 13 15  1  0  0  0  0
 13 16  1  0  0  0  0
 16 17  1  0  0  0  0
 16 18  1  0  0  0  0
 16 19  1  0  0  0  0
 19 20  1  0  0  0  0
 19 21  1  0  0  0  0
 19 22  1  0  0  0  0
 22 23  1  0  0  0  0
 22 24  1  0  0  0  0
 22 25  1  0  0  0  0
M  END
> <VConfSearch Rank>
296

> <Conf_Id>
89

> <Delta U+W>
2.903

> <U+W>
-48.726

> <U>
10.996

> <W>
-59.723

> <W(PB)>
-62.151

> <W(SA)>
2.428

> <Valence>
10.985

> <Coulomb>
-0.995

> <VdW>
1.006

> <VdW6>
-10.062

> <VdW12>
11.069

> <Bond>
0.238

> <Angle>
3.202

> <Pdih>
7.544

> <Idih>
0.001

> <Tether>
0.000

$$$$
VeraChem MOL file


 25 24  0  0  0  0  0  0  0  0999 V2000     
   17.7133   18.5000   25.9516 C   0  0  0  0  0  0  0  0  0  0  0  0
   17.9625   19.4564   26.6592 O   0  5  0  0  0  0  0  0  0  0  0  0
   16.6584   18.3569   25.3648 O   0  0  0  0  0  0  0  0  0  0  0  0
   18.7575   17.3900   25.8477 C   0  0  0  0  0  0  0  0  0  0  0  0
   18.3038   16.4986   26.2960 H   0  0  0  0  0  0  0  0  0  0  0  0
   19.6197   17.6512   26.4731 H   0  0  0  0  0  0  0  0  0  0  0  0
   19.2223   17.0486   24.4038 C   0  0  0  0  0  0  0  0  0  0  0  0
   19.6429   16.0340   24.4156 H   0  0  0  0  0  0  0  0  0  0  0  0
   18.3551   17.0075   23.7301 H   0  0  0  0  0  0  0  0  0  0  0  0
   20.3009   17.9975   23.8240 C   0  0  0  0  0  0  0  0  0  0  0  0
   20.6625   17.5561   22.8870 H   0  0  0  0  0  0  0  0  0  0  0  0
   21.1644   18.0333   24.5020 H   0  0  0  0  0  0  0  0  0  0  0  0
   19.7945   19.4346   23.5505 C   0  0  0  0  0  0  0  0  0  0  0  0
   18.8941   19.4003   22.9221 H   0  0  0  0  0  0  0  0  0  0  0  0
   19.4959   19.8988   24.4982 H   0  0  0  0  0  0  0  0  0  0  0  0
   20.8552   20.3488   22.8915 C   0  0  0  0  0  0  0  0  0  0  0  0
   21.7670   20.3564   23.5042 H   0  0  0  0  0  0  0  0  0  0  0  0
   20.4725   21.3786   22.8929 H   0  0  0  0  0  0  0  0  0  0  0  0
   21.2034   19.9494   21.4394 C   0  0  0  0  0  0  0  0  0  0  0  0
   21.6655   18.9540   21.4190 H   0  0  0  0  0  0  0  0  0  0  0  0
   20.2837   19.8883   20.8414 H   0  0  0  0  0  0  0  0  0  0  0  0
   22.1690   20.9619   20.7909 C   0  0  0  0  0  0  0  0  0  0  0  0
   23.1094   21.0234   21.3542 H   0  0  0  0  0  0  0  0  0  0  0  0
   22.4090   20.6633   19.7622 H   0  0  0  0  0  0  0  0  0  0  0  0
   21.7232   21.9646   20.7572 H   0  0  0  0  0  0  0  0  0  0  0  0
  1  2  1  0  0  0  0
  1  3  2  0  0  0  0
  1  4  1  0  0  0  0
  4  5  1  0  0  0  0
  4  6  1  0  0  0  0
  4  7  1  0  0  0  0
  7  8  1  0  0  0  0
  7  9  1  0  0  0  0
  7 10  1  0  0  0  0
 10 11  1  0  0  0  0
 10 12  1  0  0  0  0
 10 13  1  0  0  0  0
 13 14  1  0  0  0  0
 13 15  1  0  0  0  0
 13 16  1  0  0  0  0
 16 17  1  0  0  0  0
 16 18  1  0  0  0  0
 16 19  1  0  0  0  0
 19 20  1  0  0  0  0
 19 21  1  0  0  0  0
 19 22  1  0  0  0  0
 22 23  1  0  0  0  0
 22 24  1  0  0  0  0
 22 25  1  0  0  0  0
M  END
> <VConfSearch Rank>
297

> <Conf_Id>
114

> <Delta U+W>
2.758

> <U+W>
-48.871

> <U>
11.422

> <W>
-60.293

> <W(PB)>
-62.719

> <W(SA)>
2.425

> <Valence>
10.135

> <Coulomb>
0.369

> <VdW>
0.918

> <VdW6>
-10.482

> <VdW12>
11.400

> <Bond>
0.245

> <Angle>
3.539

> <Pdih>
6.346

> <Idih>
0.006

> <Tether>
0.000

$$$$
VeraChem MOL file


 25 24  0  0  0  0  0  0  0  0999 V2000     
   18.5064   21.1194   20.6381 C   0  0  0  0  0  0  0  0  0  0  0  0
   18.4274   20.3728   19.6824 O   0  5  0  0  0  0  0  0  0  0  0  0
   17.5406   21.5998   21.1981 O   0  0  0  0  0  0  0  0  0  0  0  0
   19.8942   21.4917   21.1523 C   0  0  0  0  0  0  0  0  0  0  0  0
   19.9017   22.5747   21.3224 H   0  0  0  0  0  0  0  0  0  0  0  0
   20.6263   21.2896   20.3611 H   0  0  0  0  0  0  0  0  0  0  0  0
   20.2988   20.7592   22.4579 C   0  0  0  0  0  0  0  0  0  0  0  0
   21.2455   21.1791   22.8237 H   0  0  0  0  0  0  0  0  0  0  0  0
   19.5425   20.9623   23.2274 H   0  0  0  0  0  0  0  0  0  0  0  0
   20.4611   19.2336   22.2544 C   0  0  0  0  0  0  0  0  0  0  0  0
   21.1507   19.0581   21.4175 H   0  0  0  0  0  0  0  0  0  0  0  0
   19.4993   18.7913   21.9599 H   0  0  0  0  0  0  0  0  0  0  0  0
   21.0069   18.4971   23.5012 C   0  0  0  0  0  0  0  0  0  0  0  0
   21.2240   17.4605   23.2140 H   0  0  0  0  0  0  0  0  0  0  0  0
   21.9639   18.9437   23.8031 H   0  0  0  0  0  0  0  0  0  0  0  0
   20.0256   18.5032   24.6993 C   0  0  0  0  0  0  0  0  0  0  0  0
   19.0675   18.0598   24.3957 H   0  0  0  0  0  0  0  0  0  0  0  0
   19.8109   19.5392   24.9905 H   0  0  0  0  0  0  0  0  0  0  0  0
   20.5689   17.7602   25.9424 C   0  0  0  0  0  0  0  0  0  0  0  0
   21.5331   18.1937   26.2419 H   0  0  0  0  0  0  0  0  0  0  0  0
   19.8795   17.9285   26.7812 H   0  0  0  0  0  0  0  0  0  0  0  0
   20.7259   16.2388   25.7290 C   0  0  0  0  0  0  0  0  0  0  0  0
   21.0205   15.7487   26.6659 H   0  0  0  0  0  0  0  0  0  0  0  0
   19.7816   15.7892   25.3952 H   0  0  0  0  0  0  0  0  0  0  0  0
   21.4973   16.0153   24.9817 H   0  0  0  0  0  0  0  0  0  0  0  0
  1  2  1  0  0  0  0
  1  3  2  0  0  0  0
  1  4  1  0  0  0  0
  4  5  1  0  0  0  0
  4  6  1  0  0  0  0
  4  7  1  0  0  0  0
  7  8  1  0  0  0  0
  7  9  1  0  0  0  0
  7 10  1  0  0  0  0
 10 11  1  0  0  0  0
 10 12  1  0  0  0  0
 10 13  1  0  0  0  0
 13 14  1  0  0  0  0
 13 15  1  0  0  0  0
 13 16  1  0  0  0  0
 16 17  1  0  0  0  0
 16 18  1  0  0  0  0
 16 19  1  0  0  0  0
 19 20  1  0  0  0  0
 19 21  1  0  0  0  0
 19 22  1  0  0  0  0
 22 23  1  0  0  0  0
 22 24  1  0  0  0  0
 22 25  1  0  0  0  0
M  END
> <VConfSearch Rank>
298

> <Conf_Id>
87

> <Delta U+W>
1.453

> <U+W>
-50.176

> <U>
9.763

> <W>
-59.940

> <W(PB)>
-62.392

> <W(SA)>
2.452

> <Valence>
8.883

> <Coulomb>
-0.122

> <VdW>
1.003

> <VdW6>
-9.782

> <VdW12>
10.785

> <Bond>
0.212

> <Angle>
2.940

> <Pdih>
5.730

> <Idih>
0.001

> <Tether>
0.000

$$$$
VeraChem MOL file


 25 24  0  0  0  0  0  0  0  0999 V2000     
   16.8877   16.8505   24.0614 C   0  0  0  0  0  0  0  0  0  0  0  0
   17.2104   15.7917   23.5599 O   0  5  0  0  0  0  0  0  0  0  0  0
   16.1723   16.9419   25.0394 O   0  0  0  0  0  0  0  0  0  0  0  0
   17.4251   18.1348   23.4402 C   0  0  0  0  0  0  0  0  0  0  0  0
   16.6711   18.9196   23.5747 H   0  0  0  0  0  0  0  0  0  0  0  0
   17.5348   17.9715   22.3613 H   0  0  0  0  0  0  0  0  0  0  0  0
   18.7760   18.5796   24.0526 C   0  0  0  0  0  0  0  0  0  0  0  0
   18.6529   18.7309   25.1339 H   0  0  0  0  0  0  0  0  0  0  0  0
   19.5077   17.7711   23.9234 H   0  0  0  0  0  0  0  0  0  0  0  0
   19.3014   19.8793   23.4004 C   0  0  0  0  0  0  0  0  0  0  0  0
   18.5284   20.6559   23.4783 H   0  0  0  0  0  0  0  0  0  0  0  0
   19.4629   19.7173   22.3266 H   0  0  0  0  0  0  0  0  0  0  0  0
   20.5996   20.4159   24.0539 C   0  0  0  0  0  0  0  0  0  0  0  0
   20.8708   21.3660   23.5752 H   0  0  0  0  0  0  0  0  0  0  0  0
   20.3919   20.6615   25.1041 H   0  0  0  0  0  0  0  0  0  0  0  0
   21.8149   19.4525   24.0021 C   0  0  0  0  0  0  0  0  0  0  0  0
   21.6051   18.5695   24.6198 H   0  0  0  0  0  0  0  0  0  0  0  0
   22.6738   19.9475   24.4752 H   0  0  0  0  0  0  0  0  0  0  0  0
   22.2271   18.9865   22.5840 C   0  0  0  0  0  0  0  0  0  0  0  0
   23.0752   18.2942   22.6756 H   0  0  0  0  0  0  0  0  0  0  0  0
   21.4132   18.4105   22.1241 H   0  0  0  0  0  0  0  0  0  0  0  0
   22.6333   20.1499   21.6536 C   0  0  0  0  0  0  0  0  0  0  0  0
   23.4359   20.7496   22.1020 H   0  0  0  0  0  0  0  0  0  0  0  0
   22.9954   19.7643   20.6918 H   0  0  0  0  0  0  0  0  0  0  0  0
   21.7824   20.8114   21.4481 H   0  0  0  0  0  0  0  0  0  0  0  0
  1  2  1  0  0  0  0
  1  3  2  0  0  0  0
  1  4  1  0  0  0  0
  4  5  1  0  0  0  0
  4  6  1  0  0  0  0
  4  7  1  0  0  0  0
  7  8  1  0  0  0  0
  7  9  1  0  0  0  0
  7 10  1  0  0  0  0
 10 11  1  0  0  0  0
 10 12  1  0  0  0  0
 10 13  1  0  0  0  0
 13 14  1  0  0  0  0
 13 15  1  0  0  0  0
 13 16  1  0  0  0  0
 16 17  1  0  0  0  0
 16 18  1  0  0  0  0
 16 19  1  0  0  0  0
 19 20  1  0  0  0  0
 19 21  1  0  0  0  0
 19 22  1  0  0  0  0
 22 23  1  0  0  0  0
 22 24  1  0  0  0  0
 22 25  1  0  0  0  0
M  END
> <VConfSearch Rank>
299

> <Conf_Id>
29

> <Delta U+W>
0.850

> <U+W>
-50.780

> <U>
8.646

> <W>
-59.426

> <W(PB)>
-61.868

> <W(SA)>
2.442

> <Valence>
8.924

> <Coulomb>
-1.171

> <VdW>
0.894

> <VdW6>
-10.223

> <VdW12>
11.117

> <Bond>
0.231

> <Angle>
3.232

> <Pdih>
5.461

> <Idih>
0.001

> <Tether>
0.000

$$$$
VeraChem MOL file


 25 24  0  0  0  0  0  0  0  0999 V2000     
   20.8604   18.4993   27.1417 C   0  0  0  0  0  0  0  0  0  0  0  0
   21.4127   19.5336   27.4610 O   0  5  0  0  0  0  0  0  0  0  0  0
   21.1365   17.4147   27.6151 O   0  0  0  0  0  0  0  0  0  0  0  0
   19.7738   18.5632   26.0743 C   0  0  0  0  0  0  0  0  0  0  0  0
   19.2666   19.5315   26.1619 H   0  0  0  0  0  0  0  0  0  0  0  0
   19.0320   17.7869   26.2965 H   0  0  0  0  0  0  0  0  0  0  0  0
   20.3282   18.3793   24.6401 C   0  0  0  0  0  0  0  0  0  0  0  0
   21.0819   19.1546   24.4487 H   0  0  0  0  0  0  0  0  0  0  0  0
   20.8403   17.4098   24.5697 H   0  0  0  0  0  0  0  0  0  0  0  0
   19.2075   18.4557   23.5777 C   0  0  0  0  0  0  0  0  0  0  0  0
   18.7214   19.4392   23.6203 H   0  0  0  0  0  0  0  0  0  0  0  0
   18.4297   17.7206   23.8252 H   0  0  0  0  0  0  0  0  0  0  0  0
   19.7034   18.1747   22.1370 C   0  0  0  0  0  0  0  0  0  0  0  0
   20.0995   17.1512   22.0923 H   0  0  0  0  0  0  0  0  0  0  0  0
   18.8420   18.1892   21.4565 H   0  0  0  0  0  0  0  0  0  0  0  0
   20.7891   19.1488   21.6079 C   0  0  0  0  0  0  0  0  0  0  0  0
   21.0439   18.8627   20.5785 H   0  0  0  0  0  0  0  0  0  0  0  0
   21.7111   19.0156   22.1888 H   0  0  0  0  0  0  0  0  0  0  0  0
   20.3965   20.6467   21.6261 C   0  0  0  0  0  0  0  0  0  0  0  0
   20.2231   20.9793   22.6582 H   0  0  0  0  0  0  0  0  0  0  0  0
   21.2465   21.2361   21.2559 H   0  0  0  0  0  0  0  0  0  0  0  0
   19.1575   20.9633   20.7609 C   0  0  0  0  0  0  0  0  0  0  0  0
   18.2583   20.4772   21.1596 H   0  0  0  0  0  0  0  0  0  0  0  0
   18.9699   22.0446   20.7392 H   0  0  0  0  0  0  0  0  0  0  0  0
   19.3033   20.6239   19.7272 H   0  0  0  0  0  0  0  0  0  0  0  0
  1  2  1  0  0  0  0
  1  3  2  0  0  0  0
  1  4  1  0  0  0  0
  4  5  1  0  0  0  0
  4  6  1  0  0  0  0
  4  7  1  0  0  0  0
  7  8  1  0  0  0  0
  7  9  1  0  0  0  0
  7 10  1  0  0  0  0
 10 11  1  0  0  0  0
 10 12  1  0  0  0  0
 10 13  1  0  0  0  0
 13 14  1  0  0  0  0
 13 15  1  0  0  0  0
 13 16  1  0  0  0  0
 16 17  1  0  0  0  0
 16 18  1  0  0  0  0
 16 19  1  0  0  0  0
 19 20  1  0  0  0  0
 19 21  1  0  0  0  0
 19 22  1  0  0  0  0
 22 23  1  0  0  0  0
 22 24  1  0  0  0  0
 22 25  1  0  0  0  0
M  END
> <VConfSearch Rank>
300

> <Conf_Id>
30

> <Delta U+W>
0.843

> <U+W>
-50.787

> <U>
8.647

> <W>
-59.434

> <W(PB)>
-61.861

> <W(SA)>
2.428

> <Valence>
8.924

> <Coulomb>
-1.170

> <VdW>
0.894

> <VdW6>
-10.224

> <VdW12>
11.118

> <Bond>
0.231

> <Angle>
3.232

> <Pdih>
5.460

> <Idih>
0.000

> <Tether>
0.000

$$$$
VeraChem MOL file


 25 24  0  0  0  0  0  0  0  0999 V2000     
   22.0929   19.7065   18.9144 C   0  0  0  0  0  0  0  0  0  0  0  0
   21.1345   20.2874   18.4424 O   0  5  0  0  0  0  0  0  0  0  0  0
   23.1048   19.4739   18.2835 O   0  0  0  0  0  0  0  0  0  0  0  0
   22.0527   19.2338   20.3685 C   0  0  0  0  0  0  0  0  0  0  0  0
   22.9039   19.6927   20.8850 H   0  0  0  0  0  0  0  0  0  0  0  0
   22.2250   18.1511   20.3650 H   0  0  0  0  0  0  0  0  0  0  0  0
   20.7405   19.5539   21.1328 C   0  0  0  0  0  0  0  0  0  0  0  0
   20.5708   20.6395   21.1268 H   0  0  0  0  0  0  0  0  0  0  0  0
   19.8913   19.0965   20.6064 H   0  0  0  0  0  0  0  0  0  0  0  0
   20.7851   19.0430   22.5894 C   0  0  0  0  0  0  0  0  0  0  0  0
   21.6349   19.5015   23.1136 H   0  0  0  0  0  0  0  0  0  0  0  0
   20.9549   17.9575   22.5929 H   0  0  0  0  0  0  0  0  0  0  0  0
   19.4789   19.3625   23.3479 C   0  0  0  0  0  0  0  0  0  0  0  0
   19.3088   20.4479   23.3446 H   0  0  0  0  0  0  0  0  0  0  0  0
   18.6289   18.9040   22.8239 H   0  0  0  0  0  0  0  0  0  0  0  0
   19.5228   18.8519   24.8044 C   0  0  0  0  0  0  0  0  0  0  0  0
   20.3726   19.3103   25.3285 H   0  0  0  0  0  0  0  0  0  0  0  0
   19.6927   17.7665   24.8079 H   0  0  0  0  0  0  0  0  0  0  0  0
   18.2172   19.1712   25.5626 C   0  0  0  0  0  0  0  0  0  0  0  0
   18.0448   20.2565   25.5628 H   0  0  0  0  0  0  0  0  0  0  0  0
   17.3649   18.7127   25.0422 H   0  0  0  0  0  0  0  0  0  0  0  0
   18.2650   18.6599   27.0165 C   0  0  0  0  0  0  0  0  0  0  0  0
   19.0901   19.1267   27.5702 H   0  0  0  0  0  0  0  0  0  0  0  0
   17.3294   18.8953   27.5404 H   0  0  0  0  0  0  0  0  0  0  0  0
   18.4051   17.5714   27.0457 H   0  0  0  0  0  0  0  0  0  0  0  0
  1  2  1  0  0  0  0
  1  3  2  0  0  0  0
  1  4  1  0  0  0  0
  4  5  1  0  0  0  0
  4  6  1  0  0  0  0
  4  7  1  0  0  0  0
  7  8  1  0  0  0  0
  7  9  1  0  0  0  0
  7 10  1  0  0  0  0
 10 11  1  0  0  0  0
 10 12  1  0  0  0  0
 10 13  1  0  0  0  0
 13 14  1  0  0  0  0
 13 15  1  0  0  0  0
 13 16  1  0  0  0  0
 16 17  1  0  0  0  0
 16 18  1  0  0  0  0
 16 19  1  0  0  0  0
 19 20  1  0  0  0  0
 19 21  1  0  0  0  0
 19 22  1  0  0  0  0
 22 23  1  0  0  0  0
 22 24  1  0  0  0  0
 22 25  1  0  0  0  0
M  END
> <VConfSearch Rank>
301

> <Conf_Id>
0

> <Delta U+W>
0.000

> <U+W>
-51.629

> <U>
6.586

> <W>
-58.216

> <W(PB)>
-60.757

> <W(SA)>
2.541

> <Valence>
8.027

> <Coulomb>
-2.892

> <VdW>
1.451

> <VdW6>
-7.931

> <VdW12>
9.383

> <Bond>
0.149

> <Angle>
2.726

> <Pdih>
5.152

> <Idih>
0.000

> <Tether>
0.000

$$$$
VeraChem MOL file


 25 24  0  0  0  0  0  0  0  0999 V2000     
   24.1079   19.9718   25.4319 C   0  0  0  0  0  0  0  0  0  0  0  0
   24.0168   19.8953   26.6413 O   0  5  0  0  0  0  0  0  0  0  0  0
   25.1126   19.6825   24.8126 O   0  0  0  0  0  0  0  0  0  0  0  0
   22.8863   20.4346   24.6461 C   0  0  0  0  0  0  0  0  0  0  0  0
   23.2369   20.9754   23.7588 H   0  0  0  0  0  0  0  0  0  0  0  0
   22.3342   21.1514   25.2657 H   0  0  0  0  0  0  0  0  0  0  0  0
   21.9614   19.2648   24.2286 C   0  0  0  0  0  0  0  0  0  0  0  0
   22.5326   18.5499   23.6202 H   0  0  0  0  0  0  0  0  0  0  0  0
   21.6300   18.7258   25.1271 H   0  0  0  0  0  0  0  0  0  0  0  0
   20.7325   19.7587   23.4349 C   0  0  0  0  0  0  0  0  0  0  0  0
   21.0671   20.2981   22.5381 H   0  0  0  0  0  0  0  0  0  0  0  0
   20.1644   20.4742   24.0453 H   0  0  0  0  0  0  0  0  0  0  0  0
   19.8122   18.5905   23.0203 C   0  0  0  0  0  0  0  0  0  0  0  0
   20.3800   17.8749   22.4099 H   0  0  0  0  0  0  0  0  0  0  0  0
   19.4775   18.0510   23.9170 H   0  0  0  0  0  0  0  0  0  0  0  0
   18.5831   19.0836   22.2266 C   0  0  0  0  0  0  0  0  0  0  0  0
   18.9174   19.6231   21.3298 H   0  0  0  0  0  0  0  0  0  0  0  0
   18.0150   19.7992   22.8369 H   0  0  0  0  0  0  0  0  0  0  0  0
   17.6630   17.9161   21.8122 C   0  0  0  0  0  0  0  0  0  0  0  0
   18.2274   17.1990   21.2000 H   0  0  0  0  0  0  0  0  0  0  0  0
   17.3249   17.3752   22.7070 H   0  0  0  0  0  0  0  0  0  0  0  0
   16.4369   18.4126   21.0199 C   0  0  0  0  0  0  0  0  0  0  0  0
   15.7942   17.5699   20.7335 H   0  0  0  0  0  0  0  0  0  0  0  0
   15.8363   19.1080   21.6207 H   0  0  0  0  0  0  0  0  0  0  0  0
   16.7455   18.9305   20.1024 H   0  0  0  0  0  0  0  0  0  0  0  0
  1  2  1  0  0  0  0
  1  3  2  0  0  0  0
  1  4  1  0  0  0  0
  4  5  1  0  0  0  0
  4  6  1  0  0  0  0
  4  7  1  0  0  0  0
  7  8  1  0  0  0  0
  7  9  1  0  0  0  0
  7 10  1  0  0  0  0
 10 11  1  0  0  0  0
 10 12  1  0  0  0  0
 10 13  1  0  0  0  0
 13 14  1  0  0  0  0
 13 15  1  0  0  0  0
 13 16  1  0  0  0  0
 16 17  1  0  0  0  0
 16 18  1  0  0  0  0
 16 19  1  0  0  0  0
 19 20  1  0  0  0  0
 19 21  1  0  0  0  0
 19 22  1  0  0  0  0
 22 23  1  0  0  0  0
 22 24  1  0  0  0  0
 22 25  1  0  0  0  0
M  END
> <VConfSearch Rank>
302

> <Conf_Id>
27

> <Delta U+W>
-1.297

> <U+W>
-52.926

> <U>
5.617

> <W>
-58.543

> <W(PB)>
-61.065

> <W(SA)>
2.522

> <Valence>
7.531

> <Coulomb>
-2.818

> <VdW>
0.904

> <VdW6>
-7.640

> <VdW12>
8.544

> <Bond>
0.115

> <Angle>
2.271

> <Pdih>
5.144

> <Idih>
0.001

> <Tether>
0.000

$$$$
VeraChem MOL file


 25 24  0  0  0  0  0  0  0  0999 V2000     
   16.4032   19.9758   22.4283 C   0  0  0  0  0  0  0  0  0  0  0  0
   16.2921   20.7878   21.5309 O   0  5  0  0  0  0  0  0  0  0  0  0
   16.0530   18.8159   22.3332 O   0  0  0  0  0  0  0  0  0  0  0  0
   17.0001   20.4448   23.7522 C   0  0  0  0  0  0  0  0  0  0  0  0
   16.7208   19.7294   24.5351 H   0  0  0  0  0  0  0  0  0  0  0  0
   16.5223   21.3978   24.0079 H   0  0  0  0  0  0  0  0  0  0  0  0
   18.5396   20.6291   23.7194 C   0  0  0  0  0  0  0  0  0  0  0  0
   18.8055   21.3265   22.9128 H   0  0  0  0  0  0  0  0  0  0  0  0
   18.8628   21.0956   24.6599 H   0  0  0  0  0  0  0  0  0  0  0  0
   19.2939   19.2943   23.5271 C   0  0  0  0  0  0  0  0  0  0  0  0
   18.9888   18.8298   22.5792 H   0  0  0  0  0  0  0  0  0  0  0  0
   19.0145   18.5961   24.3280 H   0  0  0  0  0  0  0  0  0  0  0  0
   20.8245   19.4970   23.5295 C   0  0  0  0  0  0  0  0  0  0  0  0
   21.1029   20.1953   22.7283 H   0  0  0  0  0  0  0  0  0  0  0  0
   21.1323   19.9587   24.4777 H   0  0  0  0  0  0  0  0  0  0  0  0
   21.5789   18.1638   23.3366 C   0  0  0  0  0  0  0  0  0  0  0  0
   21.2711   17.7020   22.3884 H   0  0  0  0  0  0  0  0  0  0  0  0
   21.3003   17.4653   24.1375 H   0  0  0  0  0  0  0  0  0  0  0  0
   23.1088   18.3660   23.3384 C   0  0  0  0  0  0  0  0  0  0  0  0
   23.3913   19.0629   22.5371 H   0  0  0  0  0  0  0  0  0  0  0  0
   23.4205   18.8261   24.2863 H   0  0  0  0  0  0  0  0  0  0  0  0
   23.8583   17.0324   23.1453 C   0  0  0  0  0  0  0  0  0  0  0  0
   23.5889   16.5652   22.1890 H   0  0  0  0  0  0  0  0  0  0  0  0
   24.9440   17.1947   23.1491 H   0  0  0  0  0  0  0  0  0  0  0  0
   23.6183   16.3266   23.9513 H   0  0  0  0  0  0  0  0  0  0  0  0
  1  2  1  0  0  0  0
  1  3  2  0  0  0  0
  1  4  1  0  0  0  0
  4  5  1  0  0  0  0
  4  6  1  0  0  0  0
  4  7  1  0  0  0  0
  7  8  1  0  0  0  0
  7  9  1  0  0  0  0
  7 10  1  0  0  0  0
 10 11  1  0  0  0  0
 10 12  1  0  0  0  0
 10 13  1  0  0  0  0
 13 14  1  0  0  0  0
 13 15  1  0  0  0  0
 13 16  1  0  0  0  0
 16 17  1  0  0  0  0
 16 18  1  0  0  0  0
 16 19  1  0  0  0  0
 19 20  1  0  0  0  0
 19 21  1  0  0  0  0
 19 22  1  0  0  0  0
 22 23  1  0  0  0  0
 22 24  1  0  0  0  0
 22 25  1  0  0  0  0
M  END
> <VConfSearch Rank>
303

> <Conf_Id>
37

> <Delta U+W>
-0.230

> <U+W>
-51.860

> <U>
7.816

> <W>
-59.675

> <W(PB)>
-62.180

> <W(SA)>
2.505

> <Valence>
7.785

> <Coulomb>
-0.713

> <VdW>
0.744

> <VdW6>
-8.514

> <VdW12>
9.259

> <Bond>
0.136

> <Angle>
2.433

> <Pdih>
5.216

> <Idih>
0.000

> <Tether>
0.000

$$$$
VeraChem MOL file


 25 24  0  0  0  0  0  0  0  0999 V2000     
   17.7457   19.5050   26.6756 C   0  0  0  0  0  0  0  0  0  0  0  0
   18.3981   19.4955   27.7010 O   0  5  0  0  0  0  0  0  0  0  0  0
   17.0032   18.6025   26.3422 O   0  0  0  0  0  0  0  0  0  0  0  0
   17.8539   20.7258   25.7663 C   0  0  0  0  0  0  0  0  0  0  0  0
   17.7826   21.6158   26.4025 H   0  0  0  0  0  0  0  0  0  0  0  0
   16.9844   20.7427   25.0980 H   0  0  0  0  0  0  0  0  0  0  0  0
   19.1654   20.7826   24.9407 C   0  0  0  0  0  0  0  0  0  0  0  0
   19.2208   21.7513   24.4259 H   0  0  0  0  0  0  0  0  0  0  0  0
   20.0265   20.7368   25.6219 H   0  0  0  0  0  0  0  0  0  0  0  0
   19.2614   19.6456   23.8987 C   0  0  0  0  0  0  0  0  0  0  0  0
   18.3917   19.6875   23.2286 H   0  0  0  0  0  0  0  0  0  0  0  0
   19.2241   18.6726   24.4079 H   0  0  0  0  0  0  0  0  0  0  0  0
   20.5589   19.7400   23.0673 C   0  0  0  0  0  0  0  0  0  0  0  0
   20.5969   20.7111   22.5549 H   0  0  0  0  0  0  0  0  0  0  0  0
   21.4279   19.6979   23.7382 H   0  0  0  0  0  0  0  0  0  0  0  0
   20.6558   18.6038   22.0264 C   0  0  0  0  0  0  0  0  0  0  0  0
   19.7867   18.6456   21.3555 H   0  0  0  0  0  0  0  0  0  0  0  0
   20.6177   17.6326   22.5387 H   0  0  0  0  0  0  0  0  0  0  0  0
   21.9529   18.6974   21.1956 C   0  0  0  0  0  0  0  0  0  0  0  0
   21.9936   19.6670   20.6802 H   0  0  0  0  0  0  0  0  0  0  0  0
   22.8245   18.6539   21.8633 H   0  0  0  0  0  0  0  0  0  0  0  0
   22.0458   17.5611   20.1574 C   0  0  0  0  0  0  0  0  0  0  0  0
   21.2019   17.5997   19.4561 H   0  0  0  0  0  0  0  0  0  0  0  0
   22.9734   17.6429   19.5761 H   0  0  0  0  0  0  0  0  0  0  0  0
   22.0390   16.5790   20.6482 H   0  0  0  0  0  0  0  0  0  0  0  0
  1  2  1  0  0  0  0
  1  3  2  0  0  0  0
  1  4  1  0  0  0  0
  4  5  1  0  0  0  0
  4  6  1  0  0  0  0
  4  7  1  0  0  0  0
  7  8  1  0  0  0  0
  7  9  1  0  0  0  0
  7 10  1  0  0  0  0
 10 11  1  0  0  0  0
 10 12  1  0  0  0  0
 10 13  1  0  0  0  0
 13 14  1  0  0  0  0
 13 15  1  0  0  0  0
 13 16  1  0  0  0  0
 16 17  1  0  0  0  0
 16 18  1  0  0  0  0
 16 19  1  0  0  0  0
 19 20  1  0  0  0  0
 19 21  1  0  0  0  0
 19 22  1  0  0  0  0
 22 23  1  0  0  0  0
 22 24  1  0  0  0  0
 22 25  1  0  0  0  0
M  END
> <VConfSearch Rank>
304

> <Conf_Id>
54

> <Delta U+W>
-0.224

> <U+W>
-51.854

> <U>
7.816

> <W>
-59.670

> <W(PB)>
-62.157

> <W(SA)>
2.487

> <Valence>
7.785

> <Coulomb>
-0.713

> <VdW>
0.744

> <VdW6>
-8.515

> <VdW12>
9.259

> <Bond>
0.136

> <Angle>
2.433

> <Pdih>
5.215

> <Idih>
0.000

> <Tether>
0.000

$$$$
VeraChem MOL file


 25 24  0  0  0  0  0  0  0  0999 V2000     
   16.3489   17.7968   22.7170 C   0  0  0  0  0  0  0  0  0  0  0  0
   16.2298   17.7296   21.5094 O   0  5  0  0  0  0  0  0  0  0  0  0
   16.0602   16.8898   23.4728 O   0  0  0  0  0  0  0  0  0  0  0  0
   16.8719   19.0970   23.3211 C   0  0  0  0  0  0  0  0  0  0  0  0
   16.2200   19.3506   24.1653 H   0  0  0  0  0  0  0  0  0  0  0  0
   16.7585   19.8981   22.5806 H   0  0  0  0  0  0  0  0  0  0  0  0
   18.3428   19.0217   23.8075 C   0  0  0  0  0  0  0  0  0  0  0  0
   18.5722   19.9409   24.3608 H   0  0  0  0  0  0  0  0  0  0  0  0
   18.4491   18.1891   24.5166 H   0  0  0  0  0  0  0  0  0  0  0  0
   19.3457   18.8491   22.6412 C   0  0  0  0  0  0  0  0  0  0  0  0
   19.2705   19.7052   21.9568 H   0  0  0  0  0  0  0  0  0  0  0  0
   19.0673   17.9615   22.0566 H   0  0  0  0  0  0  0  0  0  0  0  0
   20.8128   18.6828   23.1048 C   0  0  0  0  0  0  0  0  0  0  0  0
   20.8841   17.8384   23.8037 H   0  0  0  0  0  0  0  0  0  0  0  0
   21.4156   18.4128   22.2285 H   0  0  0  0  0  0  0  0  0  0  0  0
   21.4027   19.9561   23.7602 C   0  0  0  0  0  0  0  0  0  0  0  0
   20.8060   20.2240   24.6412 H   0  0  0  0  0  0  0  0  0  0  0  0
   21.3265   20.8013   23.0627 H   0  0  0  0  0  0  0  0  0  0  0  0
   22.8725   19.7896   24.2122 C   0  0  0  0  0  0  0  0  0  0  0  0
   23.1667   20.6799   24.7851 H   0  0  0  0  0  0  0  0  0  0  0  0
   22.9549   18.9371   24.9005 H   0  0  0  0  0  0  0  0  0  0  0  0
   23.8598   19.6085   23.0386 C   0  0  0  0  0  0  0  0  0  0  0  0
   23.6831   18.6655   22.5066 H   0  0  0  0  0  0  0  0  0  0  0  0
   23.7702   20.4326   22.3189 H   0  0  0  0  0  0  0  0  0  0  0  0
   24.8938   19.5925   23.4065 H   0  0  0  0  0  0  0  0  0  0  0  0
  1  2  1  0  0  0  0
  1  3  2  0  0  0  0
  1  4  1  0  0  0  0
  4  5  1  0  0  0  0
  4  6  1  0  0  0  0
  4  7  1  0  0  0  0
  7  8  1  0  0  0  0
  7  9  1  0  0  0  0
  7 10  1  0  0  0  0
 10 11  1  0  0  0  0
 10 12  1  0  0  0  0
 10 13  1  0  0  0  0
 13 14  1  0  0  0  0
 13 15  1  0  0  0  0
 13 16  1  0  0  0  0
 16 17  1  0  0  0  0
 16 18  1  0  0  0  0
 16 19  1  0  0  0  0
 19 20  1  0  0  0  0
 19 21  1  0  0  0  0
 19 22  1  0  0  0  0
 22 23  1  0  0  0  0
 22 24  1  0  0  0  0
 22 25  1  0  0  0  0
M  END
> <VConfSearch Rank>
305

> <Conf_Id>
101

> <Delta U+W>
1.534

> <U+W>
-50.095

> <U>
9.416

> <W>
-59.512

> <W(PB)>
-61.988

> <W(SA)>
2.476

> <Valence>
8.939

> <Coulomb>
-0.615

> <VdW>
1.092

> <VdW6>
-9.710

> <VdW12>
10.802

> <Bond>
0.216

> <Angle>
2.979

> <Pdih>
5.743

> <Idih>
0.000

> <Tether>
0.000

$$$$
VeraChem MOL file


 25 24  0  0  0  0  0  0  0  0999 V2000     
   17.5530   16.2596   21.6912 C   0  0  0  0  0  0  0  0  0  0  0  0
   16.6081   16.8304   21.1831 O   0  5  0  0  0  0  0  0  0  0  0  0
   17.8801   15.1223   21.4150 O   0  0  0  0  0  0  0  0  0  0  0  0
   18.3878   17.0201   22.7154 C   0  0  0  0  0  0  0  0  0  0  0  0
   18.7788   16.2961   23.4402 H   0  0  0  0  0  0  0  0  0  0  0  0
   17.7154   17.6936   23.2580 H   0  0  0  0  0  0  0  0  0  0  0  0
   19.5536   17.8125   22.0685 C   0  0  0  0  0  0  0  0  0  0  0  0
   20.1485   17.1225   21.4541 H   0  0  0  0  0  0  0  0  0  0  0  0
   19.1482   18.5679   21.3813 H   0  0  0  0  0  0  0  0  0  0  0  0
   20.4902   18.4903   23.0971 C   0  0  0  0  0  0  0  0  0  0  0  0
   21.3516   18.8983   22.5531 H   0  0  0  0  0  0  0  0  0  0  0  0
   20.8866   17.7348   23.7889 H   0  0  0  0  0  0  0  0  0  0  0  0
   19.8062   19.6257   23.8978 C   0  0  0  0  0  0  0  0  0  0  0  0
   19.4108   20.3811   23.2065 H   0  0  0  0  0  0  0  0  0  0  0  0
   18.9395   19.2221   24.4360 H   0  0  0  0  0  0  0  0  0  0  0  0
   20.7383   20.2969   24.9385 C   0  0  0  0  0  0  0  0  0  0  0  0
   21.0539   19.5423   25.6718 H   0  0  0  0  0  0  0  0  0  0  0  0
   20.1574   21.0405   25.5009 H   0  0  0  0  0  0  0  0  0  0  0  0
   21.9986   20.9860   24.3586 C   0  0  0  0  0  0  0  0  0  0  0  0
   22.5742   21.4165   25.1895 H   0  0  0  0  0  0  0  0  0  0  0  0
   22.6562   20.2425   23.8894 H   0  0  0  0  0  0  0  0  0  0  0  0
   21.6736   22.1065   23.3473 C   0  0  0  0  0  0  0  0  0  0  0  0
   20.9967   22.8497   23.7883 H   0  0  0  0  0  0  0  0  0  0  0  0
   22.5912   22.6244   23.0395 H   0  0  0  0  0  0  0  0  0  0  0  0
   21.2008   21.7024   22.4433 H   0  0  0  0  0  0  0  0  0  0  0  0
  1  2  1  0  0  0  0
  1  3  2  0  0  0  0
  1  4  1  0  0  0  0
  4  5  1  0  0  0  0
  4  6  1  0  0  0  0
  4  7  1  0  0  0  0
  7  8  1  0  0  0  0
  7  9  1  0  0  0  0
  7 10  1  0  0  0  0
 10 11  1  0  0  0  0
 10 12  1  0  0  0  0
 10 13  1  0  0  0  0
 13 14  1  0  0  0  0
 13 15  1  0  0  0  0
 13 16  1  0  0  0  0
 16 17  1  0  0  0  0
 16 18  1  0  0  0  0
 16 19  1  0  0  0  0
 19 20  1  0  0  0  0
 19 21  1  0  0  0  0
 19 22  1  0  0  0  0
 22 23  1  0  0  0  0
 22 24  1  0  0  0  0
 22 25  1  0  0  0  0
M  END
> <VConfSearch Rank>
306

> <Conf_Id>
75

> <Delta U+W>
1.014

> <U+W>
-50.615

> <U>
8.474

> <W>
-59.089

> <W(PB)>
-61.530

> <W(SA)>
2.441

> <Valence>
9.080

> <Coulomb>
-1.772

> <VdW>
1.165

> <VdW6>
-9.830

> <VdW12>
10.996

> <Bond>
0.240

> <Angle>
3.225

> <Pdih>
5.615

> <Idih>
0.001

> <Tether>
0.000

$$$$
VeraChem MOL file


 25 24  0  0  0  0  0  0  0  0999 V2000     
   21.6195   19.0165   19.3352 C   0  0  0  0  0  0  0  0  0  0  0  0
   22.3210   19.9931   19.1596 O   0  5  0  0  0  0  0  0  0  0  0  0
   21.7516   17.9740   18.7251 O   0  0  0  0  0  0  0  0  0  0  0  0
   20.5265   19.0966   20.3950 C   0  0  0  0  0  0  0  0  0  0  0  0
   19.6897   18.4669   20.0697 H   0  0  0  0  0  0  0  0  0  0  0  0
   20.1607   20.1298   20.4296 H   0  0  0  0  0  0  0  0  0  0  0  0
   21.0144   18.6551   21.7968 C   0  0  0  0  0  0  0  0  0  0  0  0
   21.3893   17.6236   21.7426 H   0  0  0  0  0  0  0  0  0  0  0  0
   21.8604   19.2866   22.1019 H   0  0  0  0  0  0  0  0  0  0  0  0
   19.8907   18.7466   22.8519 C   0  0  0  0  0  0  0  0  0  0  0  0
   19.0473   18.1144   22.5426 H   0  0  0  0  0  0  0  0  0  0  0  0
   19.5142   19.7756   22.8920 H   0  0  0  0  0  0  0  0  0  0  0  0
   20.3814   18.2990   24.2489 C   0  0  0  0  0  0  0  0  0  0  0  0
   20.7199   17.2565   24.1744 H   0  0  0  0  0  0  0  0  0  0  0  0
   21.2597   18.8851   24.5518 H   0  0  0  0  0  0  0  0  0  0  0  0
   19.2847   18.3824   25.3410 C   0  0  0  0  0  0  0  0  0  0  0  0
   19.4234   17.5373   26.0291 H   0  0  0  0  0  0  0  0  0  0  0  0
   18.2906   18.2432   24.8945 H   0  0  0  0  0  0  0  0  0  0  0  0
   19.3112   19.6799   26.1863 C   0  0  0  0  0  0  0  0  0  0  0  0
   18.5513   19.5973   26.9755 H   0  0  0  0  0  0  0  0  0  0  0  0
   20.2789   19.7651   26.6996 H   0  0  0  0  0  0  0  0  0  0  0  0
   19.0459   20.9670   25.3779 C   0  0  0  0  0  0  0  0  0  0  0  0
   18.1160   20.8851   24.8004 H   0  0  0  0  0  0  0  0  0  0  0  0
   18.9527   21.8299   26.0498 H   0  0  0  0  0  0  0  0  0  0  0  0
   19.8704   21.1757   24.6850 H   0  0  0  0  0  0  0  0  0  0  0  0
  1  2  1  0  0  0  0
  1  3  2  0  0  0  0
  1  4  1  0  0  0  0
  4  5  1  0  0  0  0
  4  6  1  0  0  0  0
  4  7  1  0  0  0  0
  7  8  1  0  0  0  0
  7  9  1  0  0  0  0
  7 10  1  0  0  0  0
 10 11  1  0  0  0  0
 10 12  1  0  0  0  0
 10 13  1  0  0  0  0
 13 14  1  0  0  0  0
 13 15  1  0  0  0  0
 13 16  1  0  0  0  0
 16 17  1  0  0  0  0
 16 18  1  0  0  0  0
 16 19  1  0  0  0  0
 19 20  1  0  0  0  0
 19 21  1  0  0  0  0
 19 22  1  0  0  0  0
 22 23  1  0  0  0  0
 22 24  1  0  0  0  0
 22 25  1  0  0  0  0
M  END
> <VConfSearch Rank>
307

> <Conf_Id>
125

> <Delta U+W>
2.314

> <U+W>
-49.315

> <U>
9.740

> <W>
-59.054

> <W(PB)>
-61.488

> <W(SA)>
2.433

> <Valence>
10.506

> <Coulomb>
-1.761

> <VdW>
0.994

> <VdW6>
-9.209

> <VdW12>
10.203

> <Bond>
0.193

> <Angle>
2.979

> <Pdih>
7.334

> <Idih>
0.001

> <Tether>
0.000

$$$$
VeraChem MOL file


 25 24  0  0  0  0  0  0  0  0999 V2000     
   23.7911   20.8564   22.8709 C   0  0  0  0  0  0  0  0  0  0  0  0
   23.5763   22.0351   22.6681 O   0  5  0  0  0  0  0  0  0  0  0  0
   24.8928   20.3497   22.7918 O   0  0  0  0  0  0  0  0  0  0  0  0
   22.6095   19.9587   23.2201 C   0  0  0  0  0  0  0  0  0  0  0  0
   21.8946   20.5581   23.7948 H   0  0  0  0  0  0  0  0  0  0  0  0
   22.9715   19.1616   23.8804 H   0  0  0  0  0  0  0  0  0  0  0  0
   21.9294   19.3483   21.9671 C   0  0  0  0  0  0  0  0  0  0  0  0
   21.5298   20.1549   21.3370 H   0  0  0  0  0  0  0  0  0  0  0  0
   22.6931   18.8351   21.3663 H   0  0  0  0  0  0  0  0  0  0  0  0
   20.8040   18.3410   22.3032 C   0  0  0  0  0  0  0  0  0  0  0  0
   21.2089   17.5308   22.9251 H   0  0  0  0  0  0  0  0  0  0  0  0
   20.4638   17.8748   21.3684 H   0  0  0  0  0  0  0  0  0  0  0  0
   19.5923   18.9871   23.0141 C   0  0  0  0  0  0  0  0  0  0  0  0
   19.9088   19.3960   23.9811 H   0  0  0  0  0  0  0  0  0  0  0  0
   19.2203   19.8284   22.4137 H   0  0  0  0  0  0  0  0  0  0  0  0
   18.4514   17.9668   23.2352 C   0  0  0  0  0  0  0  0  0  0  0  0
   18.8070   17.1473   23.8746 H   0  0  0  0  0  0  0  0  0  0  0  0
   18.1834   17.5149   22.2705 H   0  0  0  0  0  0  0  0  0  0  0  0
   17.1791   18.5912   23.8543 C   0  0  0  0  0  0  0  0  0  0  0  0
   16.8176   19.4080   23.2144 H   0  0  0  0  0  0  0  0  0  0  0  0
   16.3847   17.8323   23.8669 H   0  0  0  0  0  0  0  0  0  0  0  0
   17.3907   19.1126   25.2923 C   0  0  0  0  0  0  0  0  0  0  0  0
   18.0926   19.9556   25.3138 H   0  0  0  0  0  0  0  0  0  0  0  0
   16.4407   19.4611   25.7178 H   0  0  0  0  0  0  0  0  0  0  0  0
   17.7825   18.3208   25.9438 H   0  0  0  0  0  0  0  0  0  0  0  0
  1  2  1  0  0  0  0
  1  3  2  0  0  0  0
  1  4  1  0  0  0  0
  4  5  1  0  0  0  0
  4  6  1  0  0  0  0
  4  7  1  0  0  0  0
  7  8  1  0  0  0  0
  7  9  1  0  0  0  0
  7 10  1  0  0  0  0
 10 11  1  0  0  0  0
 10 12  1  0  0  0  0
 10 13  1  0  0  0  0
 13 14  1  0  0  0  0
 13 15  1  0  0  0  0
 13 16  1  0  0  0  0
 16 17  1  0  0  0  0
 16 18  1  0  0  0  0
 16 19  1  0  0  0  0
 19 20  1  0  0  0  0
 19 21  1  0  0  0  0
 19 22  1  0  0  0  0
 22 23  1  0  0  0  0
 22 24  1  0  0  0  0
 22 25  1  0  0  0  0
M  END
> <VConfSearch Rank>
308

> <Conf_Id>
4

> <Delta U+W>
0.189

> <U+W>
-51.441

> <U>
7.701

> <W>
-59.141

> <W(PB)>
-61.609

> <W(SA)>
2.467

> <Valence>
8.550

> <Coulomb>
-1.988

> <VdW>
1.139

> <VdW6>
-8.988

> <VdW12>
10.127

> <Bond>
0.191

> <Angle>
2.738

> <Pdih>
5.621

> <Idih>
0.001

> <Tether>
0.000

$$$$
VeraChem MOL file


 25 24  0  0  0  0  0  0  0  0999 V2000     
   23.5767   20.4900   24.8933 C   0  0  0  0  0  0  0  0  0  0  0  0
   23.3399   20.7159   26.0636 O   0  5  0  0  0  0  0  0  0  0  0  0
   24.6937   20.5163   24.4153 O   0  0  0  0  0  0  0  0  0  0  0  0
   22.4110   20.1307   23.9790 C   0  0  0  0  0  0  0  0  0  0  0  0
   22.6435   20.4964   22.9717 H   0  0  0  0  0  0  0  0  0  0  0  0
   21.5308   20.6810   24.3301 H   0  0  0  0  0  0  0  0  0  0  0  0
   22.1252   18.6068   23.9426 C   0  0  0  0  0  0  0  0  0  0  0  0
   23.0531   18.0804   23.6791 H   0  0  0  0  0  0  0  0  0  0  0  0
   21.8478   18.2615   24.9481 H   0  0  0  0  0  0  0  0  0  0  0  0
   21.0248   18.2080   22.9306 C   0  0  0  0  0  0  0  0  0  0  0  0
   20.9731   17.1115   22.8871 H   0  0  0  0  0  0  0  0  0  0  0  0
   21.3098   18.5459   21.9248 H   0  0  0  0  0  0  0  0  0  0  0  0
   19.6275   18.7642   23.2902 C   0  0  0  0  0  0  0  0  0  0  0  0
   19.3665   18.4664   24.3148 H   0  0  0  0  0  0  0  0  0  0  0  0
   19.6520   19.8604   23.2693 H   0  0  0  0  0  0  0  0  0  0  0  0
   18.5430   18.2548   22.3127 C   0  0  0  0  0  0  0  0  0  0  0  0
   18.5676   17.1567   22.2915 H   0  0  0  0  0  0  0  0  0  0  0  0
   18.7766   18.5909   21.2932 H   0  0  0  0  0  0  0  0  0  0  0  0
   17.1128   18.7057   22.6910 C   0  0  0  0  0  0  0  0  0  0  0  0
   16.3978   18.2073   22.0220 H   0  0  0  0  0  0  0  0  0  0  0  0
   16.8738   18.3665   23.7084 H   0  0  0  0  0  0  0  0  0  0  0  0
   16.9059   20.2327   22.5904 C   0  0  0  0  0  0  0  0  0  0  0  0
   17.1693   20.5999   21.5899 H   0  0  0  0  0  0  0  0  0  0  0  0
   15.8559   20.4908   22.7794 H   0  0  0  0  0  0  0  0  0  0  0  0
   17.5171   20.7695   23.3265 H   0  0  0  0  0  0  0  0  0  0  0  0
  1  2  1  0  0  0  0
  1  3  2  0  0  0  0
  1  4  1  0  0  0  0
  4  5  1  0  0  0  0
  4  6  1  0  0  0  0
  4  7  1  0  0  0  0
  7  8  1  0  0  0  0
  7  9  1  0  0  0  0
  7 10  1  0  0  0  0
 10 11  1  0  0  0  0
 10 12  1  0  0  0  0
 10 13  1  0  0  0  0
 13 14  1  0  0  0  0
 13 15  1  0  0  0  0
 13 16  1  0  0  0  0
 16 17  1  0  0  0  0
 16 18  1  0  0  0  0
 16 19  1  0  0  0  0
 19 20  1  0  0  0  0
 19 21  1  0  0  0  0
 19 22  1  0  0  0  0
 22 23  1  0  0  0  0
 22 24  1  0  0  0  0
 22 25  1  0  0  0  0
M  END
> <VConfSearch Rank>
309

> <Conf_Id>
17

> <Delta U+W>
0.219

> <U+W>
-51.411

> <U>
7.701

> <W>
-59.111

> <W(PB)>
-61.599

> <W(SA)>
2.488

> <Valence>
8.550

> <Coulomb>
-1.988

> <VdW>
1.139

> <VdW6>
-8.988

> <VdW12>
10.127

> <Bond>
0.191

> <Angle>
2.738

> <Pdih>
5.621

> <Idih>
0.001

> <Tether>
0.000

$$$$
VeraChem MOL file


 25 24  0  0  0  0  0  0  0  0999 V2000     
   18.3310   22.7260   23.6544 C   0  0  0  0  0  0  0  0  0  0  0  0
   17.5847   22.9046   22.7119 O   0  5  0  0  0  0  0  0  0  0  0  0
   19.3258   23.3931   23.8607 O   0  0  0  0  0  0  0  0  0  0  0  0
   17.9917   21.6161   24.6453 C   0  0  0  0  0  0  0  0  0  0  0  0
   16.9298   21.3639   24.5382 H   0  0  0  0  0  0  0  0  0  0  0  0
   18.1204   22.0258   25.6540 H   0  0  0  0  0  0  0  0  0  0  0  0
   18.8641   20.3437   24.4876 C   0  0  0  0  0  0  0  0  0  0  0  0
   19.9217   20.6243   24.5793 H   0  0  0  0  0  0  0  0  0  0  0  0
   18.6447   19.6558   25.3152 H   0  0  0  0  0  0  0  0  0  0  0  0
   18.6173   19.6198   23.1423 C   0  0  0  0  0  0  0  0  0  0  0  0
   18.9013   20.2759   22.3078 H   0  0  0  0  0  0  0  0  0  0  0  0
   17.5412   19.4282   23.0322 H   0  0  0  0  0  0  0  0  0  0  0  0
   19.3710   18.2743   23.0193 C   0  0  0  0  0  0  0  0  0  0  0  0
   19.0819   17.6132   23.8477 H   0  0  0  0  0  0  0  0  0  0  0  0
   19.0446   17.7762   22.0961 H   0  0  0  0  0  0  0  0  0  0  0  0
   20.9091   18.4304   22.9889 C   0  0  0  0  0  0  0  0  0  0  0  0
   21.2612   18.8581   23.9365 H   0  0  0  0  0  0  0  0  0  0  0  0
   21.1908   19.1350   22.1944 H   0  0  0  0  0  0  0  0  0  0  0  0
   21.6150   17.0786   22.7526 C   0  0  0  0  0  0  0  0  0  0  0  0
   21.3338   16.3708   23.5448 H   0  0  0  0  0  0  0  0  0  0  0  0
   21.2764   16.6445   21.8016 H   0  0  0  0  0  0  0  0  0  0  0  0
   23.1488   17.2354   22.7263 C   0  0  0  0  0  0  0  0  0  0  0  0
   23.5189   17.6380   23.6783 H   0  0  0  0  0  0  0  0  0  0  0  0
   23.6341   16.2654   22.5570 H   0  0  0  0  0  0  0  0  0  0  0  0
   23.4603   17.9151   21.9223 H   0  0  0  0  0  0  0  0  0  0  0  0
  1  2  1  0  0  0  0
  1  3  2  0  0  0  0
  1  4  1  0  0  0  0
  4  5  1  0  0  0  0
  4  6  1  0  0  0  0
  4  7  1  0  0  0  0
  7  8  1  0  0  0  0
  7  9  1  0  0  0  0
  7 10  1  0  0  0  0
 10 11  1  0  0  0  0
 10 12  1  0  0  0  0
 10 13  1  0  0  0  0
 13 14  1  0  0  0  0
 13 15  1  0  0  0  0
 13 16  1  0  0  0  0
 16 17  1  0  0  0  0
 16 18  1  0  0  0  0
 16 19  1  0  0  0  0
 19 20  1  0  0  0  0
 19 21  1  0  0  0  0
 19 22  1  0  0  0  0
 22 23  1  0  0  0  0
 22 24  1  0  0  0  0
 22 25  1  0  0  0  0
M  END
> <VConfSearch Rank>
310

> <Conf_Id>
142

> <Delta U+W>
0.593

> <U+W>
-51.037

> <U>
8.903

> <W>
-59.940

> <W(PB)>
-62.418

> <W(SA)>
2.478

> <Valence>
8.305

> <Coulomb>
-0.223

> <VdW>
0.821

> <VdW6>
-9.236

> <VdW12>
10.057

> <Bond>
0.173

> <Angle>
2.663

> <Pdih>
5.469

> <Idih>
0.001

> <Tether>
0.000

$$$$
VeraChem MOL file


 25 24  0  0  0  0  0  0  0  0999 V2000     
   18.5582   19.9625   20.4290 C   0  0  0  0  0  0  0  0  0  0  0  0
   18.7403   20.5993   19.4098 O   0  5  0  0  0  0  0  0  0  0  0  0
   18.0515   18.8580   20.4498 O   0  0  0  0  0  0  0  0  0  0  0  0
   18.9636   20.5985   21.7556 C   0  0  0  0  0  0  0  0  0  0  0  0
   18.4912   20.0402   22.5720 H   0  0  0  0  0  0  0  0  0  0  0  0
   18.5336   21.6065   21.7792 H   0  0  0  0  0  0  0  0  0  0  0  0
   20.4989   20.6891   21.9722 C   0  0  0  0  0  0  0  0  0  0  0  0
   20.9304   21.3114   21.1762 H   0  0  0  0  0  0  0  0  0  0  0  0
   20.7009   21.2202   22.9114 H   0  0  0  0  0  0  0  0  0  0  0  0
   21.2267   19.3199   21.9800 C   0  0  0  0  0  0  0  0  0  0  0  0
   22.3008   19.4924   22.1323 H   0  0  0  0  0  0  0  0  0  0  0  0
   21.1333   18.8598   20.9867 H   0  0  0  0  0  0  0  0  0  0  0  0
   20.7253   18.3096   23.0422 C   0  0  0  0  0  0  0  0  0  0  0  0
   19.6808   18.0395   22.8368 H   0  0  0  0  0  0  0  0  0  0  0  0
   21.3041   17.3821   22.9364 H   0  0  0  0  0  0  0  0  0  0  0  0
   20.8588   18.8225   24.4947 C   0  0  0  0  0  0  0  0  0  0  0  0
   20.2277   19.7094   24.6369 H   0  0  0  0  0  0  0  0  0  0  0  0
   21.8961   19.1325   24.6807 H   0  0  0  0  0  0  0  0  0  0  0  0
   20.4507   17.7439   25.5202 C   0  0  0  0  0  0  0  0  0  0  0  0
   19.4141   17.4304   25.3341 H   0  0  0  0  0  0  0  0  0  0  0  0
   21.0815   16.8532   25.3925 H   0  0  0  0  0  0  0  0  0  0  0  0
   20.5787   18.2588   26.9680 C   0  0  0  0  0  0  0  0  0  0  0  0
   19.9329   19.1313   27.1330 H   0  0  0  0  0  0  0  0  0  0  0  0
   20.2849   17.4796   27.6832 H   0  0  0  0  0  0  0  0  0  0  0  0
   21.6132   18.5510   27.1908 H   0  0  0  0  0  0  0  0  0  0  0  0
  1  2  1  0  0  0  0
  1  3  2  0  0  0  0
  1  4  1  0  0  0  0
  4  5  1  0  0  0  0
  4  6  1  0  0  0  0
  4  7  1  0  0  0  0
  7  8  1  0  0  0  0
  7  9  1  0  0  0  0
  7 10  1  0  0  0  0
 10 11  1  0  0  0  0
 10 12  1  0  0  0  0
 10 13  1  0  0  0  0
 13 14  1  0  0  0  0
 13 15  1  0  0  0  0
 13 16  1  0  0  0  0
 16 17  1  0  0  0  0
 16 18  1  0  0  0  0
 16 19  1  0  0  0  0
 19 20  1  0  0  0  0
 19 21  1  0  0  0  0
 19 22  1  0  0  0  0
 22 23  1  0  0  0  0
 22 24  1  0  0  0  0
 22 25  1  0  0  0  0
M  END
> <VConfSearch Rank>
311

> <Conf_Id>
135

> <Delta U+W>
1.314

> <U+W>
-50.316

> <U>
9.773

> <W>
-60.088

> <W(PB)>
-62.535

> <W(SA)>
2.447

> <Valence>
8.741

> <Coulomb>
0.479

> <VdW>
0.552

> <VdW6>
-10.627

> <VdW12>
11.179

> <Bond>
0.227

> <Angle>
3.155

> <Pdih>
5.358

> <Idih>
0.001

> <Tether>
0.000

$$$$
VeraChem MOL file


 25 24  0  0  0  0  0  0  0  0999 V2000     
   19.0618   19.3401   19.1751 C   0  0  0  0  0  0  0  0  0  0  0  0
   19.3089   20.4069   18.6482 O   0  5  0  0  0  0  0  0  0  0  0  0
   18.8952   18.3069   18.5574 O   0  0  0  0  0  0  0  0  0  0  0  0
   18.9787   19.2904   20.6965 C   0  0  0  0  0  0  0  0  0  0  0  0
   18.2540   18.5150   20.9720 H   0  0  0  0  0  0  0  0  0  0  0  0
   18.5748   20.2497   21.0385 H   0  0  0  0  0  0  0  0  0  0  0  0
   20.3497   19.0022   21.3623 C   0  0  0  0  0  0  0  0  0  0  0  0
   20.7661   18.0852   20.9228 H   0  0  0  0  0  0  0  0  0  0  0  0
   21.0543   19.8096   21.1194 H   0  0  0  0  0  0  0  0  0  0  0  0
   20.2693   18.8209   22.8971 C   0  0  0  0  0  0  0  0  0  0  0  0
   21.2488   18.4705   23.2461 H   0  0  0  0  0  0  0  0  0  0  0  0
   19.5457   18.0306   23.1386 H   0  0  0  0  0  0  0  0  0  0  0  0
   19.9009   20.1199   23.6530 C   0  0  0  0  0  0  0  0  0  0  0  0
   20.6618   20.8863   23.4526 H   0  0  0  0  0  0  0  0  0  0  0  0
   18.9547   20.5155   23.2636 H   0  0  0  0  0  0  0  0  0  0  0  0
   19.7426   19.9403   25.1841 C   0  0  0  0  0  0  0  0  0  0  0  0
   18.9194   19.2451   25.3981 H   0  0  0  0  0  0  0  0  0  0  0  0
   19.4302   20.9082   25.5992 H   0  0  0  0  0  0  0  0  0  0  0  0
   21.0290   19.4925   25.9224 C   0  0  0  0  0  0  0  0  0  0  0  0
   21.9199   19.8148   25.3661 H   0  0  0  0  0  0  0  0  0  0  0  0
   21.0738   20.0051   26.8933 H   0  0  0  0  0  0  0  0  0  0  0  0
   21.0810   17.9705   26.1832 C   0  0  0  0  0  0  0  0  0  0  0  0
   21.0488   17.3952   25.2510 H   0  0  0  0  0  0  0  0  0  0  0  0
   22.0054   17.7026   26.7110 H   0  0  0  0  0  0  0  0  0  0  0  0
   20.2349   17.6525   26.8061 H   0  0  0  0  0  0  0  0  0  0  0  0
  1  2  1  0  0  0  0
  1  3  2  0  0  0  0
  1  4  1  0  0  0  0
  4  5  1  0  0  0  0
  4  6  1  0  0  0  0
  4  7  1  0  0  0  0
  7  8  1  0  0  0  0
  7  9  1  0  0  0  0
  7 10  1  0  0  0  0
 10 11  1  0  0  0  0
 10 12  1  0  0  0  0
 10 13  1  0  0  0  0
 13 14  1  0  0  0  0
 13 15  1  0  0  0  0
 13 16  1  0  0  0  0
 16 17  1  0  0  0  0
 16 18  1  0  0  0  0
 16 19  1  0  0  0  0
 19 20  1  0  0  0  0
 19 21  1  0  0  0  0
 19 22  1  0  0  0  0
 22 23  1  0  0  0  0
 22 24  1  0  0  0  0
 22 25  1  0  0  0  0
M  END
> <VConfSearch Rank>
312

> <Conf_Id>
19

> <Delta U+W>
3.222

> <U+W>
-48.407

> <U>
10.617

> <W>
-59.025

> <W(PB)>
-61.462

> <W(SA)>
2.437

> <Valence>
11.188

> <Coulomb>
-1.778

> <VdW>
1.208

> <VdW6>
-9.786

> <VdW12>
10.993

> <Bond>
0.241

> <Angle>
3.294

> <Pdih>
7.653

> <Idih>
0.001

> <Tether>
0.000

$$$$
VeraChem MOL file


 25 24  0  0  0  0  0  0  0  0999 V2000     
   17.5272   20.4562   26.3534 C   0  0  0  0  0  0  0  0  0  0  0  0
   17.9640   21.3895   26.9975 O   0  5  0  0  0  0  0  0  0  0  0  0
   16.6524   19.7134   26.7532 O   0  0  0  0  0  0  0  0  0  0  0  0
   18.1258   20.1881   24.9772 C   0  0  0  0  0  0  0  0  0  0  0  0
   18.4043   21.1542   24.5423 H   0  0  0  0  0  0  0  0  0  0  0  0
   17.3407   19.7594   24.3430 H   0  0  0  0  0  0  0  0  0  0  0  0
   19.3492   19.2361   25.0313 C   0  0  0  0  0  0  0  0  0  0  0  0
   20.1480   19.6961   25.6293 H   0  0  0  0  0  0  0  0  0  0  0  0
   19.0557   18.3188   25.5602 H   0  0  0  0  0  0  0  0  0  0  0  0
   19.8962   18.8474   23.6368 C   0  0  0  0  0  0  0  0  0  0  0  0
   19.0899   18.4108   23.0319 H   0  0  0  0  0  0  0  0  0  0  0  0
   20.6477   18.0603   23.7776 H   0  0  0  0  0  0  0  0  0  0  0  0
   20.5425   20.0300   22.8763 C   0  0  0  0  0  0  0  0  0  0  0  0
   19.8189   20.8500   22.7894 H   0  0  0  0  0  0  0  0  0  0  0  0
   21.3851   20.4225   23.4614 H   0  0  0  0  0  0  0  0  0  0  0  0
   21.0287   19.6765   21.4479 C   0  0  0  0  0  0  0  0  0  0  0  0
   21.4145   20.5990   20.9930 H   0  0  0  0  0  0  0  0  0  0  0  0
   20.1765   19.3715   20.8254 H   0  0  0  0  0  0  0  0  0  0  0  0
   22.1471   18.6061   21.3884 C   0  0  0  0  0  0  0  0  0  0  0  0
   22.8513   18.8773   20.5897 H   0  0  0  0  0  0  0  0  0  0  0  0
   22.7280   18.6090   22.3210 H   0  0  0  0  0  0  0  0  0  0  0  0
   21.6140   17.1863   21.0930 C   0  0  0  0  0  0  0  0  0  0  0  0
   21.0996   17.1568   20.1237 H   0  0  0  0  0  0  0  0  0  0  0  0
   22.4410   16.4655   21.0559 H   0  0  0  0  0  0  0  0  0  0  0  0
   20.9083   16.8475   21.8600 H   0  0  0  0  0  0  0  0  0  0  0  0
  1  2  1  0  0  0  0
  1  3  2  0  0  0  0
  1  4  1  0  0  0  0
  4  5  1  0  0  0  0
  4  6  1  0  0  0  0
  4  7  1  0  0  0  0
  7  8  1  0  0  0  0
  7  9  1  0  0  0  0
  7 10  1  0  0  0  0
 10 11  1  0  0  0  0
 10 12  1  0  0  0  0
 10 13  1  0  0  0  0
 13 14  1  0  0  0  0
 13 15  1  0  0  0  0
 13 16  1  0  0  0  0
 16 17  1  0  0  0  0
 16 18  1  0  0  0  0
 16 19  1  0  0  0  0
 19 20  1  0  0  0  0
 19 21  1  0  0  0  0
 19 22  1  0  0  0  0
 22 23  1  0  0  0  0
 22 24  1  0  0  0  0
 22 25  1  0  0  0  0
M  END
> <VConfSearch Rank>
313

> <Conf_Id>
20

> <Delta U+W>
3.224

> <U+W>
-48.406

> <U>
10.617

> <W>
-59.023

> <W(PB)>
-61.467

> <W(SA)>
2.444

> <Valence>
11.188

> <Coulomb>
-1.778

> <VdW>
1.208

> <VdW6>
-9.786

> <VdW12>
10.993

> <Bond>
0.241

> <Angle>
3.294

> <Pdih>
7.653

> <Idih>
0.001

> <Tether>
0.000

$$$$
VeraChem MOL file


 25 24  0  0  0  0  0  0  0  0999 V2000     
   19.8236   16.0843   23.2399 C   0  0  0  0  0  0  0  0  0  0  0  0
   19.2991   15.8650   22.1654 O   0  5  0  0  0  0  0  0  0  0  0  0
   19.2486   15.9640   24.3039 O   0  0  0  0  0  0  0  0  0  0  0  0
   21.3022   16.4673   23.2601 C   0  0  0  0  0  0  0  0  0  0  0  0
   21.8482   15.6095   22.8510 H   0  0  0  0  0  0  0  0  0  0  0  0
   21.6275   16.5787   24.3015 H   0  0  0  0  0  0  0  0  0  0  0  0
   21.6696   17.7375   22.4423 C   0  0  0  0  0  0  0  0  0  0  0  0
   22.7460   17.7022   22.2264 H   0  0  0  0  0  0  0  0  0  0  0  0
   21.1651   17.7137   21.4664 H   0  0  0  0  0  0  0  0  0  0  0  0
   21.3763   19.0790   23.1590 C   0  0  0  0  0  0  0  0  0  0  0  0
   21.8118   19.8896   22.5588 H   0  0  0  0  0  0  0  0  0  0  0  0
   21.8929   19.1010   24.1283 H   0  0  0  0  0  0  0  0  0  0  0  0
   19.8721   19.3673   23.3657 C   0  0  0  0  0  0  0  0  0  0  0  0
   19.3383   19.2425   22.4136 H   0  0  0  0  0  0  0  0  0  0  0  0
   19.4469   18.6416   24.0704 H   0  0  0  0  0  0  0  0  0  0  0  0
   19.6332   20.7924   23.9102 C   0  0  0  0  0  0  0  0  0  0  0  0
   20.0477   21.5289   23.2082 H   0  0  0  0  0  0  0  0  0  0  0  0
   20.1716   20.9169   24.8597 H   0  0  0  0  0  0  0  0  0  0  0  0
   18.1322   21.0773   24.1277 C   0  0  0  0  0  0  0  0  0  0  0  0
   17.5908   20.9544   23.1794 H   0  0  0  0  0  0  0  0  0  0  0  0
   17.7143   20.3435   24.8309 H   0  0  0  0  0  0  0  0  0  0  0  0
   17.8967   22.5008   24.6719 C   0  0  0  0  0  0  0  0  0  0  0  0
   18.2774   23.2566   23.9724 H   0  0  0  0  0  0  0  0  0  0  0  0
   16.8249   22.6858   24.8205 H   0  0  0  0  0  0  0  0  0  0  0  0
   18.4019   22.6410   25.6365 H   0  0  0  0  0  0  0  0  0  0  0  0
  1  2  1  0  0  0  0
  1  3  2  0  0  0  0
  1  4  1  0  0  0  0
  4  5  1  0  0  0  0
  4  6  1  0  0  0  0
  4  7  1  0  0  0  0
  7  8  1  0  0  0  0
  7  9  1  0  0  0  0
  7 10  1  0  0  0  0
 10 11  1  0  0  0  0
 10 12  1  0  0  0  0
 10 13  1  0  0  0  0
 13 14  1  0  0  0  0
 13 15  1  0  0  0  0
 13 16  1  0  0  0  0
 16 17  1  0  0  0  0
 16 18  1  0  0  0  0
 16 19  1  0  0  0  0
 19 20  1  0  0  0  0
 19 21  1  0  0  0  0
 19 22  1  0  0  0  0
 22 23  1  0  0  0  0
 22 24  1  0  0  0  0
 22 25  1  0  0  0  0
M  END
> <VConfSearch Rank>
314

> <Conf_Id>
24

> <Delta U+W>
1.784

> <U+W>
-49.846

> <U>
10.904

> <W>
-60.749

> <W(PB)>
-63.220

> <W(SA)>
2.471

> <Valence>
9.445

> <Coulomb>
0.780

> <VdW>
0.679

> <VdW6>
-10.008

> <VdW12>
10.687

> <Bond>
0.201

> <Angle>
3.198

> <Pdih>
6.039

> <Idih>
0.006

> <Tether>
0.000

$$$$
VeraChem MOL file


 25 24  0  0  0  0  0  0  0  0999 V2000     
   21.8063   21.5068   22.4725 C   0  0  0  0  0  0  0  0  0  0  0  0
   22.8959   21.0773   22.1470 O   0  5  0  0  0  0  0  0  0  0  0  0
   20.9242   21.7690   21.6785 O   0  0  0  0  0  0  0  0  0  0  0  0
   21.5532   21.7961   23.9509 C   0  0  0  0  0  0  0  0  0  0  0  0
   20.5492   22.2226   24.0639 H   0  0  0  0  0  0  0  0  0  0  0  0
   22.2619   22.5820   24.2367 H   0  0  0  0  0  0  0  0  0  0  0  0
   21.7330   20.5816   24.9047 C   0  0  0  0  0  0  0  0  0  0  0  0
   22.6492   20.0334   24.6445 H   0  0  0  0  0  0  0  0  0  0  0  0
   21.8912   20.9687   25.9204 H   0  0  0  0  0  0  0  0  0  0  0  0
   20.5282   19.6094   24.9529 C   0  0  0  0  0  0  0  0  0  0  0  0
   19.6183   20.1615   25.2253 H   0  0  0  0  0  0  0  0  0  0  0  0
   20.7041   18.8868   25.7615 H   0  0  0  0  0  0  0  0  0  0  0  0
   20.2908   18.8342   23.6371 C   0  0  0  0  0  0  0  0  0  0  0  0
   19.9837   19.5291   22.8454 H   0  0  0  0  0  0  0  0  0  0  0  0
   21.2298   18.3673   23.3095 H   0  0  0  0  0  0  0  0  0  0  0  0
   19.2034   17.7502   23.8010 C   0  0  0  0  0  0  0  0  0  0  0  0
   18.2666   18.2182   24.1333 H   0  0  0  0  0  0  0  0  0  0  0  0
   19.5041   17.0430   24.5862 H   0  0  0  0  0  0  0  0  0  0  0  0
   18.9575   16.9832   22.4847 C   0  0  0  0  0  0  0  0  0  0  0  0
   18.6547   17.6873   21.6972 H   0  0  0  0  0  0  0  0  0  0  0  0
   19.8926   16.5132   22.1499 H   0  0  0  0  0  0  0  0  0  0  0  0
   17.8710   15.9018   22.6512 C   0  0  0  0  0  0  0  0  0  0  0  0
   16.9155   16.3487   22.9555 H   0  0  0  0  0  0  0  0  0  0  0  0
   17.7094   15.3670   21.7063 H   0  0  0  0  0  0  0  0  0  0  0  0
   18.1629   15.1656   23.4117 H   0  0  0  0  0  0  0  0  0  0  0  0
  1  2  1  0  0  0  0
  1  3  2  0  0  0  0
  1  4  1  0  0  0  0
  4  5  1  0  0  0  0
  4  6  1  0  0  0  0
  4  7  1  0  0  0  0
  7  8  1  0  0  0  0
  7  9  1  0  0  0  0
  7 10  1  0  0  0  0
 10 11  1  0  0  0  0
 10 12  1  0  0  0  0
 10 13  1  0  0  0  0
 13 14  1  0  0  0  0
 13 15  1  0  0  0  0
 13 16  1  0  0  0  0
 16 17  1  0  0  0  0
 16 18  1  0  0  0  0
 16 19  1  0  0  0  0
 19 20  1  0  0  0  0
 19 21  1  0  0  0  0
 19 22  1  0  0  0  0
 22 23  1  0  0  0  0
 22 24  1  0  0  0  0
 22 25  1  0  0  0  0
M  END
> <VConfSearch Rank>
315

> <Conf_Id>
9

> <Delta U+W>
1.764

> <U+W>
-49.865

> <U>
10.902

> <W>
-60.768

> <W(PB)>
-63.223

> <W(SA)>
2.456

> <Valence>
9.445

> <Coulomb>
0.778

> <VdW>
0.679

> <VdW6>
-10.007

> <VdW12>
10.687

> <Bond>
0.201

> <Angle>
3.198

> <Pdih>
6.040

> <Idih>
0.006

> <Tether>
0.000

$$$$
VeraChem MOL file


 25 24  0  0  0  0  0  0  0  0999 V2000     
   19.9352   19.0592   19.7061 C   0  0  0  0  0  0  0  0  0  0  0  0
   20.8481   18.2577   19.6787 O   0  5  0  0  0  0  0  0  0  0  0  0
   19.2167   19.2942   18.7546 O   0  0  0  0  0  0  0  0  0  0  0  0
   19.6629   19.7962   21.0124 C   0  0  0  0  0  0  0  0  0  0  0  0
   19.2862   20.7956   20.7644 H   0  0  0  0  0  0  0  0  0  0  0  0
   20.6200   19.9342   21.5245 H   0  0  0  0  0  0  0  0  0  0  0  0
   18.6449   19.0541   21.9184 C   0  0  0  0  0  0  0  0  0  0  0  0
   17.7059   18.9513   21.3571 H   0  0  0  0  0  0  0  0  0  0  0  0
   18.9933   18.0318   22.1206 H   0  0  0  0  0  0  0  0  0  0  0  0
   18.3483   19.7926   23.2484 C   0  0  0  0  0  0  0  0  0  0  0  0
   17.2915   19.6298   23.5007 H   0  0  0  0  0  0  0  0  0  0  0  0
   18.4592   20.8774   23.1154 H   0  0  0  0  0  0  0  0  0  0  0  0
   19.1933   19.3142   24.4559 C   0  0  0  0  0  0  0  0  0  0  0  0
   18.8423   19.8419   25.3530 H   0  0  0  0  0  0  0  0  0  0  0  0
   18.9989   18.2475   24.6287 H   0  0  0  0  0  0  0  0  0  0  0  0
   20.7144   19.5482   24.2992 C   0  0  0  0  0  0  0  0  0  0  0  0
   20.8875   20.5833   23.9752 H   0  0  0  0  0  0  0  0  0  0  0  0
   21.1108   18.8964   23.5096 H   0  0  0  0  0  0  0  0  0  0  0  0
   21.5089   19.3000   25.6025 C   0  0  0  0  0  0  0  0  0  0  0  0
   22.5578   19.5812   25.4354 H   0  0  0  0  0  0  0  0  0  0  0  0
   21.1339   19.9596   26.3972 H   0  0  0  0  0  0  0  0  0  0  0  0
   21.4562   17.8320   26.0782 C   0  0  0  0  0  0  0  0  0  0  0  0
   21.8032   17.1512   25.2900 H   0  0  0  0  0  0  0  0  0  0  0  0
   22.0996   17.6891   26.9559 H   0  0  0  0  0  0  0  0  0  0  0  0
   20.4373   17.5398   26.3616 H   0  0  0  0  0  0  0  0  0  0  0  0
  1  2  1  0  0  0  0
  1  3  2  0  0  0  0
  1  4  1  0  0  0  0
  4  5  1  0  0  0  0
  4  6  1  0  0  0  0
  4  7  1  0  0  0  0
  7  8  1  0  0  0  0
  7  9  1  0  0  0  0
  7 10  1  0  0  0  0
 10 11  1  0  0  0  0
 10 12  1  0  0  0  0
 10 13  1  0  0  0  0
 13 14  1  0  0  0  0
 13 15  1  0  0  0  0
 13 16  1  0  0  0  0
 16 17  1  0  0  0  0
 16 18  1  0  0  0  0
 16 19  1  0  0  0  0
 19 20  1  0  0  0  0
 19 21  1  0  0  0  0
 19 22  1  0  0  0  0
 22 23  1  0  0  0  0
 22 24  1  0  0  0  0
 22 25  1  0  0  0  0
M  END
> <VConfSearch Rank>
316

> <Conf_Id>
89

> <Delta U+W>
2.903

> <U+W>
-48.726

> <U>
10.996

> <W>
-59.723

> <W(PB)>
-62.151

> <W(SA)>
2.428

> <Valence>
10.985

> <Coulomb>
-0.995

> <VdW>
1.006

> <VdW6>
-10.062

> <VdW12>
11.069

> <Bond>
0.238

> <Angle>
3.202

> <Pdih>
7.544

> <Idih>
0.001

> <Tether>
0.000

$$$$
VeraChem MOL file


 25 24  0  0  0  0  0  0  0  0999 V2000     
   18.9760   16.2834   21.6755 C   0  0  0  0  0  0  0  0  0  0  0  0
   19.8769   15.5104   21.9365 O   0  5  0  0  0  0  0  0  0  0  0  0
   17.8236   16.1113   22.0216 O   0  0  0  0  0  0  0  0  0  0  0  0
   19.3000   17.5012   20.8123 C   0  0  0  0  0  0  0  0  0  0  0  0
   18.7409   17.3731   19.8782 H   0  0  0  0  0  0  0  0  0  0  0  0
   20.3638   17.4778   20.5467 H   0  0  0  0  0  0  0  0  0  0  0  0
   18.9304   18.8759   21.4379 C   0  0  0  0  0  0  0  0  0  0  0  0
   18.8413   19.6053   20.6215 H   0  0  0  0  0  0  0  0  0  0  0  0
   17.9364   18.8216   21.9032 H   0  0  0  0  0  0  0  0  0  0  0  0
   19.9622   19.4298   22.4521 C   0  0  0  0  0  0  0  0  0  0  0  0
   19.6769   20.4631   22.6851 H   0  0  0  0  0  0  0  0  0  0  0  0
   20.9527   19.4817   21.9803 H   0  0  0  0  0  0  0  0  0  0  0  0
   20.0539   18.6157   23.7656 C   0  0  0  0  0  0  0  0  0  0  0  0
   19.0548   18.5092   24.2098 H   0  0  0  0  0  0  0  0  0  0  0  0
   20.4039   17.6015   23.5383 H   0  0  0  0  0  0  0  0  0  0  0  0
   21.0237   19.2271   24.8054 C   0  0  0  0  0  0  0  0  0  0  0  0
   22.0140   19.3635   24.3499 H   0  0  0  0  0  0  0  0  0  0  0  0
   21.1551   18.5042   25.6220 H   0  0  0  0  0  0  0  0  0  0  0  0
   20.5322   20.5664   25.4007 C   0  0  0  0  0  0  0  0  0  0  0  0
   20.4714   21.3318   24.6163 H   0  0  0  0  0  0  0  0  0  0  0  0
   19.5188   20.4416   25.8064 H   0  0  0  0  0  0  0  0  0  0  0  0
   21.4717   21.0675   26.5161 C   0  0  0  0  0  0  0  0  0  0  0  0
   22.4876   21.2267   26.1314 H   0  0  0  0  0  0  0  0  0  0  0  0
   21.1115   22.0198   26.9264 H   0  0  0  0  0  0  0  0  0  0  0  0
   21.5263   20.3432   27.3394 H   0  0  0  0  0  0  0  0  0  0  0  0
  1  2  1  0  0  0  0
  1  3  2  0  0  0  0
  1  4  1  0  0  0  0
  4  5  1  0  0  0  0
  4  6  1  0  0  0  0
  4  7  1  0  0  0  0
  7  8  1  0  0  0  0
  7  9  1  0  0  0  0
  7 10  1  0  0  0  0
 10 11  1  0  0  0  0
 10 12  1  0  0  0  0
 10 13  1  0  0  0  0
 13 14  1  0  0  0  0
 13 15  1  0  0  0  0
 13 16  1  0  0  0  0
 16 17  1  0  0  0  0
 16 18  1  0  0  0  0
 16 19  1  0  0  0  0
 19 20  1  0  0  0  0
 19 21  1  0  0  0  0
 19 22  1  0  0  0  0
 22 23  1  0  0  0  0
 22 24  1  0  0  0  0
 22 25  1  0  0  0  0
M  END
> <VConfSearch Rank>
317

> <Conf_Id>
114

> <Delta U+W>
2.758

> <U+W>
-48.871

> <U>
11.422

> <W>
-60.293

> <W(PB)>
-62.719

> <W(SA)>
2.425

> <Valence>
10.135

> <Coulomb>
0.369

> <VdW>
0.918

> <VdW6>
-10.482

> <VdW12>
11.400

> <Bond>
0.245

> <Angle>
3.539

> <Pdih>
6.346

> <Idih>
0.006

> <Tether>
0.000

$$$$
VeraChem MOL file


 25 24  0  0  0  0  0  0  0  0999 V2000     
   23.1951   20.2674   25.4685 C   0  0  0  0  0  0  0  0  0  0  0  0
   24.0510   20.5754   24.6625 O   0  5  0  0  0  0  0  0  0  0  0  0
   22.6995   21.0497   26.2556 O   0  0  0  0  0  0  0  0  0  0  0  0
   22.7304   18.8144   25.5103 C   0  0  0  0  0  0  0  0  0  0  0  0
   22.6958   18.5109   26.5632 H   0  0  0  0  0  0  0  0  0  0  0  0
   23.4900   18.1899   25.0248 H   0  0  0  0  0  0  0  0  0  0  0  0
   21.3438   18.5783   24.8571 C   0  0  0  0  0  0  0  0  0  0  0  0
   21.0324   17.5422   25.0459 H   0  0  0  0  0  0  0  0  0  0  0  0
   20.6058   19.2266   25.3476 H   0  0  0  0  0  0  0  0  0  0  0  0
   21.3566   18.8383   23.3315 C   0  0  0  0  0  0  0  0  0  0  0  0
   22.1650   18.2492   22.8774 H   0  0  0  0  0  0  0  0  0  0  0  0
   21.5946   19.8927   23.1339 H   0  0  0  0  0  0  0  0  0  0  0  0
   20.0279   18.4693   22.6293 C   0  0  0  0  0  0  0  0  0  0  0  0
   20.1843   18.5480   21.5460 H   0  0  0  0  0  0  0  0  0  0  0  0
   19.7832   17.4181   22.8332 H   0  0  0  0  0  0  0  0  0  0  0  0
   18.8403   19.3729   23.0436 C   0  0  0  0  0  0  0  0  0  0  0  0
   19.0870   20.4243   22.8428 H   0  0  0  0  0  0  0  0  0  0  0  0
   18.6798   19.2918   24.1261 H   0  0  0  0  0  0  0  0  0  0  0  0
   17.5144   19.0082   22.3353 C   0  0  0  0  0  0  0  0  0  0  0  0
   17.2704   17.9537   22.5245 H   0  0  0  0  0  0  0  0  0  0  0  0
   16.7032   19.5989   22.7828 H   0  0  0  0  0  0  0  0  0  0  0  0
   17.5376   19.2724   20.8140 C   0  0  0  0  0  0  0  0  0  0  0  0
   16.5470   19.0893   20.3780 H   0  0  0  0  0  0  0  0  0  0  0  0
   17.8135   20.3132   20.6000 H   0  0  0  0  0  0  0  0  0  0  0  0
   18.2510   18.6144   20.3026 H   0  0  0  0  0  0  0  0  0  0  0  0
  1  2  1  0  0  0  0
  1  3  2  0  0  0  0
  1  4  1  0  0  0  0
  4  5  1  0  0  0  0
  4  6  1  0  0  0  0
  4  7  1  0  0  0  0
  7  8  1  0  0  0  0
  7  9  1  0  0  0  0
  7 10  1  0  0  0  0
 10 11  1  0  0  0  0
 10 12  1  0  0  0  0
 10 13  1  0  0  0  0
 13 14  1  0  0  0  0
 13 15  1  0  0  0  0
 13 16  1  0  0  0  0
 16 17  1  0  0  0  0
 16 18  1  0  0  0  0
 16 19  1  0  0  0  0
 19 20  1  0  0  0  0
 19 21  1  0  0  0  0
 19 22  1  0  0  0  0
 22 23  1  0  0  0  0
 22 24  1  0  0  0  0
 22 25  1  0  0  0  0
M  END
> <VConfSearch Rank>
318

> <Conf_Id>
87

> <Delta U+W>
1.453

> <U+W>
-50.176

> <U>
9.763

> <W>
-59.940

> <W(PB)>
-62.392

> <W(SA)>
2.452

> <Valence>
8.883

> <Coulomb>
-0.122

> <VdW>
1.003

> <VdW6>
-9.782

> <VdW12>
10.785

> <Bond>
0.212

> <Angle>
2.940

> <Pdih>
5.730

> <Idih>
0.001

> <Tether>
0.000

$$$$
VeraChem MOL file


 25 24  0  0  0  0  0  0  0  0999 V2000     
   19.7963   15.2321   24.1437 C   0  0  0  0  0  0  0  0  0  0  0  0
   20.8988   14.8320   23.8257 O   0  5  0  0  0  0  0  0  0  0  0  0
   19.1378   14.7479   25.0429 O   0  0  0  0  0  0  0  0  0  0  0  0
   19.2146   16.4193   23.3844 C   0  0  0  0  0  0  0  0  0  0  0  0
   18.1252   16.2997   23.3481 H   0  0  0  0  0  0  0  0  0  0  0  0
   19.5806   16.3756   22.3515 H   0  0  0  0  0  0  0  0  0  0  0  0
   19.5828   17.7808   24.0237 C   0  0  0  0  0  0  0  0  0  0  0  0
   19.2177   17.8067   25.0597 H   0  0  0  0  0  0  0  0  0  0  0  0
   20.6765   17.8685   24.0670 H   0  0  0  0  0  0  0  0  0  0  0  0
   18.9868   18.9668   23.2308 C   0  0  0  0  0  0  0  0  0  0  0  0
   17.9014   18.8254   23.1384 H   0  0  0  0  0  0  0  0  0  0  0  0
   19.3821   18.9652   22.2065 H   0  0  0  0  0  0  0  0  0  0  0  0
   19.2447   20.3433   23.8934 C   0  0  0  0  0  0  0  0  0  0  0  0
   18.7414   21.1205   23.3036 H   0  0  0  0  0  0  0  0  0  0  0  0
   18.7600   20.3582   24.8789 H   0  0  0  0  0  0  0  0  0  0  0  0
   20.7385   20.7238   24.0711 C   0  0  0  0  0  0  0  0  0  0  0  0
   21.2043   20.0402   24.7929 H   0  0  0  0  0  0  0  0  0  0  0  0
   20.7933   21.7205   24.5294 H   0  0  0  0  0  0  0  0  0  0  0  0
   21.5776   20.7270   22.7695 C   0  0  0  0  0  0  0  0  0  0  0  0
   22.6153   20.9842   23.0223 H   0  0  0  0  0  0  0  0  0  0  0  0
   21.6112   19.7173   22.3392 H   0  0  0  0  0  0  0  0  0  0  0  0
   21.0608   21.7274   21.7129 C   0  0  0  0  0  0  0  0  0  0  0  0
   21.0037   22.7421   22.1277 H   0  0  0  0  0  0  0  0  0  0  0  0
   21.7339   21.7530   20.8463 H   0  0  0  0  0  0  0  0  0  0  0  0
   20.0636   21.4460   21.3519 H   0  0  0  0  0  0  0  0  0  0  0  0
  1  2  1  0  0  0  0
  1  3  2  0  0  0  0
  1  4  1  0  0  0  0
  4  5  1  0  0  0  0
  4  6  1  0  0  0  0
  4  7  1  0  0  0  0
  7  8  1  0  0  0  0
  7  9  1  0  0  0  0
  7 10  1  0  0  0  0
 10 11  1  0  0  0  0
 10 12  1  0  0  0  0
 10 13  1  0  0  0  0
 13 14  1  0  0  0  0
 13 15  1  0  0  0  0
 13 16  1  0  0  0  0
 16 17  1  0  0  0  0
 16 18  1  0  0  0  0
 16 19  1  0  0  0  0
 19 20  1  0  0  0  0
 19 21  1  0  0  0  0
 19 22  1  0  0  0  0
 22 23  1  0  0  0  0
 22 24  1  0  0  0  0
 22 25  1  0  0  0  0
M  END
> <VConfSearch Rank>
319

> <Conf_Id>
29

> <Delta U+W>
0.850

> <U+W>
-50.780

> <U>
8.646

> <W>
-59.426

> <W(PB)>
-61.868

> <W(SA)>
2.442

> <Valence>
8.924

> <Coulomb>
-1.171

> <VdW>
0.894

> <VdW6>
-10.223

> <VdW12>
11.117

> <Bond>
0.231

> <Angle>
3.232

> <Pdih>
5.461

> <Idih>
0.001

> <Tether>
0.000

$$$$
VeraChem MOL file


 25 24  0  0  0  0  0  0  0  0999 V2000     
   21.2093   18.2137   19.6923 C   0  0  0  0  0  0  0  0  0  0  0  0
   20.3532   18.7262   18.9987 O   0  5  0  0  0  0  0  0  0  0  0  0
   21.7919   17.1893   19.3959 O   0  0  0  0  0  0  0  0  0  0  0  0
   21.5585   18.8828   21.0169 C   0  0  0  0  0  0  0  0  0  0  0  0
   21.4285   19.9650   20.8967 H   0  0  0  0  0  0  0  0  0  0  0  0
   22.6213   18.7040   21.2190 H   0  0  0  0  0  0  0  0  0  0  0  0
   20.6955   18.3694   22.1958 C   0  0  0  0  0  0  0  0  0  0  0  0
   19.6365   18.5411   21.9617 H   0  0  0  0  0  0  0  0  0  0  0  0
   20.8294   17.2838   22.2988 H   0  0  0  0  0  0  0  0  0  0  0  0
   21.0648   19.0690   23.5243 C   0  0  0  0  0  0  0  0  0  0  0  0
   20.8933   20.1497   23.4355 H   0  0  0  0  0  0  0  0  0  0  0  0
   22.1411   18.9453   23.7061 H   0  0  0  0  0  0  0  0  0  0  0  0
   20.2963   18.5120   24.7488 C   0  0  0  0  0  0  0  0  0  0  0  0
   20.5553   17.4524   24.8774 H   0  0  0  0  0  0  0  0  0  0  0  0
   20.6575   19.0176   25.6540 H   0  0  0  0  0  0  0  0  0  0  0  0
   18.7514   18.6381   24.6751 C   0  0  0  0  0  0  0  0  0  0  0  0
   18.3228   18.2306   25.6007 H   0  0  0  0  0  0  0  0  0  0  0  0
   18.3728   17.9986   23.8671 H   0  0  0  0  0  0  0  0  0  0  0  0
   18.2163   20.0766   24.4693 C   0  0  0  0  0  0  0  0  0  0  0  0
   18.5603   20.4733   23.5049 H   0  0  0  0  0  0  0  0  0  0  0  0
   17.1201   20.0371   24.4078 H   0  0  0  0  0  0  0  0  0  0  0  0
   18.6159   21.0446   25.6039 C   0  0  0  0  0  0  0  0  0  0  0  0
   19.7021   21.1972   25.6333 H   0  0  0  0  0  0  0  0  0  0  0  0
   18.1456   22.0252   25.4561 H   0  0  0  0  0  0  0  0  0  0  0  0
   18.2954   20.6588   26.5803 H   0  0  0  0  0  0  0  0  0  0  0  0
  1  2  1  0  0  0  0
  1  3  2  0  0  0  0
  1  4  1  0  0  0  0
  4  5  1  0  0  0  0
  4  6  1  0  0  0  0
  4  7  1  0  0  0  0
  7  8  1  0  0  0  0
  7  9  1  0  0  0  0
  7 10  1  0  0  0  0
 10 11  1  0  0  0  0
 10 12  1  0  0  0  0
 10 13  1  0  0  0  0
 13 14  1  0  0  0  0
 13 15  1  0  0  0  0
 13 16  1  0  0  0  0
 16 17  1  0  0  0  0
 16 18  1  0  0  0  0
 16 19  1  0  0  0  0
 19 20  1  0  0  0  0
 19 21  1  0  0  0  0
 19 22  1  0  0  0  0
 22 23  1  0  0  0  0
 22 24  1  0  0  0  0
 22 25  1  0  0  0  0
M  END
> <VConfSearch Rank>
320

> <Conf_Id>
30

> <Delta U+W>
0.843

> <U+W>
-50.787

> <U>
8.647

> <W>
-59.434

> <W(PB)>
-61.861

> <W(SA)>
2.428

> <Valence>
8.924

> <Coulomb>
-1.170

> <VdW>
0.894

> <VdW6>
-10.224

> <VdW12>
11.118

> <Bond>
0.231

> <Angle>
3.232

> <Pdih>
5.460

> <Idih>
0.000

> <Tether>
0.000

$$$$
VeraChem MOL file


 25 24  0  0  0  0  0  0  0  0999 V2000     
   23.7909   16.4454   24.0495 C   0  0  0  0  0  0  0  0  0  0  0  0
   23.9188   16.0966   22.8916 O   0  5  0  0  0  0  0  0  0  0  0  0
   24.5203   16.0625   24.9425 O   0  0  0  0  0  0  0  0  0  0  0  0
   22.6678   17.4109   24.4312 C   0  0  0  0  0  0  0  0  0  0  0  0
   23.1334   18.2831   24.9048 H   0  0  0  0  0  0  0  0  0  0  0  0
   22.0583   16.9170   25.1970 H   0  0  0  0  0  0  0  0  0  0  0  0
   21.7632   17.8717   23.2574 C   0  0  0  0  0  0  0  0  0  0  0  0
   22.3812   18.3600   22.4910 H   0  0  0  0  0  0  0  0  0  0  0  0
   21.3050   16.9926   22.7835 H   0  0  0  0  0  0  0  0  0  0  0  0
   20.6588   18.8421   23.7300 C   0  0  0  0  0  0  0  0  0  0  0  0
   21.1193   19.7201   24.2034 H   0  0  0  0  0  0  0  0  0  0  0  0
   20.0424   18.3519   24.4960 H   0  0  0  0  0  0  0  0  0  0  0  0
   19.7603   19.2992   22.5607 C   0  0  0  0  0  0  0  0  0  0  0  0
   20.3764   19.7895   21.7945 H   0  0  0  0  0  0  0  0  0  0  0  0
   19.2996   18.4214   22.0871 H   0  0  0  0  0  0  0  0  0  0  0  0
   18.6558   20.2694   23.0326 C   0  0  0  0  0  0  0  0  0  0  0  0
   19.1162   21.1474   23.5062 H   0  0  0  0  0  0  0  0  0  0  0  0
   18.0394   19.7793   23.7988 H   0  0  0  0  0  0  0  0  0  0  0  0
   17.7576   20.7265   21.8639 C   0  0  0  0  0  0  0  0  0  0  0  0
   18.3705   21.2189   21.0963 H   0  0  0  0  0  0  0  0  0  0  0  0
   17.2937   19.8509   21.3888 H   0  0  0  0  0  0  0  0  0  0  0  0
   16.6560   21.6951   22.3392 C   0  0  0  0  0  0  0  0  0  0  0  0
   17.0927   22.5956   22.7907 H   0  0  0  0  0  0  0  0  0  0  0  0
   16.0273   22.0097   21.4961 H   0  0  0  0  0  0  0  0  0  0  0  0
   16.0078   21.2173   23.0854 H   0  0  0  0  0  0  0  0  0  0  0  0
  1  2  1  0  0  0  0
  1  3  2  0  0  0  0
  1  4  1  0  0  0  0
  4  5  1  0  0  0  0
  4  6  1  0  0  0  0
  4  7  1  0  0  0  0
  7  8  1  0  0  0  0
  7  9  1  0  0  0  0
  7 10  1  0  0  0  0
 10 11  1  0  0  0  0
 10 12  1  0  0  0  0
 10 13  1  0  0  0  0
 13 14  1  0  0  0  0
 13 15  1  0  0  0  0
 13 16  1  0  0  0  0
 16 17  1  0  0  0  0
 16 18  1  0  0  0  0
 16 19  1  0  0  0  0
 19 20  1  0  0  0  0
 19 21  1  0  0  0  0
 19 22  1  0  0  0  0
 22 23  1  0  0  0  0
 22 24  1  0  0  0  0
 22 25  1  0  0  0  0
M  END
> <VConfSearch Rank>
321

> <Conf_Id>
0

> <Delta U+W>
0.000

> <U+W>
-51.629

> <U>
6.586

> <W>
-58.216

> <W(PB)>
-60.757

> <W(SA)>
2.541

> <Valence>
8.027

> <Coulomb>
-2.892

> <VdW>
1.451

> <VdW6>
-7.931

> <VdW12>
9.383

> <Bond>
0.149

> <Angle>
2.726

> <Pdih>
5.152

> <Idih>
0.000

> <Tether>
0.000

$$$$
VeraChem MOL file


 25 24  0  0  0  0  0  0  0  0999 V2000     
   17.1873   22.7731   23.4575 C   0  0  0  0  0  0  0  0  0  0  0  0
   17.7320   23.8466   23.6237 O   0  5  0  0  0  0  0  0  0  0  0  0
   16.1472   22.6334   22.8449 O   0  0  0  0  0  0  0  0  0  0  0  0
   17.8581   21.5295   24.0298 C   0  0  0  0  0  0  0  0  0  0  0  0
   17.0727   20.8169   24.3092 H   0  0  0  0  0  0  0  0  0  0  0  0
   18.3783   21.8167   24.9515 H   0  0  0  0  0  0  0  0  0  0  0  0
   18.8496   20.8712   23.0390 C   0  0  0  0  0  0  0  0  0  0  0  0
   18.3160   20.6018   22.1169 H   0  0  0  0  0  0  0  0  0  0  0  0
   19.6215   21.6016   22.7591 H   0  0  0  0  0  0  0  0  0  0  0  0
   19.5154   19.6151   23.6414 C   0  0  0  0  0  0  0  0  0  0  0  0
   18.7411   18.8875   23.9212 H   0  0  0  0  0  0  0  0  0  0  0  0
   20.0467   19.8876   24.5636 H   0  0  0  0  0  0  0  0  0  0  0  0
   20.5034   18.9612   22.6515 C   0  0  0  0  0  0  0  0  0  0  0  0
   19.9723   18.6885   21.7292 H   0  0  0  0  0  0  0  0  0  0  0  0
   21.2778   19.6886   22.3716 H   0  0  0  0  0  0  0  0  0  0  0  0
   21.1696   17.7050   23.2532 C   0  0  0  0  0  0  0  0  0  0  0  0
   20.3955   16.9773   23.5331 H   0  0  0  0  0  0  0  0  0  0  0  0
   21.7009   17.9773   24.1755 H   0  0  0  0  0  0  0  0  0  0  0  0
   22.1573   17.0513   22.2640 C   0  0  0  0  0  0  0  0  0  0  0  0
   21.6290   16.7757   21.3406 H   0  0  0  0  0  0  0  0  0  0  0  0
   22.9343   17.7757   21.9831 H   0  0  0  0  0  0  0  0  0  0  0  0
   22.8204   15.7973   22.8684 C   0  0  0  0  0  0  0  0  0  0  0  0
   23.5190   15.3456   22.1521 H   0  0  0  0  0  0  0  0  0  0  0  0
   23.3827   16.0496   23.7770 H   0  0  0  0  0  0  0  0  0  0  0  0
   22.0676   15.0421   23.1297 H   0  0  0  0  0  0  0  0  0  0  0  0
  1  2  1  0  0  0  0
  1  3  2  0  0  0  0
  1  4  1  0  0  0  0
  4  5  1  0  0  0  0
  4  6  1  0  0  0  0
  4  7  1  0  0  0  0
  7  8  1  0  0  0  0
  7  9  1  0  0  0  0
  7 10  1  0  0  0  0
 10 11  1  0  0  0  0
 10 12  1  0  0  0  0
 10 13  1  0  0  0  0
 13 14  1  0  0  0  0
 13 15  1  0  0  0  0
 13 16  1  0  0  0  0
 16 17  1  0  0  0  0
 16 18  1  0  0  0  0
 16 19  1  0  0  0  0
 19 20  1  0  0  0  0
 19 21  1  0  0  0  0
 19 22  1  0  0  0  0
 22 23  1  0  0  0  0
 22 24  1  0  0  0  0
 22 25  1  0  0  0  0
M  END
> <VConfSearch Rank>
322

> <Conf_Id>
27

> <Delta U+W>
-1.297

> <U+W>
-52.926

> <U>
5.617

> <W>
-58.543

> <W(PB)>
-61.065

> <W(SA)>
2.522

> <Valence>
7.531

> <Coulomb>
-2.818

> <VdW>
0.904

> <VdW6>
-7.640

> <VdW12>
8.544

> <Bond>
0.115

> <Angle>
2.271

> <Pdih>
5.144

> <Idih>
0.001

> <Tether>
0.000

$$$$
VeraChem MOL file


 25 24  0  0  0  0  0  0  0  0999 V2000     
   18.9234   22.0944   20.9932 C   0  0  0  0  0  0  0  0  0  0  0  0
   19.0064   21.8545   19.8046 O   0  5  0  0  0  0  0  0  0  0  0  0
   17.8678   22.2286   21.5803 O   0  0  0  0  0  0  0  0  0  0  0  0
   20.2174   22.2520   21.7867 C   0  0  0  0  0  0  0  0  0  0  0  0
   19.9946   22.7892   22.7165 H   0  0  0  0  0  0  0  0  0  0  0  0
   20.8850   22.8947   21.2008 H   0  0  0  0  0  0  0  0  0  0  0  0
   20.9317   20.9117   22.1002 C   0  0  0  0  0  0  0  0  0  0  0  0
   21.1231   20.3731   21.1616 H   0  0  0  0  0  0  0  0  0  0  0  0
   21.9120   21.1263   22.5469 H   0  0  0  0  0  0  0  0  0  0  0  0
   20.1189   20.0157   23.0615 C   0  0  0  0  0  0  0  0  0  0  0  0
   19.1430   19.7820   22.6137 H   0  0  0  0  0  0  0  0  0  0  0  0
   19.9187   20.5634   23.9926 H   0  0  0  0  0  0  0  0  0  0  0  0
   20.8625   18.7019   23.3849 C   0  0  0  0  0  0  0  0  0  0  0  0
   21.0622   18.1550   22.4532 H   0  0  0  0  0  0  0  0  0  0  0  0
   21.8374   18.9331   23.8356 H   0  0  0  0  0  0  0  0  0  0  0  0
   20.0505   17.8057   24.3447 C   0  0  0  0  0  0  0  0  0  0  0  0
   19.0755   17.5745   23.8942 H   0  0  0  0  0  0  0  0  0  0  0  0
   19.8503   18.3526   25.2764 H   0  0  0  0  0  0  0  0  0  0  0  0
   20.7932   16.4922   24.6678 C   0  0  0  0  0  0  0  0  0  0  0  0
   20.9934   15.9415   23.7382 H   0  0  0  0  0  0  0  0  0  0  0  0
   21.7683   16.7196   25.1205 H   0  0  0  0  0  0  0  0  0  0  0  0
   19.9789   15.6001   25.6264 C   0  0  0  0  0  0  0  0  0  0  0  0
   19.0103   15.3310   25.1850 H   0  0  0  0  0  0  0  0  0  0  0  0
   20.5214   14.6712   25.8452 H   0  0  0  0  0  0  0  0  0  0  0  0
   19.7909   16.1149   26.5777 H   0  0  0  0  0  0  0  0  0  0  0  0
  1  2  1  0  0  0  0
  1  3  2  0  0  0  0
  1  4  1  0  0  0  0
  4  5  1  0  0  0  0
  4  6  1  0  0  0  0
  4  7  1  0  0  0  0
  7  8  1  0  0  0  0
  7  9  1  0  0  0  0
  7 10  1  0  0  0  0
 10 11  1  0  0  0  0
 10 12  1  0  0  0  0
 10 13  1  0  0  0  0
 13 14  1  0  0  0  0
 13 15  1  0  0  0  0
 13 16  1  0  0  0  0
 16 17  1  0  0  0  0
 16 18  1  0  0  0  0
 16 19  1  0  0  0  0
 19 20  1  0  0  0  0
 19 21  1  0  0  0  0
 19 22  1  0  0  0  0
 22 23  1  0  0  0  0
 22 24  1  0  0  0  0
 22 25  1  0  0  0  0
M  END
> <VConfSearch Rank>
323

> <Conf_Id>
37

> <Delta U+W>
-0.230

> <U+W>
-51.860

> <U>
7.816

> <W>
-59.675

> <W(PB)>
-62.180

> <W(SA)>
2.505

> <Valence>
7.785

> <Coulomb>
-0.713

> <VdW>
0.744

> <VdW6>
-8.514

> <VdW12>
9.259

> <Bond>
0.136

> <Angle>
2.433

> <Pdih>
5.216

> <Idih>
0.000

> <Tether>
0.000

$$$$
VeraChem MOL file


 25 24  0  0  0  0  0  0  0  0999 V2000     
   18.4767   17.8870   26.7752 C   0  0  0  0  0  0  0  0  0  0  0  0
   18.4824   16.6732   26.8363 O   0  5  0  0  0  0  0  0  0  0  0  0
   17.4615   18.5533   26.7255 O   0  0  0  0  0  0  0  0  0  0  0  0
   19.8190   18.6131   26.7776 C   0  0  0  0  0  0  0  0  0  0  0  0
   20.4334   18.1636   27.5665 H   0  0  0  0  0  0  0  0  0  0  0  0
   19.6509   19.6586   27.0628 H   0  0  0  0  0  0  0  0  0  0  0  0
   20.5767   18.5415   25.4264 C   0  0  0  0  0  0  0  0  0  0  0  0
   21.5813   18.9656   25.5582 H   0  0  0  0  0  0  0  0  0  0  0  0
   20.7127   17.4891   25.1407 H   0  0  0  0  0  0  0  0  0  0  0  0
   19.8476   19.3008   24.2952 C   0  0  0  0  0  0  0  0  0  0  0  0
   19.7022   20.3488   24.5911 H   0  0  0  0  0  0  0  0  0  0  0  0
   18.8475   18.8708   24.1454 H   0  0  0  0  0  0  0  0  0  0  0  0
   20.6346   19.2433   22.9682 C   0  0  0  0  0  0  0  0  0  0  0  0
   21.6340   19.6755   23.1149 H   0  0  0  0  0  0  0  0  0  0  0  0
   20.7794   18.1949   22.6731 H   0  0  0  0  0  0  0  0  0  0  0  0
   19.9063   20.0012   21.8373 C   0  0  0  0  0  0  0  0  0  0  0  0
   19.7611   21.0495   22.1323 H   0  0  0  0  0  0  0  0  0  0  0  0
   18.9068   19.5692   21.6906 H   0  0  0  0  0  0  0  0  0  0  0  0
   20.6923   19.9435   20.5106 C   0  0  0  0  0  0  0  0  0  0  0  0
   21.6921   20.3765   20.6532 H   0  0  0  0  0  0  0  0  0  0  0  0
   20.8377   18.8962   20.2114 H   0  0  0  0  0  0  0  0  0  0  0  0
   19.9617   20.7014   19.3839 C   0  0  0  0  0  0  0  0  0  0  0  0
   19.8307   21.7602   19.6435 H   0  0  0  0  0  0  0  0  0  0  0  0
   20.5341   20.6501   18.4486 H   0  0  0  0  0  0  0  0  0  0  0  0
   18.9698   20.2687   19.1984 H   0  0  0  0  0  0  0  0  0  0  0  0
  1  2  1  0  0  0  0
  1  3  2  0  0  0  0
  1  4  1  0  0  0  0
  4  5  1  0  0  0  0
  4  6  1  0  0  0  0
  4  7  1  0  0  0  0
  7  8  1  0  0  0  0
  7  9  1  0  0  0  0
  7 10  1  0  0  0  0
 10 11  1  0  0  0  0
 10 12  1  0  0  0  0
 10 13  1  0  0  0  0
 13 14  1  0  0  0  0
 13 15  1  0  0  0  0
 13 16  1  0  0  0  0
 16 17  1  0  0  0  0
 16 18  1  0  0  0  0
 16 19  1  0  0  0  0
 19 20  1  0  0  0  0
 19 21  1  0  0  0  0
 19 22  1  0  0  0  0
 22 23  1  0  0  0  0
 22 24  1  0  0  0  0
 22 25  1  0  0  0  0
M  END
> <VConfSearch Rank>
324

> <Conf_Id>
54

> <Delta U+W>
-0.224

> <U+W>
-51.854

> <U>
7.816

> <W>
-59.670

> <W(PB)>
-62.157

> <W(SA)>
2.487

> <Valence>
7.785

> <Coulomb>
-0.713

> <VdW>
0.744

> <VdW6>
-8.515

> <VdW12>
9.259

> <Bond>
0.136

> <Angle>
2.433

> <Pdih>
5.215

> <Idih>
0.000

> <Tether>
0.000

$$$$
VeraChem MOL file


 25 24  0  0  0  0  0  0  0  0999 V2000     
   22.3126   17.3710   26.2554 C   0  0  0  0  0  0  0  0  0  0  0  0
   21.5940   16.4950   26.6950 O   0  5  0  0  0  0  0  0  0  0  0  0
   23.4664   17.1891   25.9196 O   0  0  0  0  0  0  0  0  0  0  0  0
   21.7426   18.7816   26.1350 C   0  0  0  0  0  0  0  0  0  0  0  0
   22.4881   19.4716   26.5474 H   0  0  0  0  0  0  0  0  0  0  0  0
   20.8537   18.8563   26.7731 H   0  0  0  0  0  0  0  0  0  0  0  0
   21.3960   19.2018   24.6827 C   0  0  0  0  0  0  0  0  0  0  0  0
   21.1466   20.2703   24.6815 H   0  0  0  0  0  0  0  0  0  0  0  0
   22.2847   19.0823   24.0477 H   0  0  0  0  0  0  0  0  0  0  0  0
   20.2174   18.3888   24.0946 C   0  0  0  0  0  0  0  0  0  0  0  0
   19.3173   18.5453   24.7045 H   0  0  0  0  0  0  0  0  0  0  0  0
   20.4522   17.3175   24.1603 H   0  0  0  0  0  0  0  0  0  0  0  0
   19.9079   18.7267   22.6165 C   0  0  0  0  0  0  0  0  0  0  0  0
   20.8133   18.5882   22.0102 H   0  0  0  0  0  0  0  0  0  0  0  0
   19.1738   17.9981   22.2499 H   0  0  0  0  0  0  0  0  0  0  0  0
   19.3550   20.1590   22.4119 C   0  0  0  0  0  0  0  0  0  0  0  0
   20.0904   20.8898   22.7710 H   0  0  0  0  0  0  0  0  0  0  0  0
   18.4525   20.2986   23.0223 H   0  0  0  0  0  0  0  0  0  0  0  0
   19.0364   20.4892   20.9348 C   0  0  0  0  0  0  0  0  0  0  0  0
   18.7847   21.5562   20.8600 H   0  0  0  0  0  0  0  0  0  0  0  0
   19.9337   20.3387   20.3189 H   0  0  0  0  0  0  0  0  0  0  0  0
   17.8652   19.6634   20.3592 C   0  0  0  0  0  0  0  0  0  0  0  0
   18.1166   18.5973   20.2988 H   0  0  0  0  0  0  0  0  0  0  0  0
   16.9660   19.7713   20.9795 H   0  0  0  0  0  0  0  0  0  0  0  0
   17.6185   20.0034   19.3450 H   0  0  0  0  0  0  0  0  0  0  0  0
  1  2  1  0  0  0  0
  1  3  2  0  0  0  0
  1  4  1  0  0  0  0
  4  5  1  0  0  0  0
  4  6  1  0  0  0  0
  4  7  1  0  0  0  0
  7  8  1  0  0  0  0
  7  9  1  0  0  0  0
  7 10  1  0  0  0  0
 10 11  1  0  0  0  0
 10 12  1  0  0  0  0
 10 13  1  0  0  0  0
 13 14  1  0  0  0  0
 13 15  1  0  0  0  0
 13 16  1  0  0  0  0
 16 17  1  0  0  0  0
 16 18  1  0  0  0  0
 16 19  1  0  0  0  0
 19 20  1  0  0  0  0
 19 21  1  0  0  0  0
 19 22  1  0  0  0  0
 22 23  1  0  0  0  0
 22 24  1  0  0  0  0
 22 25  1  0  0  0  0
M  END
> <VConfSearch Rank>
325

> <Conf_Id>
101

> <Delta U+W>
1.534

> <U+W>
-50.095

> <U>
9.416

> <W>
-59.512

> <W(PB)>
-61.988

> <W(SA)>
2.476

> <Valence>
8.939

> <Coulomb>
-0.615

> <VdW>
1.092

> <VdW6>
-9.710

> <VdW12>
10.802

> <Bond>
0.216

> <Angle>
2.979

> <Pdih>
5.743

> <Idih>
0.000

> <Tether>
0.000

$$$$
VeraChem MOL file


 25 24  0  0  0  0  0  0  0  0999 V2000     
   17.0331   21.0595   25.4442 C   0  0  0  0  0  0  0  0  0  0  0  0
   17.5441   21.9350   26.1143 O   0  5  0  0  0  0  0  0  0  0  0  0
   15.8519   21.0326   25.1597 O   0  0  0  0  0  0  0  0  0  0  0  0
   17.9272   19.9454   24.9118 C   0  0  0  0  0  0  0  0  0  0  0  0
   17.3275   19.0295   24.8481 H   0  0  0  0  0  0  0  0  0  0  0  0
   18.7144   19.7684   25.6530 H   0  0  0  0  0  0  0  0  0  0  0  0
   18.5417   20.2801   23.5277 C   0  0  0  0  0  0  0  0  0  0  0  0
   17.7289   20.5471   22.8382 H   0  0  0  0  0  0  0  0  0  0  0  0
   19.1795   21.1706   23.6141 H   0  0  0  0  0  0  0  0  0  0  0  0
   19.3511   19.1151   22.9092 C   0  0  0  0  0  0  0  0  0  0  0  0
   19.6188   19.3966   21.8827 H   0  0  0  0  0  0  0  0  0  0  0  0
   18.7143   18.2233   22.8328 H   0  0  0  0  0  0  0  0  0  0  0  0
   20.6387   18.7730   23.6984 C   0  0  0  0  0  0  0  0  0  0  0  0
   21.2754   19.6640   23.7741 H   0  0  0  0  0  0  0  0  0  0  0  0
   20.3744   18.4994   24.7275 H   0  0  0  0  0  0  0  0  0  0  0  0
   21.4439   17.5973   23.0887 C   0  0  0  0  0  0  0  0  0  0  0  0
   20.8189   16.6940   23.1017 H   0  0  0  0  0  0  0  0  0  0  0  0
   22.2997   17.3823   23.7430 H   0  0  0  0  0  0  0  0  0  0  0  0
   21.9647   17.8224   21.6473 C   0  0  0  0  0  0  0  0  0  0  0  0
   22.5112   16.9237   21.3296 H   0  0  0  0  0  0  0  0  0  0  0  0
   21.1224   17.9252   20.9506 H   0  0  0  0  0  0  0  0  0  0  0  0
   22.9005   19.0436   21.5176 C   0  0  0  0  0  0  0  0  0  0  0  0
   23.7384   18.9734   22.2233 H   0  0  0  0  0  0  0  0  0  0  0  0
   23.3159   19.1035   20.5034 H   0  0  0  0  0  0  0  0  0  0  0  0
   22.3627   19.9800   21.7124 H   0  0  0  0  0  0  0  0  0  0  0  0
  1  2  1  0  0  0  0
  1  3  2  0  0  0  0
  1  4  1  0  0  0  0
  4  5  1  0  0  0  0
  4  6  1  0  0  0  0
  4  7  1  0  0  0  0
  7  8  1  0  0  0  0
  7  9  1  0  0  0  0
  7 10  1  0  0  0  0
 10 11  1  0  0  0  0
 10 12  1  0  0  0  0
 10 13  1  0  0  0  0
 13 14  1  0  0  0  0
 13 15  1  0  0  0  0
 13 16  1  0  0  0  0
 16 17  1  0  0  0  0
 16 18  1  0  0  0  0
 16 19  1  0  0  0  0
 19 20  1  0  0  0  0
 19 21  1  0  0  0  0
 19 22  1  0  0  0  0
 22 23  1  0  0  0  0
 22 24  1  0  0  0  0
 22 25  1  0  0  0  0
M  END
> <VConfSearch Rank>
326

> <Conf_Id>
75

> <Delta U+W>
1.014

> <U+W>
-50.615

> <U>
8.474

> <W>
-59.089

> <W(PB)>
-61.530

> <W(SA)>
2.441

> <Valence>
9.080

> <Coulomb>
-1.772

> <VdW>
1.165

> <VdW6>
-9.830

> <VdW12>
10.996

> <Bond>
0.240

> <Angle>
3.225

> <Pdih>
5.615

> <Idih>
0.001

> <Tether>
0.000

$$$$
VeraChem MOL file


 25 24  0  0  0  0  0  0  0  0999 V2000     
   21.8443   18.3603   19.5137 C   0  0  0  0  0  0  0  0  0  0  0  0
   22.6289   17.4424   19.6499 O   0  5  0  0  0  0  0  0  0  0  0  0
   21.2932   18.6248   18.4635 O   0  0  0  0  0  0  0  0  0  0  0  0
   21.5170   19.2143   20.7333 C   0  0  0  0  0  0  0  0  0  0  0  0
   21.3119   20.2352   20.3894 H   0  0  0  0  0  0  0  0  0  0  0  0
   22.4105   19.2591   21.3676 H   0  0  0  0  0  0  0  0  0  0  0  0
   20.3137   18.6710   21.5427 C   0  0  0  0  0  0  0  0  0  0  0  0
   19.4307   18.6201   20.8905 H   0  0  0  0  0  0  0  0  0  0  0  0
   20.5297   17.6439   21.8683 H   0  0  0  0  0  0  0  0  0  0  0  0
   20.0034   19.5515   22.7726 C   0  0  0  0  0  0  0  0  0  0  0  0
   19.7887   20.5770   22.4424 H   0  0  0  0  0  0  0  0  0  0  0  0
   20.8922   19.6068   23.4123 H   0  0  0  0  0  0  0  0  0  0  0  0
   18.7972   19.0081   23.5741 C   0  0  0  0  0  0  0  0  0  0  0  0
   17.9221   18.9978   22.9100 H   0  0  0  0  0  0  0  0  0  0  0  0
   18.9716   17.9638   23.8668 H   0  0  0  0  0  0  0  0  0  0  0  0
   18.4557   19.8599   24.8232 C   0  0  0  0  0  0  0  0  0  0  0  0
   17.3636   19.8689   24.9419 H   0  0  0  0  0  0  0  0  0  0  0  0
   18.7466   20.9069   24.6618 H   0  0  0  0  0  0  0  0  0  0  0  0
   19.0635   19.3371   26.1484 C   0  0  0  0  0  0  0  0  0  0  0  0
   18.6935   19.9629   26.9722 H   0  0  0  0  0  0  0  0  0  0  0  0
   18.6963   18.3206   26.3460 H   0  0  0  0  0  0  0  0  0  0  0  0
   20.6061   19.3392   26.1808 C   0  0  0  0  0  0  0  0  0  0  0  0
   21.0045   20.3285   25.9211 H   0  0  0  0  0  0  0  0  0  0  0  0
   20.9692   19.0801   27.1837 H   0  0  0  0  0  0  0  0  0  0  0  0
   21.0173   18.6018   25.4802 H   0  0  0  0  0  0  0  0  0  0  0  0
  1  2  1  0  0  0  0
  1  3  2  0  0  0  0
  1  4  1  0  0  0  0
  4  5  1  0  0  0  0
  4  6  1  0  0  0  0
  4  7  1  0  0  0  0
  7  8  1  0  0  0  0
  7  9  1  0  0  0  0
  7 10  1  0  0  0  0
 10 11  1  0  0  0  0
 10 12  1  0  0  0  0
 10 13  1  0  0  0  0
 13 14  1  0  0  0  0
 13 15  1  0  0  0  0
 13 16  1  0  0  0  0
 16 17  1  0  0  0  0
 16 18  1  0  0  0  0
 16 19  1  0  0  0  0
 19 20  1  0  0  0  0
 19 21  1  0  0  0  0
 19 22  1  0  0  0  0
 22 23  1  0  0  0  0
 22 24  1  0  0  0  0
 22 25  1  0  0  0  0
M  END
> <VConfSearch Rank>
327

> <Conf_Id>
125

> <Delta U+W>
2.314

> <U+W>
-49.315

> <U>
9.740

> <W>
-59.054

> <W(PB)>
-61.488

> <W(SA)>
2.433

> <Valence>
10.506

> <Coulomb>
-1.761

> <VdW>
0.994

> <VdW6>
-9.209

> <VdW12>
10.203

> <Bond>
0.193

> <Angle>
2.979

> <Pdih>
7.334

> <Idih>
0.001

> <Tether>
0.000

$$$$
VeraChem MOL file


 25 24  0  0  0  0  0  0  0  0999 V2000     
   16.2120   19.9366   24.2643 C   0  0  0  0  0  0  0  0  0  0  0  0
   15.9240   20.9389   23.6404 O   0  5  0  0  0  0  0  0  0  0  0  0
   15.4861   19.4301   25.0969 O   0  0  0  0  0  0  0  0  0  0  0  0
   17.5693   19.2926   24.0056 C   0  0  0  0  0  0  0  0  0  0  0  0
   17.8154   19.4477   22.9491 H   0  0  0  0  0  0  0  0  0  0  0  0
   17.4682   18.2119   24.1614 H   0  0  0  0  0  0  0  0  0  0  0  0
   18.6870   19.8626   24.9173 C   0  0  0  0  0  0  0  0  0  0  0  0
   18.8107   20.9361   24.7184 H   0  0  0  0  0  0  0  0  0  0  0  0
   18.3657   19.7764   25.9645 H   0  0  0  0  0  0  0  0  0  0  0  0
   20.0458   19.1407   24.7549 C   0  0  0  0  0  0  0  0  0  0  0  0
   19.9207   18.0694   24.9638 H   0  0  0  0  0  0  0  0  0  0  0  0
   20.7380   19.5269   25.5155 H   0  0  0  0  0  0  0  0  0  0  0  0
   20.6787   19.3279   23.3564 C   0  0  0  0  0  0  0  0  0  0  0  0
   20.0257   18.8841   22.5953 H   0  0  0  0  0  0  0  0  0  0  0  0
   20.7569   20.3999   23.1296 H   0  0  0  0  0  0  0  0  0  0  0  0
   22.0801   18.6795   23.2741 C   0  0  0  0  0  0  0  0  0  0  0  0
   21.9987   17.5988   23.4543 H   0  0  0  0  0  0  0  0  0  0  0  0
   22.7089   19.0827   24.0796 H   0  0  0  0  0  0  0  0  0  0  0  0
   22.7941   18.9266   21.9247 C   0  0  0  0  0  0  0  0  0  0  0  0
   22.8820   20.0068   21.7438 H   0  0  0  0  0  0  0  0  0  0  0  0
   23.8199   18.5391   21.9929 H   0  0  0  0  0  0  0  0  0  0  0  0
   22.0880   18.2550   20.7267 C   0  0  0  0  0  0  0  0  0  0  0  0
   21.0993   18.6949   20.5461 H   0  0  0  0  0  0  0  0  0  0  0  0
   22.6803   18.3829   19.8114 H   0  0  0  0  0  0  0  0  0  0  0  0
   21.9603   17.1784   20.8990 H   0  0  0  0  0  0  0  0  0  0  0  0
  1  2  1  0  0  0  0
  1  3  2  0  0  0  0
  1  4  1  0  0  0  0
  4  5  1  0  0  0  0
  4  6  1  0  0  0  0
  4  7  1  0  0  0  0
  7  8  1  0  0  0  0
  7  9  1  0  0  0  0
  7 10  1  0  0  0  0
 10 11  1  0  0  0  0
 10 12  1  0  0  0  0
 10 13  1  0  0  0  0
 13 14  1  0  0  0  0
 13 15  1  0  0  0  0
 13 16  1  0  0  0  0
 16 17  1  0  0  0  0
 16 18  1  0  0  0  0
 16 19  1  0  0  0  0
 19 20  1  0  0  0  0
 19 21  1  0  0  0  0
 19 22  1  0  0  0  0
 22 23  1  0  0  0  0
 22 24  1  0  0  0  0
 22 25  1  0  0  0  0
M  END
> <VConfSearch Rank>
328

> <Conf_Id>
4

> <Delta U+W>
0.189

> <U+W>
-51.441

> <U>
7.701

> <W>
-59.141

> <W(PB)>
-61.609

> <W(SA)>
2.467

> <Valence>
8.550

> <Coulomb>
-1.988

> <VdW>
1.139

> <VdW6>
-8.988

> <VdW12>
10.127

> <Bond>
0.191

> <Angle>
2.738

> <Pdih>
5.621

> <Idih>
0.001

> <Tether>
0.000

$$$$
VeraChem MOL file


 25 24  0  0  0  0  0  0  0  0999 V2000     
   17.2093   21.0146   20.9570 C   0  0  0  0  0  0  0  0  0  0  0  0
   17.1921   20.3759   19.9234 O   0  5  0  0  0  0  0  0  0  0  0  0
   16.4124   21.8941   21.2182 O   0  0  0  0  0  0  0  0  0  0  0  0
   18.2752   20.6782   21.9937 C   0  0  0  0  0  0  0  0  0  0  0  0
   18.5259   21.5984   22.5347 H   0  0  0  0  0  0  0  0  0  0  0  0
   19.1753   20.3616   21.4549 H   0  0  0  0  0  0  0  0  0  0  0  0
   17.8182   19.5799   22.9887 C   0  0  0  0  0  0  0  0  0  0  0  0
   16.8650   19.8879   23.4403 H   0  0  0  0  0  0  0  0  0  0  0  0
   17.6152   18.6496   22.4404 H   0  0  0  0  0  0  0  0  0  0  0  0
   18.8376   19.3079   24.1206 C   0  0  0  0  0  0  0  0  0  0  0  0
   18.3839   18.6093   24.8369 H   0  0  0  0  0  0  0  0  0  0  0  0
   19.0309   20.2376   24.6730 H   0  0  0  0  0  0  0  0  0  0  0  0
   20.1736   18.7149   23.6159 C   0  0  0  0  0  0  0  0  0  0  0  0
   19.9735   17.8129   23.0219 H   0  0  0  0  0  0  0  0  0  0  0  0
   20.6677   19.4349   22.9524 H   0  0  0  0  0  0  0  0  0  0  0  0
   21.1187   18.3620   24.7878 C   0  0  0  0  0  0  0  0  0  0  0  0
   20.5939   17.6905   25.4810 H   0  0  0  0  0  0  0  0  0  0  0  0
   21.3582   19.2709   25.3564 H   0  0  0  0  0  0  0  0  0  0  0  0
   22.4283   17.6742   24.3363 C   0  0  0  0  0  0  0  0  0  0  0  0
   22.9827   17.3522   25.2286 H   0  0  0  0  0  0  0  0  0  0  0  0
   22.1925   16.7616   23.7716 H   0  0  0  0  0  0  0  0  0  0  0  0
   23.3392   18.5888   23.4888 C   0  0  0  0  0  0  0  0  0  0  0  0
   23.5628   19.5226   24.0209 H   0  0  0  0  0  0  0  0  0  0  0  0
   24.2912   18.0873   23.2718 H   0  0  0  0  0  0  0  0  0  0  0  0
   22.8716   18.8422   22.5293 H   0  0  0  0  0  0  0  0  0  0  0  0
  1  2  1  0  0  0  0
  1  3  2  0  0  0  0
  1  4  1  0  0  0  0
  4  5  1  0  0  0  0
  4  6  1  0  0  0  0
  4  7  1  0  0  0  0
  7  8  1  0  0  0  0
  7  9  1  0  0  0  0
  7 10  1  0  0  0  0
 10 11  1  0  0  0  0
 10 12  1  0  0  0  0
 10 13  1  0  0  0  0
 13 14  1  0  0  0  0
 13 15  1  0  0  0  0
 13 16  1  0  0  0  0
 16 17  1  0  0  0  0
 16 18  1  0  0  0  0
 16 19  1  0  0  0  0
 19 20  1  0  0  0  0
 19 21  1  0  0  0  0
 19 22  1  0  0  0  0
 22 23  1  0  0  0  0
 22 24  1  0  0  0  0
 22 25  1  0  0  0  0
M  END
> <VConfSearch Rank>
329

> <Conf_Id>
17

> <Delta U+W>
0.219

> <U+W>
-51.411

> <U>
7.701

> <W>
-59.111

> <W(PB)>
-61.599

> <W(SA)>
2.488

> <Valence>
8.550

> <Coulomb>
-1.988

> <VdW>
1.139

> <VdW6>
-8.988

> <VdW12>
10.127

> <Bond>
0.191

> <Angle>
2.738

> <Pdih>
5.621

> <Idih>
0.001

> <Tether>
0.000

$$$$
VeraChem MOL file


 25 24  0  0  0  0  0  0  0  0999 V2000     
   19.3624   16.5696   20.8810 C   0  0  0  0  0  0  0  0  0  0  0  0
   20.3236   15.8284   20.8197 O   0  5  0  0  0  0  0  0  0  0  0  0
   18.9830   17.2576   19.9537 O   0  0  0  0  0  0  0  0  0  0  0  0
   18.5754   16.6266   22.1873 C   0  0  0  0  0  0  0  0  0  0  0  0
   18.8010   15.7263   22.7714 H   0  0  0  0  0  0  0  0  0  0  0  0
   17.5103   16.5801   21.9313 H   0  0  0  0  0  0  0  0  0  0  0  0
   18.8502   17.8976   23.0323 C   0  0  0  0  0  0  0  0  0  0  0  0
   18.6358   18.7841   22.4208 H   0  0  0  0  0  0  0  0  0  0  0  0
   18.1527   17.9199   23.8804 H   0  0  0  0  0  0  0  0  0  0  0  0
   20.3026   17.9525   23.5636 C   0  0  0  0  0  0  0  0  0  0  0  0
   21.0065   18.0019   22.7214 H   0  0  0  0  0  0  0  0  0  0  0  0
   20.5234   17.0174   24.0963 H   0  0  0  0  0  0  0  0  0  0  0  0
   20.5632   19.1378   24.5232 C   0  0  0  0  0  0  0  0  0  0  0  0
   19.8663   19.0855   25.3708 H   0  0  0  0  0  0  0  0  0  0  0  0
   21.5723   19.0293   24.9435 H   0  0  0  0  0  0  0  0  0  0  0  0
   20.4500   20.5201   23.8394 C   0  0  0  0  0  0  0  0  0  0  0  0
   19.4251   20.6772   23.4791 H   0  0  0  0  0  0  0  0  0  0  0  0
   21.1076   20.5493   22.9598 H   0  0  0  0  0  0  0  0  0  0  0  0
   20.8270   21.6654   24.8026 C   0  0  0  0  0  0  0  0  0  0  0  0
   20.1722   21.6378   25.6846 H   0  0  0  0  0  0  0  0  0  0  0  0
   21.8551   21.5233   25.1636 H   0  0  0  0  0  0  0  0  0  0  0  0
   20.7101   23.0434   24.1204 C   0  0  0  0  0  0  0  0  0  0  0  0
   19.6832   23.2261   23.7777 H   0  0  0  0  0  0  0  0  0  0  0  0
   20.9820   23.8453   24.8190 H   0  0  0  0  0  0  0  0  0  0  0  0
   21.3783   23.1094   23.2518 H   0  0  0  0  0  0  0  0  0  0  0  0
  1  2  1  0  0  0  0
  1  3  2  0  0  0  0
  1  4  1  0  0  0  0
  4  5  1  0  0  0  0
  4  6  1  0  0  0  0
  4  7  1  0  0  0  0
  7  8  1  0  0  0  0
  7  9  1  0  0  0  0
  7 10  1  0  0  0  0
 10 11  1  0  0  0  0
 10 12  1  0  0  0  0
 10 13  1  0  0  0  0
 13 14  1  0  0  0  0
 13 15  1  0  0  0  0
 13 16  1  0  0  0  0
 16 17  1  0  0  0  0
 16 18  1  0  0  0  0
 16 19  1  0  0  0  0
 19 20  1  0  0  0  0
 19 21  1  0  0  0  0
 19 22  1  0  0  0  0
 22 23  1  0  0  0  0
 22 24  1  0  0  0  0
 22 25  1  0  0  0  0
M  END
> <VConfSearch Rank>
330

> <Conf_Id>
142

> <Delta U+W>
0.593

> <U+W>
-51.037

> <U>
8.903

> <W>
-59.940

> <W(PB)>
-62.418

> <W(SA)>
2.478

> <Valence>
8.305

> <Coulomb>
-0.223

> <VdW>
0.821

> <VdW6>
-9.236

> <VdW12>
10.057

> <Bond>
0.173

> <Angle>
2.663

> <Pdih>
5.469

> <Idih>
0.001

> <Tether>
0.000

$$$$
VeraChem MOL file


 25 24  0  0  0  0  0  0  0  0999 V2000     
   22.2859   21.0589   25.5823 C   0  0  0  0  0  0  0  0  0  0  0  0
   22.6806   21.0289   26.7316 O   0  5  0  0  0  0  0  0  0  0  0  0
   22.9940   21.3414   24.6358 O   0  0  0  0  0  0  0  0  0  0  0  0
   20.8143   20.7515   25.3199 C   0  0  0  0  0  0  0  0  0  0  0  0
   20.5605   21.0865   24.3076 H   0  0  0  0  0  0  0  0  0  0  0  0
   20.2245   21.3680   26.0080 H   0  0  0  0  0  0  0  0  0  0  0  0
   20.4344   19.2580   25.5127 C   0  0  0  0  0  0  0  0  0  0  0  0
   20.6375   18.9750   26.5548 H   0  0  0  0  0  0  0  0  0  0  0  0
   19.3520   19.1395   25.3748 H   0  0  0  0  0  0  0  0  0  0  0  0
   21.1901   18.2788   24.5774 C   0  0  0  0  0  0  0  0  0  0  0  0
   20.8572   17.2550   24.7958 H   0  0  0  0  0  0  0  0  0  0  0  0
   22.2609   18.3059   24.8215 H   0  0  0  0  0  0  0  0  0  0  0  0
   21.0213   18.5486   23.0612 C   0  0  0  0  0  0  0  0  0  0  0  0
   21.4526   19.5257   22.8055 H   0  0  0  0  0  0  0  0  0  0  0  0
   21.6119   17.8039   22.5105 H   0  0  0  0  0  0  0  0  0  0  0  0
   19.5532   18.4809   22.5808 C   0  0  0  0  0  0  0  0  0  0  0  0
   18.9642   19.2681   23.0690 H   0  0  0  0  0  0  0  0  0  0  0  0
   19.1137   17.5190   22.8778 H   0  0  0  0  0  0  0  0  0  0  0  0
   19.4457   18.6468   21.0503 C   0  0  0  0  0  0  0  0  0  0  0  0
   19.8873   19.6074   20.7507 H   0  0  0  0  0  0  0  0  0  0  0  0
   20.0257   17.8589   20.5502 H   0  0  0  0  0  0  0  0  0  0  0  0
   17.9806   18.5852   20.5735 C   0  0  0  0  0  0  0  0  0  0  0  0
   17.3839   19.3834   21.0341 H   0  0  0  0  0  0  0  0  0  0  0  0
   17.9230   18.7047   19.4838 H   0  0  0  0  0  0  0  0  0  0  0  0
   17.5233   17.6216   20.8336 H   0  0  0  0  0  0  0  0  0  0  0  0
  1  2  1  0  0  0  0
  1  3  2  0  0  0  0
  1  4  1  0  0  0  0
  4  5  1  0  0  0  0
  4  6  1  0  0  0  0
  4  7  1  0  0  0  0
  7  8  1  0  0  0  0
  7  9  1  0  0  0  0
  7 10  1  0  0  0  0
 10 11  1  0  0  0  0
 10 12  1  0  0  0  0
 10 13  1  0  0  0  0
 13 14  1  0  0  0  0
 13 15  1  0  0  0  0
 13 16  1  0  0  0  0
 16 17  1  0  0  0  0
 16 18  1  0  0  0  0
 16 19  1  0  0  0  0
 19 20  1  0  0  0  0
 19 21  1  0  0  0  0
 19 22  1  0  0  0  0
 22 23  1  0  0  0  0
 22 24  1  0  0  0  0
 22 25  1  0  0  0  0
M  END
> <VConfSearch Rank>
331

> <Conf_Id>
135

> <Delta U+W>
1.314

> <U+W>
-50.316

> <U>
9.773

> <W>
-60.088

> <W(PB)>
-62.535

> <W(SA)>
2.447

> <Valence>
8.741

> <Coulomb>
0.479

> <VdW>
0.552

> <VdW6>
-10.627

> <VdW12>
11.179

> <Bond>
0.227

> <Angle>
3.155

> <Pdih>
5.358

> <Idih>
0.001

> <Tether>
0.000

$$$$
VeraChem MOL file


 25 24  0  0  0  0  0  0  0  0999 V2000     
   21.5620   18.4254   19.3858 C   0  0  0  0  0  0  0  0  0  0  0  0
   21.8634   17.2623   19.2039 O   0  5  0  0  0  0  0  0  0  0  0  0
   21.3396   19.2116   18.4863 O   0  0  0  0  0  0  0  0  0  0  0  0
   21.4335   18.9199   20.8222 C   0  0  0  0  0  0  0  0  0  0  0  0
   21.7149   19.9795   20.8431 H   0  0  0  0  0  0  0  0  0  0  0  0
   22.1673   18.3762   21.4274 H   0  0  0  0  0  0  0  0  0  0  0  0
   20.0036   18.7346   21.3938 C   0  0  0  0  0  0  0  0  0  0  0  0
   19.2884   19.2100   20.7083 H   0  0  0  0  0  0  0  0  0  0  0  0
   19.7501   17.6656   21.4132 H   0  0  0  0  0  0  0  0  0  0  0  0
   19.8143   19.3436   22.8039 C   0  0  0  0  0  0  0  0  0  0  0  0
   18.7455   19.2999   23.0484 H   0  0  0  0  0  0  0  0  0  0  0  0
   20.0923   20.4062   22.7880 H   0  0  0  0  0  0  0  0  0  0  0  0
   20.6133   18.6077   23.9059 C   0  0  0  0  0  0  0  0  0  0  0  0
   20.2868   17.5601   23.9545 H   0  0  0  0  0  0  0  0  0  0  0  0
   21.6766   18.5870   23.6367 H   0  0  0  0  0  0  0  0  0  0  0  0
   20.4949   19.2491   25.3116 C   0  0  0  0  0  0  0  0  0  0  0  0
   20.9063   20.2676   25.2960 H   0  0  0  0  0  0  0  0  0  0  0  0
   21.1418   18.6772   25.9907 H   0  0  0  0  0  0  0  0  0  0  0  0
   19.0633   19.2574   25.9037 C   0  0  0  0  0  0  0  0  0  0  0  0
   18.4714   18.4330   25.4826 H   0  0  0  0  0  0  0  0  0  0  0  0
   19.1282   19.0655   26.9836 H   0  0  0  0  0  0  0  0  0  0  0  0
   18.3299   20.6022   25.7010 C   0  0  0  0  0  0  0  0  0  0  0  0
   18.2221   20.8524   24.6395 H   0  0  0  0  0  0  0  0  0  0  0  0
   17.3246   20.5614   26.1399 H   0  0  0  0  0  0  0  0  0  0  0  0
   18.8755   21.4211   26.1876 H   0  0  0  0  0  0  0  0  0  0  0  0
  1  2  1  0  0  0  0
  1  3  2  0  0  0  0
  1  4  1  0  0  0  0
  4  5  1  0  0  0  0
  4  6  1  0  0  0  0
  4  7  1  0  0  0  0
  7  8  1  0  0  0  0
  7  9  1  0  0  0  0
  7 10  1  0  0  0  0
 10 11  1  0  0  0  0
 10 12  1  0  0  0  0
 10 13  1  0  0  0  0
 13 14  1  0  0  0  0
 13 15  1  0  0  0  0
 13 16  1  0  0  0  0
 16 17  1  0  0  0  0
 16 18  1  0  0  0  0
 16 19  1  0  0  0  0
 19 20  1  0  0  0  0
 19 21  1  0  0  0  0
 19 22  1  0  0  0  0
 22 23  1  0  0  0  0
 22 24  1  0  0  0  0
 22 25  1  0  0  0  0
M  END
> <VConfSearch Rank>
332

> <Conf_Id>
19

> <Delta U+W>
3.222

> <U+W>
-48.407

> <U>
10.617

> <W>
-59.025

> <W(PB)>
-61.462

> <W(SA)>
2.437

> <Valence>
11.188

> <Coulomb>
-1.778

> <VdW>
1.208

> <VdW6>
-9.786

> <VdW12>
10.993

> <Bond>
0.241

> <Angle>
3.294

> <Pdih>
7.653

> <Idih>
0.001

> <Tether>
0.000

$$$$
VeraChem MOL file


 25 24  0  0  0  0  0  0  0  0999 V2000     
   23.1367   22.0721   23.7407 C   0  0  0  0  0  0  0  0  0  0  0  0
   23.4079   22.3022   24.9027 O   0  5  0  0  0  0  0  0  0  0  0  0
   23.4110   22.8217   22.8244 O   0  0  0  0  0  0  0  0  0  0  0  0
   22.3903   20.7828   23.4171 C   0  0  0  0  0  0  0  0  0  0  0  0
   22.7204   20.0200   24.1307 H   0  0  0  0  0  0  0  0  0  0  0  0
   22.7012   20.4517   22.4191 H   0  0  0  0  0  0  0  0  0  0  0  0
   20.8495   20.9537   23.4682 C   0  0  0  0  0  0  0  0  0  0  0  0
   20.5438   21.2386   24.4844 H   0  0  0  0  0  0  0  0  0  0  0  0
   20.5684   21.7907   22.8142 H   0  0  0  0  0  0  0  0  0  0  0  0
   20.0694   19.6944   23.0201 C   0  0  0  0  0  0  0  0  0  0  0  0
   20.3947   19.3966   22.0141 H   0  0  0  0  0  0  0  0  0  0  0  0
   19.0090   19.9656   22.9424 H   0  0  0  0  0  0  0  0  0  0  0  0
   20.2135   18.5006   23.9940 C   0  0  0  0  0  0  0  0  0  0  0  0
   21.2761   18.2648   24.1312 H   0  0  0  0  0  0  0  0  0  0  0  0
   19.8312   18.7888   24.9826 H   0  0  0  0  0  0  0  0  0  0  0  0
   19.5002   17.2078   23.5237 C   0  0  0  0  0  0  0  0  0  0  0  0
   19.7174   16.4239   24.2620 H   0  0  0  0  0  0  0  0  0  0  0  0
   19.9402   16.8578   22.5798 H   0  0  0  0  0  0  0  0  0  0  0  0
   17.9616   17.3274   23.3868 C   0  0  0  0  0  0  0  0  0  0  0  0
   17.5047   16.3853   23.7199 H   0  0  0  0  0  0  0  0  0  0  0  0
   17.5782   18.1068   24.0597 H   0  0  0  0  0  0  0  0  0  0  0  0
   17.4997   17.5957   21.9371 C   0  0  0  0  0  0  0  0  0  0  0  0
   17.8115   16.7805   21.2713 H   0  0  0  0  0  0  0  0  0  0  0  0
   16.4055   17.6677   21.8897 H   0  0  0  0  0  0  0  0  0  0  0  0
   17.9144   18.5305   21.5429 H   0  0  0  0  0  0  0  0  0  0  0  0
  1  2  1  0  0  0  0
  1  3  2  0  0  0  0
  1  4  1  0  0  0  0
  4  5  1  0  0  0  0
  4  6  1  0  0  0  0
  4  7  1  0  0  0  0
  7  8  1  0  0  0  0
  7  9  1  0  0  0  0
  7 10  1  0  0  0  0
 10 11  1  0  0  0  0
 10 12  1  0  0  0  0
 10 13  1  0  0  0  0
 13 14  1  0  0  0  0
 13 15  1  0  0  0  0
 13 16  1  0  0  0  0
 16 17  1  0  0  0  0
 16 18  1  0  0  0  0
 16 19  1  0  0  0  0
 19 20  1  0  0  0  0
 19 21  1  0  0  0  0
 19 22  1  0  0  0  0
 22 23  1  0  0  0  0
 22 24  1  0  0  0  0
 22 25  1  0  0  0  0
M  END
> <VConfSearch Rank>
333

> <Conf_Id>
20

> <Delta U+W>
3.224

> <U+W>
-48.406

> <U>
10.617

> <W>
-59.023

> <W(PB)>
-61.467

> <W(SA)>
2.444

> <Valence>
11.188

> <Coulomb>
-1.778

> <VdW>
1.208

> <VdW6>
-9.786

> <VdW12>
10.993

> <Bond>
0.241

> <Angle>
3.294

> <Pdih>
7.653

> <Idih>
0.001

> <Tether>
0.000

$$$$
VeraChem MOL file


 25 24  0  0  0  0  0  0  0  0999 V2000     
   20.4706   22.4174   23.6553 C   0  0  0  0  0  0  0  0  0  0  0  0
   20.2356   22.8363   22.5387 O   0  5  0  0  0  0  0  0  0  0  0  0
   21.5941   22.2197   24.0748 O   0  0  0  0  0  0  0  0  0  0  0  0
   19.2969   22.1892   24.6060 C   0  0  0  0  0  0  0  0  0  0  0  0
   18.8348   23.1703   24.7657 H   0  0  0  0  0  0  0  0  0  0  0  0
   19.6842   21.8627   25.5787 H   0  0  0  0  0  0  0  0  0  0  0  0
   18.2139   21.1968   24.0967 C   0  0  0  0  0  0  0  0  0  0  0  0
   17.2879   21.3898   24.6550 H   0  0  0  0  0  0  0  0  0  0  0  0
   17.9804   21.4053   23.0434 H   0  0  0  0  0  0  0  0  0  0  0  0
   18.5690   19.6998   24.2755 C   0  0  0  0  0  0  0  0  0  0  0  0
   17.6796   19.1053   24.0259 H   0  0  0  0  0  0  0  0  0  0  0  0
   18.7898   19.4958   25.3322 H   0  0  0  0  0  0  0  0  0  0  0  0
   19.7478   19.2225   23.3973 C   0  0  0  0  0  0  0  0  0  0  0  0
   19.5745   19.5198   22.3539 H   0  0  0  0  0  0  0  0  0  0  0  0
   20.6755   19.7109   23.7211 H   0  0  0  0  0  0  0  0  0  0  0  0
   19.9347   17.6916   23.4750 C   0  0  0  0  0  0  0  0  0  0  0  0
   19.0141   17.1912   23.1449 H   0  0  0  0  0  0  0  0  0  0  0  0
   20.1031   17.3956   24.5196 H   0  0  0  0  0  0  0  0  0  0  0  0
   21.1186   17.2153   22.6074 C   0  0  0  0  0  0  0  0  0  0  0  0
   20.9529   17.5091   21.5616 H   0  0  0  0  0  0  0  0  0  0  0  0
   22.0419   17.7126   22.9359 H   0  0  0  0  0  0  0  0  0  0  0  0
   21.3032   15.6865   22.6874 C   0  0  0  0  0  0  0  0  0  0  0  0
   20.4048   15.1633   22.3344 H   0  0  0  0  0  0  0  0  0  0  0  0
   22.1487   15.3658   22.0650 H   0  0  0  0  0  0  0  0  0  0  0  0
   21.5021   15.3684   23.7192 H   0  0  0  0  0  0  0  0  0  0  0  0
  1  2  1  0  0  0  0
  1  3  2  0  0  0  0
  1  4  1  0  0  0  0
  4  5  1  0  0  0  0
  4  6  1  0  0  0  0
  4  7  1  0  0  0  0
  7  8  1  0  0  0  0
  7  9  1  0  0  0  0
  7 10  1  0  0  0  0
 10 11  1  0  0  0  0
 10 12  1  0  0  0  0
 10 13  1  0  0  0  0
 13 14  1  0  0  0  0
 13 15  1  0  0  0  0
 13 16  1  0  0  0  0
 16 17  1  0  0  0  0
 16 18  1  0  0  0  0
 16 19  1  0  0  0  0
 19 20  1  0  0  0  0
 19 21  1  0  0  0  0
 19 22  1  0  0  0  0
 22 23  1  0  0  0  0
 22 24  1  0  0  0  0
 22 25  1  0  0  0  0
M  END
> <VConfSearch Rank>
334

> <Conf_Id>
24

> <Delta U+W>
1.784

> <U+W>
-49.846

> <U>
10.904

> <W>
-60.749

> <W(PB)>
-63.220

> <W(SA)>
2.471

> <Valence>
9.445

> <Coulomb>
0.780

> <VdW>
0.679

> <VdW6>
-10.008

> <VdW12>
10.687

> <Bond>
0.201

> <Angle>
3.198

> <Pdih>
6.039

> <Idih>
0.006

> <Tether>
0.000

$$$$
VeraChem MOL file


 25 24  0  0  0  0  0  0  0  0999 V2000     
   21.2376   17.1661   21.1803 C   0  0  0  0  0  0  0  0  0  0  0  0
   22.4433   17.3190   21.1581 O   0  5  0  0  0  0  0  0  0  0  0  0
   20.6944   16.1868   21.6526 O   0  0  0  0  0  0  0  0  0  0  0  0
   20.3599   18.2282   20.5208 C   0  0  0  0  0  0  0  0  0  0  0  0
   19.3111   17.9136   20.5841 H   0  0  0  0  0  0  0  0  0  0  0  0
   20.6235   18.2283   19.4568 H   0  0  0  0  0  0  0  0  0  0  0  0
   20.5252   19.6681   21.0832 C   0  0  0  0  0  0  0  0  0  0  0  0
   21.5917   19.8996   21.2121 H   0  0  0  0  0  0  0  0  0  0  0  0
   20.1529   20.3723   20.3269 H   0  0  0  0  0  0  0  0  0  0  0  0
   19.7592   19.9428   22.4010 C   0  0  0  0  0  0  0  0  0  0  0  0
   18.6923   19.7209   22.2617 H   0  0  0  0  0  0  0  0  0  0  0  0
   19.8249   21.0180   22.6170 H   0  0  0  0  0  0  0  0  0  0  0  0
   20.2980   19.1580   23.6186 C   0  0  0  0  0  0  0  0  0  0  0  0
   20.1203   18.0843   23.4783 H   0  0  0  0  0  0  0  0  0  0  0  0
   21.3851   19.2971   23.6954 H   0  0  0  0  0  0  0  0  0  0  0  0
   19.6242   19.6092   24.9327 C   0  0  0  0  0  0  0  0  0  0  0  0
   18.5369   19.4739   24.8522 H   0  0  0  0  0  0  0  0  0  0  0  0
   19.8027   20.6820   25.0883 H   0  0  0  0  0  0  0  0  0  0  0  0
   20.1533   18.8182   26.1475 C   0  0  0  0  0  0  0  0  0  0  0  0
   19.9749   17.7445   25.9963 H   0  0  0  0  0  0  0  0  0  0  0  0
   21.2408   18.9520   26.2313 H   0  0  0  0  0  0  0  0  0  0  0  0
   19.4785   19.2706   27.4581 C   0  0  0  0  0  0  0  0  0  0  0  0
   18.3922   19.1181   27.4135 H   0  0  0  0  0  0  0  0  0  0  0  0
   19.8664   18.6980   28.3106 H   0  0  0  0  0  0  0  0  0  0  0  0
   19.6678   20.3348   27.6504 H   0  0  0  0  0  0  0  0  0  0  0  0
  1  2  1  0  0  0  0
  1  3  2  0  0  0  0
  1  4  1  0  0  0  0
  4  5  1  0  0  0  0
  4  6  1  0  0  0  0
  4  7  1  0  0  0  0
  7  8  1  0  0  0  0
  7  9  1  0  0  0  0
  7 10  1  0  0  0  0
 10 11  1  0  0  0  0
 10 12  1  0  0  0  0
 10 13  1  0  0  0  0
 13 14  1  0  0  0  0
 13 15  1  0  0  0  0
 13 16  1  0  0  0  0
 16 17  1  0  0  0  0
 16 18  1  0  0  0  0
 16 19  1  0  0  0  0
 19 20  1  0  0  0  0
 19 21  1  0  0  0  0
 19 22  1  0  0  0  0
 22 23  1  0  0  0  0
 22 24  1  0  0  0  0
 22 25  1  0  0  0  0
M  END
> <VConfSearch Rank>
335

> <Conf_Id>
9

> <Delta U+W>
1.764

> <U+W>
-49.865

> <U>
10.902

> <W>
-60.768

> <W(PB)>
-63.223

> <W(SA)>
2.456

> <Valence>
9.445

> <Coulomb>
0.778

> <VdW>
0.679

> <VdW6>
-10.007

> <VdW12>
10.687

> <Bond>
0.201

> <Angle>
3.198

> <Pdih>
6.040

> <Idih>
0.006

> <Tether>
0.000

$$$$
VeraChem MOL file


 25 24  0  0  0  0  0  0  0  0999 V2000     
   19.5255   20.4671   26.8284 C   0  0  0  0  0  0  0  0  0  0  0  0
   20.5612   19.9538   27.2030 O   0  5  0  0  0  0  0  0  0  0  0  0
   18.9392   21.3314   27.4497 O   0  0  0  0  0  0  0  0  0  0  0  0
   18.9396   20.0167   25.4951 C   0  0  0  0  0  0  0  0  0  0  0  0
   17.8474   20.0823   25.5666 H   0  0  0  0  0  0  0  0  0  0  0  0
   19.1874   18.9593   25.3609 H   0  0  0  0  0  0  0  0  0  0  0  0
   19.4462   20.8667   24.2999 C   0  0  0  0  0  0  0  0  0  0  0  0
   19.1640   21.9123   24.4858 H   0  0  0  0  0  0  0  0  0  0  0  0
   20.5442   20.8490   24.2615 H   0  0  0  0  0  0  0  0  0  0  0  0
   18.8547   20.4292   22.9357 C   0  0  0  0  0  0  0  0  0  0  0  0
   18.7105   21.3290   22.3221 H   0  0  0  0  0  0  0  0  0  0  0  0
   17.8532   19.9993   23.0744 H   0  0  0  0  0  0  0  0  0  0  0  0
   19.7465   19.4536   22.1274 C   0  0  0  0  0  0  0  0  0  0  0  0
   19.2722   19.2805   21.1519 H   0  0  0  0  0  0  0  0  0  0  0  0
   20.7104   19.9371   21.9210 H   0  0  0  0  0  0  0  0  0  0  0  0
   19.9847   18.0901   22.8182 C   0  0  0  0  0  0  0  0  0  0  0  0
   19.0216   17.6863   23.1585 H   0  0  0  0  0  0  0  0  0  0  0  0
   20.6055   18.2306   23.7127 H   0  0  0  0  0  0  0  0  0  0  0  0
   20.6588   17.0469   21.8968 C   0  0  0  0  0  0  0  0  0  0  0  0
   20.7020   16.0847   22.4254 H   0  0  0  0  0  0  0  0  0  0  0  0
   20.0382   16.8832   21.0050 H   0  0  0  0  0  0  0  0  0  0  0  0
   22.0880   17.4452   21.4688 C   0  0  0  0  0  0  0  0  0  0  0  0
   22.7206   17.6387   22.3449 H   0  0  0  0  0  0  0  0  0  0  0  0
   22.5534   16.6392   20.8869 H   0  0  0  0  0  0  0  0  0  0  0  0
   22.0816   18.3463   20.8429 H   0  0  0  0  0  0  0  0  0  0  0  0
  1  2  1  0  0  0  0
  1  3  2  0  0  0  0
  1  4  1  0  0  0  0
  4  5  1  0  0  0  0
  4  6  1  0  0  0  0
  4  7  1  0  0  0  0
  7  8  1  0  0  0  0
  7  9  1  0  0  0  0
  7 10  1  0  0  0  0
 10 11  1  0  0  0  0
 10 12  1  0  0  0  0
 10 13  1  0  0  0  0
 13 14  1  0  0  0  0
 13 15  1  0  0  0  0
 13 16  1  0  0  0  0
 16 17  1  0  0  0  0
 16 18  1  0  0  0  0
 16 19  1  0  0  0  0
 19 20  1  0  0  0  0
 19 21  1  0  0  0  0
 19 22  1  0  0  0  0
 22 23  1  0  0  0  0
 22 24  1  0  0  0  0
 22 25  1  0  0  0  0
M  END
> <VConfSearch Rank>
336

> <Conf_Id>
89

> <Delta U+W>
2.903

> <U+W>
-48.726

> <U>
10.996

> <W>
-59.723

> <W(PB)>
-62.151

> <W(SA)>
2.428

> <Valence>
10.985

> <Coulomb>
-0.995

> <VdW>
1.006

> <VdW6>
-10.062

> <VdW12>
11.069

> <Bond>
0.238

> <Angle>
3.202

> <Pdih>
7.544

> <Idih>
0.001

> <Tether>
0.000

$$$$
VeraChem MOL file


 25 24  0  0  0  0  0  0  0  0999 V2000     
   18.8003   21.3980   21.2953 C   0  0  0  0  0  0  0  0  0  0  0  0
   18.4800   20.6590   20.3850 O   0  5  0  0  0  0  0  0  0  0  0  0
   18.0028   22.0430   21.9475 O   0  0  0  0  0  0  0  0  0  0  0  0
   20.2888   21.5727   21.5908 C   0  0  0  0  0  0  0  0  0  0  0  0
   20.5249   22.6200   21.3698 H   0  0  0  0  0  0  0  0  0  0  0  0
   20.8668   20.9652   20.8841 H   0  0  0  0  0  0  0  0  0  0  0  0
   20.7176   21.2554   23.0513 C   0  0  0  0  0  0  0  0  0  0  0  0
   21.6705   21.7673   23.2421 H   0  0  0  0  0  0  0  0  0  0  0  0
   19.9958   21.6894   23.7572 H   0  0  0  0  0  0  0  0  0  0  0  0
   20.9227   19.7510   23.3589 C   0  0  0  0  0  0  0  0  0  0  0  0
   21.3827   19.6749   24.3519 H   0  0  0  0  0  0  0  0  0  0  0  0
   21.6452   19.3242   22.6501 H   0  0  0  0  0  0  0  0  0  0  0  0
   19.6172   18.9194   23.3348 C   0  0  0  0  0  0  0  0  0  0  0  0
   18.8698   19.3777   23.9966 H   0  0  0  0  0  0  0  0  0  0  0  0
   19.1936   18.9414   22.3234 H   0  0  0  0  0  0  0  0  0  0  0  0
   19.8216   17.4365   23.7280 C   0  0  0  0  0  0  0  0  0  0  0  0
   20.5927   16.9882   23.0868 H   0  0  0  0  0  0  0  0  0  0  0  0
   18.8903   16.8923   23.5193 H   0  0  0  0  0  0  0  0  0  0  0  0
   20.1938   17.2338   25.2146 C   0  0  0  0  0  0  0  0  0  0  0  0
   21.1642   17.6990   25.4305 H   0  0  0  0  0  0  0  0  0  0  0  0
   19.4507   17.7306   25.8535 H   0  0  0  0  0  0  0  0  0  0  0  0
   20.2644   15.7374   25.5804 C   0  0  0  0  0  0  0  0  0  0  0  0
   21.0200   15.2206   24.9743 H   0  0  0  0  0  0  0  0  0  0  0  0
   20.5325   15.6099   26.6373 H   0  0  0  0  0  0  0  0  0  0  0  0
   19.2968   15.2458   25.4148 H   0  0  0  0  0  0  0  0  0  0  0  0
  1  2  1  0  0  0  0
  1  3  2  0  0  0  0
  1  4  1  0  0  0  0
  4  5  1  0  0  0  0
  4  6  1  0  0  0  0
  4  7  1  0  0  0  0
  7  8  1  0  0  0  0
  7  9  1  0  0  0  0
  7 10  1  0  0  0  0
 10 11  1  0  0  0  0
 10 12  1  0  0  0  0
 10 13  1  0  0  0  0
 13 14  1  0  0  0  0
 13 15  1  0  0  0  0
 13 16  1  0  0  0  0
 16 17  1  0  0  0  0
 16 18  1  0  0  0  0
 16 19  1  0  0  0  0
 19 20  1  0  0  0  0
 19 21  1  0  0  0  0
 19 22  1  0  0  0  0
 22 23  1  0  0  0  0
 22 24  1  0  0  0  0
 22 25  1  0  0  0  0
M  END
> <VConfSearch Rank>
337

> <Conf_Id>
114

> <Delta U+W>
2.758

> <U+W>
-48.871

> <U>
11.422

> <W>
-60.293

> <W(PB)>
-62.719

> <W(SA)>
2.425

> <Valence>
10.135

> <Coulomb>
0.369

> <VdW>
0.918

> <VdW6>
-10.482

> <VdW12>
11.400

> <Bond>
0.245

> <Angle>
3.539

> <Pdih>
6.346

> <Idih>
0.006

> <Tether>
0.000

$$$$
VeraChem MOL file


 25 24  0  0  0  0  0  0  0  0999 V2000     
   20.5587   15.6010   21.8536 C   0  0  0  0  0  0  0  0  0  0  0  0
   21.3653   15.7220   20.9526 O   0  5  0  0  0  0  0  0  0  0  0  0
   20.7307   14.8822   22.8184 O   0  0  0  0  0  0  0  0  0  0  0  0
   19.2482   16.3774   21.7602 C   0  0  0  0  0  0  0  0  0  0  0  0
   18.4378   15.6863   22.0203 H   0  0  0  0  0  0  0  0  0  0  0  0
   19.0903   16.6730   20.7160 H   0  0  0  0  0  0  0  0  0  0  0  0
   19.1862   17.6205   22.6853 C   0  0  0  0  0  0  0  0  0  0  0  0
   18.1715   18.0395   22.6520 H   0  0  0  0  0  0  0  0  0  0  0  0
   19.3647   17.3014   23.7205 H   0  0  0  0  0  0  0  0  0  0  0  0
   20.2039   18.7128   22.2773 C   0  0  0  0  0  0  0  0  0  0  0  0
   20.0664   18.9470   21.2129 H   0  0  0  0  0  0  0  0  0  0  0  0
   21.2276   18.3267   22.3787 H   0  0  0  0  0  0  0  0  0  0  0  0
   20.0645   20.0231   23.0888 C   0  0  0  0  0  0  0  0  0  0  0  0
   20.7200   20.7755   22.6322 H   0  0  0  0  0  0  0  0  0  0  0  0
   19.0391   20.4061   22.9965 H   0  0  0  0  0  0  0  0  0  0  0  0
   20.4306   19.8633   24.5851 C   0  0  0  0  0  0  0  0  0  0  0  0
   21.4547   19.4769   24.6767 H   0  0  0  0  0  0  0  0  0  0  0  0
   19.7729   19.1145   25.0442 H   0  0  0  0  0  0  0  0  0  0  0  0
   20.2983   21.1753   25.3936 C   0  0  0  0  0  0  0  0  0  0  0  0
   19.2780   21.5710   25.2948 H   0  0  0  0  0  0  0  0  0  0  0  0
   20.4402   20.9471   26.4590 H   0  0  0  0  0  0  0  0  0  0  0  0
   21.3189   22.2578   24.9795 C   0  0  0  0  0  0  0  0  0  0  0  0
   21.2464   23.1276   25.6451 H   0  0  0  0  0  0  0  0  0  0  0  0
   22.3453   21.8729   25.0374 H   0  0  0  0  0  0  0  0  0  0  0  0
   21.1395   22.6086   23.9557 H   0  0  0  0  0  0  0  0  0  0  0  0
  1  2  1  0  0  0  0
  1  3  2  0  0  0  0
  1  4  1  0  0  0  0
  4  5  1  0  0  0  0
  4  6  1  0  0  0  0
  4  7  1  0  0  0  0
  7  8  1  0  0  0  0
  7  9  1  0  0  0  0
  7 10  1  0  0  0  0
 10 11  1  0  0  0  0
 10 12  1  0  0  0  0
 10 13  1  0  0  0  0
 13 14  1  0  0  0  0
 13 15  1  0  0  0  0
 13 16  1  0  0  0  0
 16 17  1  0  0  0  0
 16 18  1  0  0  0  0
 16 19  1  0  0  0  0
 19 20  1  0  0  0  0
 19 21  1  0  0  0  0
 19 22  1  0  0  0  0
 22 23  1  0  0  0  0
 22 24  1  0  0  0  0
 22 25  1  0  0  0  0
M  END
> <VConfSearch Rank>
338

> <Conf_Id>
87

> <Delta U+W>
1.453

> <U+W>
-50.176

> <U>
9.763

> <W>
-59.940

> <W(PB)>
-62.392

> <W(SA)>
2.452

> <Valence>
8.883

> <Coulomb>
-0.122

> <VdW>
1.003

> <VdW6>
-9.782

> <VdW12>
10.785

> <Bond>
0.212

> <Angle>
2.940

> <Pdih>
5.730

> <Idih>
0.001

> <Tether>
0.000

$$$$
VeraChem MOL file


 25 24  0  0  0  0  0  0  0  0999 V2000     
   19.5540   22.8842   22.2834 C   0  0  0  0  0  0  0  0  0  0  0  0
   19.7263   23.4643   23.3372 O   0  5  0  0  0  0  0  0  0  0  0  0
   19.8425   23.3549   21.2008 O   0  0  0  0  0  0  0  0  0  0  0  0
   18.9600   21.4808   22.3229 C   0  0  0  0  0  0  0  0  0  0  0  0
   18.3608   21.3389   21.4156 H   0  0  0  0  0  0  0  0  0  0  0  0
   18.2743   21.4249   23.1769 H   0  0  0  0  0  0  0  0  0  0  0  0
   20.0380   20.3744   22.4310 C   0  0  0  0  0  0  0  0  0  0  0  0
   20.7219   20.4480   21.5743 H   0  0  0  0  0  0  0  0  0  0  0  0
   20.6365   20.5489   23.3349 H   0  0  0  0  0  0  0  0  0  0  0  0
   19.4088   18.9628   22.4764 C   0  0  0  0  0  0  0  0  0  0  0  0
   18.7592   18.8328   21.6001 H   0  0  0  0  0  0  0  0  0  0  0  0
   18.7560   18.8749   23.3548 H   0  0  0  0  0  0  0  0  0  0  0  0
   20.4558   17.8208   22.4811 C   0  0  0  0  0  0  0  0  0  0  0  0
   19.9298   16.8575   22.4536 H   0  0  0  0  0  0  0  0  0  0  0  0
   21.0361   17.8687   21.5497 H   0  0  0  0  0  0  0  0  0  0  0  0
   21.4418   17.8306   23.6792 C   0  0  0  0  0  0  0  0  0  0  0  0
   22.0837   18.7188   23.6144 H   0  0  0  0  0  0  0  0  0  0  0  0
   22.1171   16.9696   23.5834 H   0  0  0  0  0  0  0  0  0  0  0  0
   20.7796   17.7911   25.0786 C   0  0  0  0  0  0  0  0  0  0  0  0
   21.5696   17.8276   25.8411 H   0  0  0  0  0  0  0  0  0  0  0  0
   20.1675   18.6897   25.2324 H   0  0  0  0  0  0  0  0  0  0  0  0
   19.9212   16.5291   25.3120 C   0  0  0  0  0  0  0  0  0  0  0  0
   20.5102   15.6175   25.1473 H   0  0  0  0  0  0  0  0  0  0  0  0
   19.5431   16.5066   26.3422 H   0  0  0  0  0  0  0  0  0  0  0  0
   19.0551   16.5061   24.6388 H   0  0  0  0  0  0  0  0  0  0  0  0
  1  2  1  0  0  0  0
  1  3  2  0  0  0  0
  1  4  1  0  0  0  0
  4  5  1  0  0  0  0
  4  6  1  0  0  0  0
  4  7  1  0  0  0  0
  7  8  1  0  0  0  0
  7  9  1  0  0  0  0
  7 10  1  0  0  0  0
 10 11  1  0  0  0  0
 10 12  1  0  0  0  0
 10 13  1  0  0  0  0
 13 14  1  0  0  0  0
 13 15  1  0  0  0  0
 13 16  1  0  0  0  0
 16 17  1  0  0  0  0
 16 18  1  0  0  0  0
 16 19  1  0  0  0  0
 19 20  1  0  0  0  0
 19 21  1  0  0  0  0
 19 22  1  0  0  0  0
 22 23  1  0  0  0  0
 22 24  1  0  0  0  0
 22 25  1  0  0  0  0
M  END
> <VConfSearch Rank>
339

> <Conf_Id>
29

> <Delta U+W>
0.850

> <U+W>
-50.780

> <U>
8.646

> <W>
-59.426

> <W(PB)>
-61.868

> <W(SA)>
2.442

> <Valence>
8.924

> <Coulomb>
-1.171

> <VdW>
0.894

> <VdW6>
-10.223

> <VdW12>
11.117

> <Bond>
0.231

> <Angle>
3.232

> <Pdih>
5.461

> <Idih>
0.001

> <Tether>
0.000

$$$$
VeraChem MOL file


 25 24  0  0  0  0  0  0  0  0999 V2000     
   23.0642   17.9294   21.1683 C   0  0  0  0  0  0  0  0  0  0  0  0
   24.0097   18.3037   21.8336 O   0  5  0  0  0  0  0  0  0  0  0  0
   23.0815   17.8559   19.9554 O   0  0  0  0  0  0  0  0  0  0  0  0
   21.7788   17.5487   21.8942 C   0  0  0  0  0  0  0  0  0  0  0  0
   22.0502   17.1296   22.8705 H   0  0  0  0  0  0  0  0  0  0  0  0
   21.2888   16.7509   21.3233 H   0  0  0  0  0  0  0  0  0  0  0  0
   20.8143   18.7462   22.0770 C   0  0  0  0  0  0  0  0  0  0  0  0
   21.3332   19.5383   22.6329 H   0  0  0  0  0  0  0  0  0  0  0  0
   20.5580   19.1605   21.0922 H   0  0  0  0  0  0  0  0  0  0  0  0
   19.5233   18.3345   22.8218 C   0  0  0  0  0  0  0  0  0  0  0  0
   19.7752   17.9575   23.8217 H   0  0  0  0  0  0  0  0  0  0  0  0
   19.0556   17.4954   22.2889 H   0  0  0  0  0  0  0  0  0  0  0  0
   18.4855   19.4791   22.9358 C   0  0  0  0  0  0  0  0  0  0  0  0
   18.1751   19.7776   21.9254 H   0  0  0  0  0  0  0  0  0  0  0  0
   17.5808   19.0903   23.4212 H   0  0  0  0  0  0  0  0  0  0  0  0
   18.9715   20.7410   23.6969 C   0  0  0  0  0  0  0  0  0  0  0  0
   18.1490   21.4683   23.7291 H   0  0  0  0  0  0  0  0  0  0  0  0
   19.7725   21.2254   23.1232 H   0  0  0  0  0  0  0  0  0  0  0  0
   19.4705   20.4888   25.1410 C   0  0  0  0  0  0  0  0  0  0  0  0
   20.3510   19.8327   25.1273 H   0  0  0  0  0  0  0  0  0  0  0  0
   19.8096   21.4433   25.5662 H   0  0  0  0  0  0  0  0  0  0  0  0
   18.3880   19.8897   26.0648 C   0  0  0  0  0  0  0  0  0  0  0  0
   18.0950   18.8848   25.7358 H   0  0  0  0  0  0  0  0  0  0  0  0
   18.7628   19.8075   27.0931 H   0  0  0  0  0  0  0  0  0  0  0  0
   17.4912   20.5225   26.0805 H   0  0  0  0  0  0  0  0  0  0  0  0
  1  2  1  0  0  0  0
  1  3  2  0  0  0  0
  1  4  1  0  0  0  0
  4  5  1  0  0  0  0
  4  6  1  0  0  0  0
  4  7  1  0  0  0  0
  7  8  1  0  0  0  0
  7  9  1  0  0  0  0
  7 10  1  0  0  0  0
 10 11  1  0  0  0  0
 10 12  1  0  0  0  0
 10 13  1  0  0  0  0
 13 14  1  0  0  0  0
 13 15  1  0  0  0  0
 13 16  1  0  0  0  0
 16 17  1  0  0  0  0
 16 18  1  0  0  0  0
 16 19  1  0  0  0  0
 19 20  1  0  0  0  0
 19 21  1  0  0  0  0
 19 22  1  0  0  0  0
 22 23  1  0  0  0  0
 22 24  1  0  0  0  0
 22 25  1  0  0  0  0
M  END
> <VConfSearch Rank>
340

> <Conf_Id>
30

> <Delta U+W>
0.843

> <U+W>
-50.787

> <U>
8.647

> <W>
-59.434

> <W(PB)>
-61.861

> <W(SA)>
2.428

> <Valence>
8.924

> <Coulomb>
-1.170

> <VdW>
0.894

> <VdW6>
-10.224

> <VdW12>
11.118

> <Bond>
0.231

> <Angle>
3.232

> <Pdih>
5.460

> <Idih>
0.000

> <Tether>
0.000

$$$$
VeraChem MOL file


 25 24  0  0  0  0  0  0  0  0999 V2000     
   23.8489   21.9769   23.2413 C   0  0  0  0  0  0  0  0  0  0  0  0
   23.1876   22.9973   23.2419 O   0  5  0  0  0  0  0  0  0  0  0  0
   25.0637   21.9731   23.2652 O   0  0  0  0  0  0  0  0  0  0  0  0
   23.1473   20.6182   23.2088 C   0  0  0  0  0  0  0  0  0  0  0  0
   23.4811   20.0568   24.0893 H   0  0  0  0  0  0  0  0  0  0  0  0
   23.5157   20.0810   22.3269 H   0  0  0  0  0  0  0  0  0  0  0  0
   21.5967   20.6742   23.1792 C   0  0  0  0  0  0  0  0  0  0  0  0
   21.2347   21.2192   24.0620 H   0  0  0  0  0  0  0  0  0  0  0  0
   21.2693   21.2434   22.2981 H   0  0  0  0  0  0  0  0  0  0  0  0
   20.9714   19.2626   23.1475 C   0  0  0  0  0  0  0  0  0  0  0  0
   21.3001   18.6954   24.0292 H   0  0  0  0  0  0  0  0  0  0  0  0
   21.3347   18.7197   22.2641 H   0  0  0  0  0  0  0  0  0  0  0  0
   19.4289   19.3207   23.1181 C   0  0  0  0  0  0  0  0  0  0  0  0
   19.0653   19.8636   24.0014 H   0  0  0  0  0  0  0  0  0  0  0  0
   19.0999   19.8878   22.2365 H   0  0  0  0  0  0  0  0  0  0  0  0
   18.8031   17.9096   23.0865 C   0  0  0  0  0  0  0  0  0  0  0  0
   19.1319   17.3424   23.9680 H   0  0  0  0  0  0  0  0  0  0  0  0
   19.1665   17.3666   22.2032 H   0  0  0  0  0  0  0  0  0  0  0  0
   17.2613   17.9676   23.0571 C   0  0  0  0  0  0  0  0  0  0  0  0
   16.8940   18.5085   23.9403 H   0  0  0  0  0  0  0  0  0  0  0  0
   16.9285   18.5327   22.1754 H   0  0  0  0  0  0  0  0  0  0  0  0
   16.6402   16.5566   23.0256 C   0  0  0  0  0  0  0  0  0  0  0  0
   16.9313   15.9793   23.9129 H   0  0  0  0  0  0  0  0  0  0  0  0
   15.5442   16.6167   23.0050 H   0  0  0  0  0  0  0  0  0  0  0  0
   16.9661   16.0038   22.1348 H   0  0  0  0  0  0  0  0  0  0  0  0
  1  2  1  0  0  0  0
  1  3  2  0  0  0  0
  1  4  1  0  0  0  0
  4  5  1  0  0  0  0
  4  6  1  0  0  0  0
  4  7  1  0  0  0  0
  7  8  1  0  0  0  0
  7  9  1  0  0  0  0
  7 10  1  0  0  0  0
 10 11  1  0  0  0  0
 10 12  1  0  0  0  0
 10 13  1  0  0  0  0
 13 14  1  0  0  0  0
 13 15  1  0  0  0  0
 13 16  1  0  0  0  0
 16 17  1  0  0  0  0
 16 18  1  0  0  0  0
 16 19  1  0  0  0  0
 19 20  1  0  0  0  0
 19 21  1  0  0  0  0
 19 22  1  0  0  0  0
 22 23  1  0  0  0  0
 22 24  1  0  0  0  0
 22 25  1  0  0  0  0
M  END
> <VConfSearch Rank>
341

> <Conf_Id>
0

> <Delta U+W>
0.000

> <U+W>
-51.629

> <U>
6.586

> <W>
-58.216

> <W(PB)>
-60.757

> <W(SA)>
2.541

> <Valence>
8.027

> <Coulomb>
-2.892

> <VdW>
1.451

> <VdW6>
-7.931

> <VdW12>
9.383

> <Bond>
0.149

> <Angle>
2.726

> <Pdih>
5.152

> <Idih>
0.000

> <Tether>
0.000

$$$$
VeraChem MOL file


 25 24  0  0  0  0  0  0  0  0999 V2000     
   18.5604   22.5604   20.3527 C   0  0  0  0  0  0  0  0  0  0  0  0
   18.3354   23.6101   20.9220 O   0  5  0  0  0  0  0  0  0  0  0  0
   18.9480   22.4872   19.2034 O   0  0  0  0  0  0  0  0  0  0  0  0
   18.3679   21.2639   21.1313 C   0  0  0  0  0  0  0  0  0  0  0  0
   18.0509   20.4867   20.4255 H   0  0  0  0  0  0  0  0  0  0  0  0
   17.5455   21.4120   21.8414 H   0  0  0  0  0  0  0  0  0  0  0  0
   19.6473   20.8166   21.8803 C   0  0  0  0  0  0  0  0  0  0  0  0
   20.4641   20.6856   21.1570 H   0  0  0  0  0  0  0  0  0  0  0  0
   19.9588   21.6109   22.5728 H   0  0  0  0  0  0  0  0  0  0  0  0
   19.4269   19.5026   22.6605 C   0  0  0  0  0  0  0  0  0  0  0  0
   19.1146   18.7109   21.9657 H   0  0  0  0  0  0  0  0  0  0  0  0
   18.6089   19.6365   23.3817 H   0  0  0  0  0  0  0  0  0  0  0  0
   20.7039   19.0593   23.4063 C   0  0  0  0  0  0  0  0  0  0  0  0
   21.5221   18.9252   22.6854 H   0  0  0  0  0  0  0  0  0  0  0  0
   21.0164   19.8508   24.1013 H   0  0  0  0  0  0  0  0  0  0  0  0
   20.4843   17.7453   24.1869 C   0  0  0  0  0  0  0  0  0  0  0  0
   20.1719   16.9535   23.4922 H   0  0  0  0  0  0  0  0  0  0  0  0
   19.6662   17.8790   24.9079 H   0  0  0  0  0  0  0  0  0  0  0  0
   21.7606   17.3021   24.9325 C   0  0  0  0  0  0  0  0  0  0  0  0
   22.5808   17.1655   24.2141 H   0  0  0  0  0  0  0  0  0  0  0  0
   22.0751   18.0910   25.6298 H   0  0  0  0  0  0  0  0  0  0  0  0
   21.5373   15.9897   25.7106 C   0  0  0  0  0  0  0  0  0  0  0  0
   22.4542   15.6896   26.2343 H   0  0  0  0  0  0  0  0  0  0  0  0
   20.7425   16.1072   26.4589 H   0  0  0  0  0  0  0  0  0  0  0  0
   21.2520   15.1747   25.0325 H   0  0  0  0  0  0  0  0  0  0  0  0
  1  2  1  0  0  0  0
  1  3  2  0  0  0  0
  1  4  1  0  0  0  0
  4  5  1  0  0  0  0
  4  6  1  0  0  0  0
  4  7  1  0  0  0  0
  7  8  1  0  0  0  0
  7  9  1  0  0  0  0
  7 10  1  0  0  0  0
 10 11  1  0  0  0  0
 10 12  1  0  0  0  0
 10 13  1  0  0  0  0
 13 14  1  0  0  0  0
 13 15  1  0  0  0  0
 13 16  1  0  0  0  0
 16 17  1  0  0  0  0
 16 18  1  0  0  0  0
 16 19  1  0  0  0  0
 19 20  1  0  0  0  0
 19 21  1  0  0  0  0
 19 22  1  0  0  0  0
 22 23  1  0  0  0  0
 22 24  1  0  0  0  0
 22 25  1  0  0  0  0
M  END
> <VConfSearch Rank>
342

> <Conf_Id>
27

> <Delta U+W>
-1.297

> <U+W>
-52.926

> <U>
5.617

> <W>
-58.543

> <W(PB)>
-61.065

> <W(SA)>
2.522

> <Valence>
7.531

> <Coulomb>
-2.818

> <VdW>
0.904

> <VdW6>
-7.640

> <VdW12>
8.544

> <Bond>
0.115

> <Angle>
2.271

> <Pdih>
5.144

> <Idih>
0.001

> <Tether>
0.000

$$$$
VeraChem MOL file


 25 24  0  0  0  0  0  0  0  0999 V2000     
   20.1314   21.0619   19.8287 C   0  0  0  0  0  0  0  0  0  0  0  0
   21.1468   21.6870   19.5938 O   0  5  0  0  0  0  0  0  0  0  0  0
   19.7707   20.0973   19.1833 O   0  0  0  0  0  0  0  0  0  0  0  0
   19.2538   21.5257   20.9879 C   0  0  0  0  0  0  0  0  0  0  0  0
   18.2499   21.1038   20.8576 H   0  0  0  0  0  0  0  0  0  0  0  0
   19.1535   22.6145   20.9080 H   0  0  0  0  0  0  0  0  0  0  0  0
   19.8119   21.1580   22.3873 C   0  0  0  0  0  0  0  0  0  0  0  0
   20.8279   21.5637   22.4920 H   0  0  0  0  0  0  0  0  0  0  0  0
   19.1964   21.6451   23.1557 H   0  0  0  0  0  0  0  0  0  0  0  0
   19.8286   19.6335   22.6387 C   0  0  0  0  0  0  0  0  0  0  0  0
   20.4570   19.1406   21.8840 H   0  0  0  0  0  0  0  0  0  0  0  0
   18.8134   19.2308   22.5197 H   0  0  0  0  0  0  0  0  0  0  0  0
   20.3574   19.2922   24.0485 C   0  0  0  0  0  0  0  0  0  0  0  0
   21.3726   19.6953   24.1666 H   0  0  0  0  0  0  0  0  0  0  0  0
   19.7287   19.7815   24.8050 H   0  0  0  0  0  0  0  0  0  0  0  0
   20.3752   17.7689   24.3001 C   0  0  0  0  0  0  0  0  0  0  0  0
   21.0038   17.2794   23.5436 H   0  0  0  0  0  0  0  0  0  0  0  0
   19.3601   17.3656   24.1817 H   0  0  0  0  0  0  0  0  0  0  0  0
   20.9042   17.4273   25.7089 C   0  0  0  0  0  0  0  0  0  0  0  0
   21.9203   17.8277   25.8302 H   0  0  0  0  0  0  0  0  0  0  0  0
   20.2765   17.9138   26.4684 H   0  0  0  0  0  0  0  0  0  0  0  0
   20.9204   15.9053   25.9560 C   0  0  0  0  0  0  0  0  0  0  0  0
   21.5667   15.3962   25.2290 H   0  0  0  0  0  0  0  0  0  0  0  0
   21.2990   15.6806   26.9616 H   0  0  0  0  0  0  0  0  0  0  0  0
   19.9105   15.4829   25.8719 H   0  0  0  0  0  0  0  0  0  0  0  0
  1  2  1  0  0  0  0
  1  3  2  0  0  0  0
  1  4  1  0  0  0  0
  4  5  1  0  0  0  0
  4  6  1  0  0  0  0
  4  7  1  0  0  0  0
  7  8  1  0  0  0  0
  7  9  1  0  0  0  0
  7 10  1  0  0  0  0
 10 11  1  0  0  0  0
 10 12  1  0  0  0  0
 10 13  1  0  0  0  0
 13 14  1  0  0  0  0
 13 15  1  0  0  0  0
 13 16  1  0  0  0  0
 16 17  1  0  0  0  0
 16 18  1  0  0  0  0
 16 19  1  0  0  0  0
 19 20  1  0  0  0  0
 19 21  1  0  0  0  0
 19 22  1  0  0  0  0
 22 23  1  0  0  0  0
 22 24  1  0  0  0  0
 22 25  1  0  0  0  0
M  END
> <VConfSearch Rank>
343

> <Conf_Id>
37

> <Delta U+W>
-0.230

> <U+W>
-51.860

> <U>
7.816

> <W>
-59.675

> <W(PB)>
-62.180

> <W(SA)>
2.505

> <Valence>
7.785

> <Coulomb>
-0.713

> <VdW>
0.744

> <VdW6>
-8.514

> <VdW12>
9.259

> <Bond>
0.136

> <Angle>
2.433

> <Pdih>
5.216

> <Idih>
0.000

> <Tether>
0.000

$$$$
VeraChem MOL file


 25 24  0  0  0  0  0  0  0  0999 V2000     
   16.5552   21.1396   22.2493 C   0  0  0  0  0  0  0  0  0  0  0  0
   15.6052   20.8354   22.9435 O   0  5  0  0  0  0  0  0  0  0  0  0
   16.6535   20.8414   21.0753 O   0  0  0  0  0  0  0  0  0  0  0  0
   17.6779   21.9549   22.8848 C   0  0  0  0  0  0  0  0  0  0  0  0
   17.2110   22.7629   23.4603 H   0  0  0  0  0  0  0  0  0  0  0  0
   18.2609   22.4297   22.0863 H   0  0  0  0  0  0  0  0  0  0  0  0
   18.6094   21.1304   23.8107 C   0  0  0  0  0  0  0  0  0  0  0  0
   19.2952   21.8154   24.3276 H   0  0  0  0  0  0  0  0  0  0  0  0
   18.0078   20.6391   24.5880 H   0  0  0  0  0  0  0  0  0  0  0  0
   19.4309   20.0737   23.0385 C   0  0  0  0  0  0  0  0  0  0  0  0
   20.0202   20.5682   22.2542 H   0  0  0  0  0  0  0  0  0  0  0  0
   18.7515   19.3739   22.5325 H   0  0  0  0  0  0  0  0  0  0  0  0
   20.3738   19.2869   23.9742 C   0  0  0  0  0  0  0  0  0  0  0  0
   21.0561   19.9844   24.4792 H   0  0  0  0  0  0  0  0  0  0  0  0
   19.7836   18.7926   24.7581 H   0  0  0  0  0  0  0  0  0  0  0  0
   21.1944   18.2303   23.2035 C   0  0  0  0  0  0  0  0  0  0  0  0
   21.7845   18.7243   22.4194 H   0  0  0  0  0  0  0  0  0  0  0  0
   20.5122   17.5328   22.6984 H   0  0  0  0  0  0  0  0  0  0  0  0
   22.1366   17.4431   24.1384 C   0  0  0  0  0  0  0  0  0  0  0  0
   22.8218   18.1376   24.6441 H   0  0  0  0  0  0  0  0  0  0  0  0
   21.5494   16.9460   24.9230 H   0  0  0  0  0  0  0  0  0  0  0  0
   22.9541   16.3891   23.3649 C   0  0  0  0  0  0  0  0  0  0  0  0
   23.5756   16.8626   22.5936 H   0  0  0  0  0  0  0  0  0  0  0  0
   23.6180   15.8393   24.0446 H   0  0  0  0  0  0  0  0  0  0  0  0
   22.2937   15.6621   22.8745 H   0  0  0  0  0  0  0  0  0  0  0  0
  1  2  1  0  0  0  0
  1  3  2  0  0  0  0
  1  4  1  0  0  0  0
  4  5  1  0  0  0  0
  4  6  1  0  0  0  0
  4  7  1  0  0  0  0
  7  8  1  0  0  0  0
  7  9  1  0  0  0  0
  7 10  1  0  0  0  0
 10 11  1  0  0  0  0
 10 12  1  0  0  0  0
 10 13  1  0  0  0  0
 13 14  1  0  0  0  0
 13 15  1  0  0  0  0
 13 16  1  0  0  0  0
 16 17  1  0  0  0  0
 16 18  1  0  0  0  0
 16 19  1  0  0  0  0
 19 20  1  0  0  0  0
 19 21  1  0  0  0  0
 19 22  1  0  0  0  0
 22 23  1  0  0  0  0
 22 24  1  0  0  0  0
 22 25  1  0  0  0  0
M  END
> <VConfSearch Rank>
344

> <Conf_Id>
54

> <Delta U+W>
-0.224

> <U+W>
-51.854

> <U>
7.816

> <W>
-59.670

> <W(PB)>
-62.157

> <W(SA)>
2.487

> <Valence>
7.785

> <Coulomb>
-0.713

> <VdW>
0.744

> <VdW6>
-8.515

> <VdW12>
9.259

> <Bond>
0.136

> <Angle>
2.433

> <Pdih>
5.215

> <Idih>
0.000

> <Tether>
0.000

$$$$
VeraChem MOL file


 25 24  0  0  0  0  0  0  0  0999 V2000     
   20.8024   23.1165   23.0893 C   0  0  0  0  0  0  0  0  0  0  0  0
   21.8685   23.2220   22.5154 O   0  5  0  0  0  0  0  0  0  0  0  0
   19.8019   23.7268   22.7672 O   0  0  0  0  0  0  0  0  0  0  0  0
   20.7179   22.1810   24.2921 C   0  0  0  0  0  0  0  0  0  0  0  0
   20.1944   22.7209   25.0899 H   0  0  0  0  0  0  0  0  0  0  0  0
   21.7338   21.9844   24.6554 H   0  0  0  0  0  0  0  0  0  0  0  0
   19.9844   20.8451   24.0039 C   0  0  0  0  0  0  0  0  0  0  0  0
   19.8382   20.3179   24.9550 H   0  0  0  0  0  0  0  0  0  0  0  0
   18.9843   21.0587   23.6020 H   0  0  0  0  0  0  0  0  0  0  0  0
   20.7637   19.9404   23.0189 C   0  0  0  0  0  0  0  0  0  0  0  0
   21.7460   19.6900   23.4422 H   0  0  0  0  0  0  0  0  0  0  0  0
   20.9599   20.5013   22.0948 H   0  0  0  0  0  0  0  0  0  0  0  0
   20.0129   18.6397   22.6454 C   0  0  0  0  0  0  0  0  0  0  0  0
   19.0233   18.8900   22.2397 H   0  0  0  0  0  0  0  0  0  0  0  0
   20.5669   18.1508   21.8342 H   0  0  0  0  0  0  0  0  0  0  0  0
   19.8591   17.6526   23.8289 C   0  0  0  0  0  0  0  0  0  0  0  0
   19.2989   18.1367   24.6387 H   0  0  0  0  0  0  0  0  0  0  0  0
   20.8487   17.4066   24.2374 H   0  0  0  0  0  0  0  0  0  0  0  0
   19.1180   16.3491   23.4492 C   0  0  0  0  0  0  0  0  0  0  0  0
   18.9303   15.7722   24.3653 H   0  0  0  0  0  0  0  0  0  0  0  0
   18.1323   16.5916   23.0284 H   0  0  0  0  0  0  0  0  0  0  0  0
   19.9031   15.4620   22.4584 C   0  0  0  0  0  0  0  0  0  0  0  0
   20.0106   15.9487   21.4813 H   0  0  0  0  0  0  0  0  0  0  0  0
   20.9059   15.2355   22.8433 H   0  0  0  0  0  0  0  0  0  0  0  0
   19.3800   14.5103   22.2986 H   0  0  0  0  0  0  0  0  0  0  0  0
  1  2  1  0  0  0  0
  1  3  2  0  0  0  0
  1  4  1  0  0  0  0
  4  5  1  0  0  0  0
  4  6  1  0  0  0  0
  4  7  1  0  0  0  0
  7  8  1  0  0  0  0
  7  9  1  0  0  0  0
  7 10  1  0  0  0  0
 10 11  1  0  0  0  0
 10 12  1  0  0  0  0
 10 13  1  0  0  0  0
 13 14  1  0  0  0  0
 13 15  1  0  0  0  0
 13 16  1  0  0  0  0
 16 17  1  0  0  0  0
 16 18  1  0  0  0  0
 16 19  1  0  0  0  0
 19 20  1  0  0  0  0
 19 21  1  0  0  0  0
 19 22  1  0  0  0  0
 22 23  1  0  0  0  0
 22 24  1  0  0  0  0
 22 25  1  0  0  0  0
M  END
> <VConfSearch Rank>
345

> <Conf_Id>
101

> <Delta U+W>
1.534

> <U+W>
-50.095

> <U>
9.416

> <W>
-59.512

> <W(PB)>
-61.988

> <W(SA)>
2.476

> <Valence>
8.939

> <Coulomb>
-0.615

> <VdW>
1.092

> <VdW6>
-9.710

> <VdW12>
10.802

> <Bond>
0.216

> <Angle>
2.979

> <Pdih>
5.743

> <Idih>
0.000

> <Tether>
0.000

$$$$
VeraChem MOL file


 25 24  0  0  0  0  0  0  0  0999 V2000     
   21.8636   17.3977   26.6150 C   0  0  0  0  0  0  0  0  0  0  0  0
   21.7310   16.1957   26.4953 O   0  5  0  0  0  0  0  0  0  0  0  0
   22.6983   17.9147   27.3310 O   0  0  0  0  0  0  0  0  0  0  0  0
   20.9472   18.3076   25.8048 C   0  0  0  0  0  0  0  0  0  0  0  0
   20.7836   19.2258   26.3815 H   0  0  0  0  0  0  0  0  0  0  0  0
   19.9783   17.8048   25.7109 H   0  0  0  0  0  0  0  0  0  0  0  0
   21.5258   18.6495   24.4070 C   0  0  0  0  0  0  0  0  0  0  0  0
   22.5366   19.0606   24.5366 H   0  0  0  0  0  0  0  0  0  0  0  0
   21.6394   17.7274   23.8203 H   0  0  0  0  0  0  0  0  0  0  0  0
   20.6750   19.6714   23.6154 C   0  0  0  0  0  0  0  0  0  0  0  0
   21.2353   19.9526   22.7146 H   0  0  0  0  0  0  0  0  0  0  0  0
   20.5545   20.5886   24.2078 H   0  0  0  0  0  0  0  0  0  0  0  0
   19.2846   19.1275   23.2042 C   0  0  0  0  0  0  0  0  0  0  0  0
   19.4050   18.2114   22.6116 H   0  0  0  0  0  0  0  0  0  0  0  0
   18.7256   18.8376   24.1026 H   0  0  0  0  0  0  0  0  0  0  0  0
   18.4251   20.1540   22.4232 C   0  0  0  0  0  0  0  0  0  0  0  0
   18.2430   21.0265   23.0653 H   0  0  0  0  0  0  0  0  0  0  0  0
   17.4391   19.7100   22.2297 H   0  0  0  0  0  0  0  0  0  0  0  0
   19.0236   20.6400   21.0797 C   0  0  0  0  0  0  0  0  0  0  0  0
   18.3281   21.3609   20.6285 H   0  0  0  0  0  0  0  0  0  0  0  0
   19.9566   21.1910   21.2565 H   0  0  0  0  0  0  0  0  0  0  0  0
   19.2760   19.4973   20.0724 C   0  0  0  0  0  0  0  0  0  0  0  0
   18.3605   18.9171   19.8988 H   0  0  0  0  0  0  0  0  0  0  0  0
   19.6088   19.9018   19.1079 H   0  0  0  0  0  0  0  0  0  0  0  0
   20.0550   18.8135   20.4327 H   0  0  0  0  0  0  0  0  0  0  0  0
  1  2  1  0  0  0  0
  1  3  2  0  0  0  0
  1  4  1  0  0  0  0
  4  5  1  0  0  0  0
  4  6  1  0  0  0  0
  4  7  1  0  0  0  0
  7  8  1  0  0  0  0
  7  9  1  0  0  0  0
  7 10  1  0  0  0  0
 10 11  1  0  0  0  0
 10 12  1  0  0  0  0
 10 13  1  0  0  0  0
 13 14  1  0  0  0  0
 13 15  1  0  0  0  0
 13 16  1  0  0  0  0
 16 17  1  0  0  0  0
 16 18  1  0  0  0  0
 16 19  1  0  0  0  0
 19 20  1  0  0  0  0
 19 21  1  0  0  0  0
 19 22  1  0  0  0  0
 22 23  1  0  0  0  0
 22 24  1  0  0  0  0
 22 25  1  0  0  0  0
M  END
> <VConfSearch Rank>
346

> <Conf_Id>
75

> <Delta U+W>
1.014

> <U+W>
-50.615

> <U>
8.474

> <W>
-59.089

> <W(PB)>
-61.530

> <W(SA)>
2.441

> <Valence>
9.080

> <Coulomb>
-1.772

> <VdW>
1.165

> <VdW6>
-9.830

> <VdW12>
10.996

> <Bond>
0.240

> <Angle>
3.225

> <Pdih>
5.615

> <Idih>
0.001

> <Tether>
0.000

$$$$
VeraChem MOL file


 25 24  0  0  0  0  0  0  0  0999 V2000     
   21.2754   18.5120   27.2945 C   0  0  0  0  0  0  0  0  0  0  0  0
   22.2913   17.8454   27.2857 O   0  5  0  0  0  0  0  0  0  0  0  0
   20.9699   19.2620   28.2005 O   0  0  0  0  0  0  0  0  0  0  0  0
   20.3427   18.4184   26.0922 C   0  0  0  0  0  0  0  0  0  0  0  0
   19.3151   18.5651   26.4460 H   0  0  0  0  0  0  0  0  0  0  0  0
   20.4054   17.3997   25.6910 H   0  0  0  0  0  0  0  0  0  0  0  0
   20.6801   19.4497   24.9874 C   0  0  0  0  0  0  0  0  0  0  0  0
   20.6256   20.4634   25.4080 H   0  0  0  0  0  0  0  0  0  0  0  0
   21.7160   19.2979   24.6536 H   0  0  0  0  0  0  0  0  0  0  0  0
   19.7233   19.3337   23.7811 C   0  0  0  0  0  0  0  0  0  0  0  0
   18.6893   19.4857   24.1194 H   0  0  0  0  0  0  0  0  0  0  0  0
   19.7747   18.3169   23.3741 H   0  0  0  0  0  0  0  0  0  0  0  0
   20.0607   20.3697   22.6831 C   0  0  0  0  0  0  0  0  0  0  0  0
   19.9676   21.3734   23.1199 H   0  0  0  0  0  0  0  0  0  0  0  0
   21.1088   20.2681   22.3702 H   0  0  0  0  0  0  0  0  0  0  0  0
   19.1271   20.2829   21.4488 C   0  0  0  0  0  0  0  0  0  0  0  0
   18.9575   21.3026   21.0768 H   0  0  0  0  0  0  0  0  0  0  0  0
   18.1388   19.9050   21.7442 H   0  0  0  0  0  0  0  0  0  0  0  0
   19.6869   19.4454   20.2723 C   0  0  0  0  0  0  0  0  0  0  0  0
   18.9872   19.5189   19.4284 H   0  0  0  0  0  0  0  0  0  0  0  0
   20.6329   19.8838   19.9258 H   0  0  0  0  0  0  0  0  0  0  0  0
   19.9052   17.9547   20.6046 C   0  0  0  0  0  0  0  0  0  0  0  0
   18.9927   17.5049   21.0168 H   0  0  0  0  0  0  0  0  0  0  0  0
   20.1799   17.3961   19.7006 H   0  0  0  0  0  0  0  0  0  0  0  0
   20.7171   17.8264   21.3313 H   0  0  0  0  0  0  0  0  0  0  0  0
  1  2  1  0  0  0  0
  1  3  2  0  0  0  0
  1  4  1  0  0  0  0
  4  5  1  0  0  0  0
  4  6  1  0  0  0  0
  4  7  1  0  0  0  0
  7  8  1  0  0  0  0
  7  9  1  0  0  0  0
  7 10  1  0  0  0  0
 10 11  1  0  0  0  0
 10 12  1  0  0  0  0
 10 13  1  0  0  0  0
 13 14  1  0  0  0  0
 13 15  1  0  0  0  0
 13 16  1  0  0  0  0
 16 17  1  0  0  0  0
 16 18  1  0  0  0  0
 16 19  1  0  0  0  0
 19 20  1  0  0  0  0
 19 21  1  0  0  0  0
 19 22  1  0  0  0  0
 22 23  1  0  0  0  0
 22 24  1  0  0  0  0
 22 25  1  0  0  0  0
M  END
> <VConfSearch Rank>
347

> <Conf_Id>
125

> <Delta U+W>
2.314

> <U+W>
-49.315

> <U>
9.740

> <W>
-59.054

> <W(PB)>
-61.488

> <W(SA)>
2.433

> <Valence>
10.506

> <Coulomb>
-1.761

> <VdW>
0.994

> <VdW6>
-9.209

> <VdW12>
10.203

> <Bond>
0.193

> <Angle>
2.979

> <Pdih>
7.334

> <Idih>
0.001

> <Tether>
0.000

$$$$
VeraChem MOL file


 25 24  0  0  0  0  0  0  0  0999 V2000     
   16.0951   19.3125   24.0806 C   0  0  0  0  0  0  0  0  0  0  0  0
   15.5718   19.5898   23.0195 O   0  5  0  0  0  0  0  0  0  0  0  0
   15.4941   19.2666   25.1359 O   0  0  0  0  0  0  0  0  0  0  0  0
   17.5932   19.0303   24.0928 C   0  0  0  0  0  0  0  0  0  0  0  0
   17.8495   18.5524   23.1406 H   0  0  0  0  0  0  0  0  0  0  0  0
   17.7957   18.3026   24.8877 H   0  0  0  0  0  0  0  0  0  0  0  0
   18.4426   20.3097   24.3092 C   0  0  0  0  0  0  0  0  0  0  0  0
   18.2664   21.0112   23.4821 H   0  0  0  0  0  0  0  0  0  0  0  0
   18.0951   20.8132   25.2220 H   0  0  0  0  0  0  0  0  0  0  0  0
   19.9584   20.0301   24.4439 C   0  0  0  0  0  0  0  0  0  0  0  0
   20.1320   19.3361   25.2777 H   0  0  0  0  0  0  0  0  0  0  0  0
   20.4629   20.9689   24.7108 H   0  0  0  0  0  0  0  0  0  0  0  0
   20.5966   19.4643   23.1541 C   0  0  0  0  0  0  0  0  0  0  0  0
   20.1462   18.4930   22.9169 H   0  0  0  0  0  0  0  0  0  0  0  0
   20.3791   20.1354   22.3121 H   0  0  0  0  0  0  0  0  0  0  0  0
   22.1272   19.2999   23.3009 C   0  0  0  0  0  0  0  0  0  0  0  0
   22.3471   18.5925   24.1122 H   0  0  0  0  0  0  0  0  0  0  0  0
   22.5634   20.2625   23.6007 H   0  0  0  0  0  0  0  0  0  0  0  0
   22.8229   18.8299   22.0021 C   0  0  0  0  0  0  0  0  0  0  0  0
   22.6095   19.5383   21.1896 H   0  0  0  0  0  0  0  0  0  0  0  0
   23.9105   18.8538   22.1566 H   0  0  0  0  0  0  0  0  0  0  0  0
   22.4138   17.4050   21.5698 C   0  0  0  0  0  0  0  0  0  0  0  0
   21.3538   17.3596   21.2906 H   0  0  0  0  0  0  0  0  0  0  0  0
   23.0003   17.0850   20.6988 H   0  0  0  0  0  0  0  0  0  0  0  0
   22.5887   16.6836   22.3785 H   0  0  0  0  0  0  0  0  0  0  0  0
  1  2  1  0  0  0  0
  1  3  2  0  0  0  0
  1  4  1  0  0  0  0
  4  5  1  0  0  0  0
  4  6  1  0  0  0  0
  4  7  1  0  0  0  0
  7  8  1  0  0  0  0
  7  9  1  0  0  0  0
  7 10  1  0  0  0  0
 10 11  1  0  0  0  0
 10 12  1  0  0  0  0
 10 13  1  0  0  0  0
 13 14  1  0  0  0  0
 13 15  1  0  0  0  0
 13 16  1  0  0  0  0
 16 17  1  0  0  0  0
 16 18  1  0  0  0  0
 16 19  1  0  0  0  0
 19 20  1  0  0  0  0
 19 21  1  0  0  0  0
 19 22  1  0  0  0  0
 22 23  1  0  0  0  0
 22 24  1  0  0  0  0
 22 25  1  0  0  0  0
M  END
> <VConfSearch Rank>
348

> <Conf_Id>
4

> <Delta U+W>
0.189

> <U+W>
-51.441

> <U>
7.701

> <W>
-59.141

> <W(PB)>
-61.609

> <W(SA)>
2.467

> <Valence>
8.550

> <Coulomb>
-1.988

> <VdW>
1.139

> <VdW6>
-8.988

> <VdW12>
10.127

> <Bond>
0.191

> <Angle>
2.738

> <Pdih>
5.621

> <Idih>
0.001

> <Tether>
0.000

$$$$
VeraChem MOL file


 25 24  0  0  0  0  0  0  0  0999 V2000     
   22.1379   22.4517   21.9545 C   0  0  0  0  0  0  0  0  0  0  0  0
   22.4601   23.0636   22.9538 O   0  5  0  0  0  0  0  0  0  0  0  0
   22.5313   22.7297   20.8389 O   0  0  0  0  0  0  0  0  0  0  0  0
   21.2073   21.2545   22.1120 C   0  0  0  0  0  0  0  0  0  0  0  0
   20.5970   21.1765   21.2043 H   0  0  0  0  0  0  0  0  0  0  0  0
   20.5275   21.4687   22.9442 H   0  0  0  0  0  0  0  0  0  0  0  0
   21.9729   19.9284   22.3579 C   0  0  0  0  0  0  0  0  0  0  0  0
   22.7109   19.7934   21.5551 H   0  0  0  0  0  0  0  0  0  0  0  0
   22.5432   20.0022   23.2941 H   0  0  0  0  0  0  0  0  0  0  0  0
   21.0550   18.6834   22.4016 C   0  0  0  0  0  0  0  0  0  0  0  0
   21.6874   17.7870   22.4601 H   0  0  0  0  0  0  0  0  0  0  0  0
   20.4936   18.6069   21.4604 H   0  0  0  0  0  0  0  0  0  0  0  0
   20.0722   18.6854   23.5954 C   0  0  0  0  0  0  0  0  0  0  0  0
   20.6323   18.8121   24.5317 H   0  0  0  0  0  0  0  0  0  0  0  0
   19.3909   19.5404   23.5089 H   0  0  0  0  0  0  0  0  0  0  0  0
   19.2505   17.3769   23.6586 C   0  0  0  0  0  0  0  0  0  0  0  0
   19.9401   16.5220   23.6809 H   0  0  0  0  0  0  0  0  0  0  0  0
   18.6530   17.2708   22.7428 H   0  0  0  0  0  0  0  0  0  0  0  0
   18.3238   17.2913   24.8937 C   0  0  0  0  0  0  0  0  0  0  0  0
   17.8710   16.2908   24.9257 H   0  0  0  0  0  0  0  0  0  0  0  0
   18.9190   17.3919   25.8119 H   0  0  0  0  0  0  0  0  0  0  0  0
   17.1965   18.3467   24.8873 C   0  0  0  0  0  0  0  0  0  0  0  0
   16.6068   18.2862   23.9633 H   0  0  0  0  0  0  0  0  0  0  0  0
   16.5159   18.1864   25.7335 H   0  0  0  0  0  0  0  0  0  0  0  0
   17.5989   19.3637   24.9734 H   0  0  0  0  0  0  0  0  0  0  0  0
  1  2  1  0  0  0  0
  1  3  2  0  0  0  0
  1  4  1  0  0  0  0
  4  5  1  0  0  0  0
  4  6  1  0  0  0  0
  4  7  1  0  0  0  0
  7  8  1  0  0  0  0
  7  9  1  0  0  0  0
  7 10  1  0  0  0  0
 10 11  1  0  0  0  0
 10 12  1  0  0  0  0
 10 13  1  0  0  0  0
 13 14  1  0  0  0  0
 13 15  1  0  0  0  0
 13 16  1  0  0  0  0
 16 17  1  0  0  0  0
 16 18  1  0  0  0  0
 16 19  1  0  0  0  0
 19 20  1  0  0  0  0
 19 21  1  0  0  0  0
 19 22  1  0  0  0  0
 22 23  1  0  0  0  0
 22 24  1  0  0  0  0
 22 25  1  0  0  0  0
M  END
> <VConfSearch Rank>
349

> <Conf_Id>
17

> <Delta U+W>
0.219

> <U+W>
-51.411

> <U>
7.701

> <W>
-59.111

> <W(PB)>
-61.599

> <W(SA)>
2.488

> <Valence>
8.550

> <Coulomb>
-1.988

> <VdW>
1.139

> <VdW6>
-8.988

> <VdW12>
10.127

> <Bond>
0.191

> <Angle>
2.738

> <Pdih>
5.621

> <Idih>
0.001

> <Tether>
0.000

$$$$
VeraChem MOL file


 25 24  0  0  0  0  0  0  0  0999 V2000     
   19.0522   17.2098   20.4024 C   0  0  0  0  0  0  0  0  0  0  0  0
   20.0106   16.5639   20.0266 O   0  5  0  0  0  0  0  0  0  0  0  0
   18.5184   18.0728   19.7336 O   0  0  0  0  0  0  0  0  0  0  0  0
   18.4734   16.9087   21.7820 C   0  0  0  0  0  0  0  0  0  0  0  0
   18.8080   15.9114   22.0919 H   0  0  0  0  0  0  0  0  0  0  0  0
   17.3832   16.8592   21.6771 H   0  0  0  0  0  0  0  0  0  0  0  0
   18.8429   17.9585   22.8620 C   0  0  0  0  0  0  0  0  0  0  0  0
   18.5156   18.9496   22.5209 H   0  0  0  0  0  0  0  0  0  0  0  0
   18.2832   17.7375   23.7807 H   0  0  0  0  0  0  0  0  0  0  0  0
   20.3578   17.9746   23.1778 C   0  0  0  0  0  0  0  0  0  0  0  0
   20.9229   18.2643   22.2812 H   0  0  0  0  0  0  0  0  0  0  0  0
   20.6805   16.9554   23.4306 H   0  0  0  0  0  0  0  0  0  0  0  0
   20.7330   18.9135   24.3489 C   0  0  0  0  0  0  0  0  0  0  0  0
   20.1756   18.6202   25.2491 H   0  0  0  0  0  0  0  0  0  0  0  0
   21.7970   18.7704   24.5820 H   0  0  0  0  0  0  0  0  0  0  0  0
   20.4823   20.4086   24.0443 C   0  0  0  0  0  0  0  0  0  0  0  0
   19.4108   20.5837   23.8829 H   0  0  0  0  0  0  0  0  0  0  0  0
   20.9964   20.6847   23.1135 H   0  0  0  0  0  0  0  0  0  0  0  0
   20.9740   21.3149   25.1926 C   0  0  0  0  0  0  0  0  0  0  0  0
   20.4629   21.0400   26.1257 H   0  0  0  0  0  0  0  0  0  0  0  0
   22.0485   21.1544   25.3578 H   0  0  0  0  0  0  0  0  0  0  0  0
   20.7200   22.8052   24.8889 C   0  0  0  0  0  0  0  0  0  0  0  0
   19.6486   23.0009   24.7509 H   0  0  0  0  0  0  0  0  0  0  0  0
   21.0759   23.4345   25.7150 H   0  0  0  0  0  0  0  0  0  0  0  0
   21.2455   23.1150   23.9761 H   0  0  0  0  0  0  0  0  0  0  0  0
  1  2  1  0  0  0  0
  1  3  2  0  0  0  0
  1  4  1  0  0  0  0
  4  5  1  0  0  0  0
  4  6  1  0  0  0  0
  4  7  1  0  0  0  0
  7  8  1  0  0  0  0
  7  9  1  0  0  0  0
  7 10  1  0  0  0  0
 10 11  1  0  0  0  0
 10 12  1  0  0  0  0
 10 13  1  0  0  0  0
 13 14  1  0  0  0  0
 13 15  1  0  0  0  0
 13 16  1  0  0  0  0
 16 17  1  0  0  0  0
 16 18  1  0  0  0  0
 16 19  1  0  0  0  0
 19 20  1  0  0  0  0
 19 21  1  0  0  0  0
 19 22  1  0  0  0  0
 22 23  1  0  0  0  0
 22 24  1  0  0  0  0
 22 25  1  0  0  0  0
M  END
> <VConfSearch Rank>
350

> <Conf_Id>
142

> <Delta U+W>
0.593

> <U+W>
-51.037

> <U>
8.903

> <W>
-59.940

> <W(PB)>
-62.418

> <W(SA)>
2.478

> <Valence>
8.305

> <Coulomb>
-0.223

> <VdW>
0.821

> <VdW6>
-9.236

> <VdW12>
10.057

> <Bond>
0.173

> <Angle>
2.663

> <Pdih>
5.469

> <Idih>
0.001

> <Tether>
0.000

$$$$
VeraChem MOL file


 25 24  0  0  0  0  0  0  0  0999 V2000     
   18.2176   21.0726   25.5791 C   0  0  0  0  0  0  0  0  0  0  0  0
   17.9977   21.1874   26.7691 O   0  5  0  0  0  0  0  0  0  0  0  0
   18.3304   22.0169   24.8224 O   0  0  0  0  0  0  0  0  0  0  0  0
   18.3301   19.6643   25.0019 C   0  0  0  0  0  0  0  0  0  0  0  0
   18.2477   19.7242   23.9106 H   0  0  0  0  0  0  0  0  0  0  0  0
   17.4575   19.0988   25.3487 H   0  0  0  0  0  0  0  0  0  0  0  0
   19.6261   18.9129   25.4118 C   0  0  0  0  0  0  0  0  0  0  0  0
   19.6424   18.8105   26.5056 H   0  0  0  0  0  0  0  0  0  0  0  0
   19.5919   17.8901   25.0149 H   0  0  0  0  0  0  0  0  0  0  0  0
   20.9381   19.6047   24.9594 C   0  0  0  0  0  0  0  0  0  0  0  0
   21.7905   19.0021   25.3013 H   0  0  0  0  0  0  0  0  0  0  0  0
   21.0277   20.5719   25.4729 H   0  0  0  0  0  0  0  0  0  0  0  0
   21.0702   19.8405   23.4339 C   0  0  0  0  0  0  0  0  0  0  0  0
   20.2889   20.5336   23.0941 H   0  0  0  0  0  0  0  0  0  0  0  0
   22.0266   20.3464   23.2446 H   0  0  0  0  0  0  0  0  0  0  0  0
   21.0162   18.5394   22.6002 C   0  0  0  0  0  0  0  0  0  0  0  0
   20.0370   18.0585   22.7220 H   0  0  0  0  0  0  0  0  0  0  0  0
   21.7703   17.8330   22.9731 H   0  0  0  0  0  0  0  0  0  0  0  0
   21.2609   18.8120   21.1012 C   0  0  0  0  0  0  0  0  0  0  0  0
   20.5091   19.5206   20.7268 H   0  0  0  0  0  0  0  0  0  0  0  0
   22.2426   19.2868   20.9659 H   0  0  0  0  0  0  0  0  0  0  0  0
   21.2008   17.5144   20.2704 C   0  0  0  0  0  0  0  0  0  0  0  0
   20.2174   17.0348   20.3617 H   0  0  0  0  0  0  0  0  0  0  0  0
   21.3770   17.7267   19.2078 H   0  0  0  0  0  0  0  0  0  0  0  0
   21.9636   16.7988   20.6041 H   0  0  0  0  0  0  0  0  0  0  0  0
  1  2  1  0  0  0  0
  1  3  2  0  0  0  0
  1  4  1  0  0  0  0
  4  5  1  0  0  0  0
  4  6  1  0  0  0  0
  4  7  1  0  0  0  0
  7  8  1  0  0  0  0
  7  9  1  0  0  0  0
  7 10  1  0  0  0  0
 10 11  1  0  0  0  0
 10 12  1  0  0  0  0
 10 13  1  0  0  0  0
 13 14  1  0  0  0  0
 13 15  1  0  0  0  0
 13 16  1  0  0  0  0
 16 17  1  0  0  0  0
 16 18  1  0  0  0  0
 16 19  1  0  0  0  0
 19 20  1  0  0  0  0
 19 21  1  0  0  0  0
 19 22  1  0  0  0  0
 22 23  1  0  0  0  0
 22 24  1  0  0  0  0
 22 25  1  0  0  0  0
M  END
> <VConfSearch Rank>
351

> <Conf_Id>
135

> <Delta U+W>
1.314

> <U+W>
-50.316

> <U>
9.773

> <W>
-60.088

> <W(PB)>
-62.535

> <W(SA)>
2.447

> <Valence>
8.741

> <Coulomb>
0.479

> <VdW>
0.552

> <VdW6>
-10.627

> <VdW12>
11.179

> <Bond>
0.227

> <Angle>
3.155

> <Pdih>
5.358

> <Idih>
0.001

> <Tether>
0.000

$$$$
VeraChem MOL file


 25 24  0  0  0  0  0  0  0  0999 V2000     
   16.0096   20.1944   23.5658 C   0  0  0  0  0  0  0  0  0  0  0  0
   15.2634   19.2812   23.2725 O   0  5  0  0  0  0  0  0  0  0  0  0
   15.6695   21.1553   24.2274 O   0  0  0  0  0  0  0  0  0  0  0  0
   17.4583   20.1195   23.0971 C   0  0  0  0  0  0  0  0  0  0  0  0
   17.8146   21.1429   22.9299 H   0  0  0  0  0  0  0  0  0  0  0  0
   17.4678   19.6091   22.1278 H   0  0  0  0  0  0  0  0  0  0  0  0
   18.3790   19.3914   24.1111 C   0  0  0  0  0  0  0  0  0  0  0  0
   18.2675   19.8722   25.0929 H   0  0  0  0  0  0  0  0  0  0  0  0
   18.0422   18.3529   24.2350 H   0  0  0  0  0  0  0  0  0  0  0  0
   19.8758   19.4136   23.7186 C   0  0  0  0  0  0  0  0  0  0  0  0
   20.4513   19.0174   24.5646 H   0  0  0  0  0  0  0  0  0  0  0  0
   20.2039   20.4514   23.5707 H   0  0  0  0  0  0  0  0  0  0  0  0
   20.1949   18.5766   22.4568 C   0  0  0  0  0  0  0  0  0  0  0  0
   19.9181   17.5287   22.6351 H   0  0  0  0  0  0  0  0  0  0  0  0
   19.5741   18.9215   21.6207 H   0  0  0  0  0  0  0  0  0  0  0  0
   21.6757   18.6476   22.0055 C   0  0  0  0  0  0  0  0  0  0  0  0
   21.9371   19.6796   21.7342 H   0  0  0  0  0  0  0  0  0  0  0  0
   21.7666   18.0642   21.0791 H   0  0  0  0  0  0  0  0  0  0  0  0
   22.6947   18.0873   23.0292 C   0  0  0  0  0  0  0  0  0  0  0  0
   22.2166   17.3336   23.6700 H   0  0  0  0  0  0  0  0  0  0  0  0
   23.4901   17.5623   22.4824 H   0  0  0  0  0  0  0  0  0  0  0  0
   23.3541   19.1855   23.8933 C   0  0  0  0  0  0  0  0  0  0  0  0
   22.6139   19.7460   24.4756 H   0  0  0  0  0  0  0  0  0  0  0  0
   24.0695   18.7420   24.5978 H   0  0  0  0  0  0  0  0  0  0  0  0
   23.9012   19.9000   23.2648 H   0  0  0  0  0  0  0  0  0  0  0  0
  1  2  1  0  0  0  0
  1  3  2  0  0  0  0
  1  4  1  0  0  0  0
  4  5  1  0  0  0  0
  4  6  1  0  0  0  0
  4  7  1  0  0  0  0
  7  8  1  0  0  0  0
  7  9  1  0  0  0  0
  7 10  1  0  0  0  0
 10 11  1  0  0  0  0
 10 12  1  0  0  0  0
 10 13  1  0  0  0  0
 13 14  1  0  0  0  0
 13 15  1  0  0  0  0
 13 16  1  0  0  0  0
 16 17  1  0  0  0  0
 16 18  1  0  0  0  0
 16 19  1  0  0  0  0
 19 20  1  0  0  0  0
 19 21  1  0  0  0  0
 19 22  1  0  0  0  0
 22 23  1  0  0  0  0
 22 24  1  0  0  0  0
 22 25  1  0  0  0  0
M  END
> <VConfSearch Rank>
352

> <Conf_Id>
19

> <Delta U+W>
3.222

> <U+W>
-48.407

> <U>
10.617

> <W>
-59.025

> <W(PB)>
-61.462

> <W(SA)>
2.437

> <Valence>
11.188

> <Coulomb>
-1.778

> <VdW>
1.208

> <VdW6>
-9.786

> <VdW12>
10.993

> <Bond>
0.241

> <Angle>
3.294

> <Pdih>
7.653

> <Idih>
0.001

> <Tether>
0.000

$$$$
VeraChem MOL file


 25 24  0  0  0  0  0  0  0  0999 V2000     
   16.3656   18.4241   21.4544 C   0  0  0  0  0  0  0  0  0  0  0  0
   15.4169   18.7115   22.1573 O   0  5  0  0  0  0  0  0  0  0  0  0
   16.2972   17.6626   20.5099 O   0  0  0  0  0  0  0  0  0  0  0  0
   17.7217   19.0345   21.7901 C   0  0  0  0  0  0  0  0  0  0  0  0
   17.5435   20.0356   22.1976 H   0  0  0  0  0  0  0  0  0  0  0  0
   18.2796   19.1582   20.8543 H   0  0  0  0  0  0  0  0  0  0  0  0
   18.5365   18.1713   22.7886 C   0  0  0  0  0  0  0  0  0  0  0  0
   17.9909   18.0936   23.7391 H   0  0  0  0  0  0  0  0  0  0  0  0
   18.6098   17.1501   22.3894 H   0  0  0  0  0  0  0  0  0  0  0  0
   19.9665   18.7034   23.0471 C   0  0  0  0  0  0  0  0  0  0  0  0
   20.5015   18.8041   22.0931 H   0  0  0  0  0  0  0  0  0  0  0  0
   20.5052   17.9488   23.6338 H   0  0  0  0  0  0  0  0  0  0  0  0
   19.9951   20.0492   23.8103 C   0  0  0  0  0  0  0  0  0  0  0  0
   19.4018   20.7934   23.2648 H   0  0  0  0  0  0  0  0  0  0  0  0
   19.5100   19.9239   24.7879 H   0  0  0  0  0  0  0  0  0  0  0  0
   21.4157   20.6343   24.0125 C   0  0  0  0  0  0  0  0  0  0  0  0
   21.3041   21.6062   24.5123 H   0  0  0  0  0  0  0  0  0  0  0  0
   21.8750   20.8516   23.0384 H   0  0  0  0  0  0  0  0  0  0  0  0
   22.3637   19.7583   24.8694 C   0  0  0  0  0  0  0  0  0  0  0  0
   22.9795   20.4170   25.4972 H   0  0  0  0  0  0  0  0  0  0  0  0
   21.7834   19.1326   25.5614 H   0  0  0  0  0  0  0  0  0  0  0  0
   23.3130   18.8822   24.0217 C   0  0  0  0  0  0  0  0  0  0  0  0
   23.9529   19.5053   23.3836 H   0  0  0  0  0  0  0  0  0  0  0  0
   23.9663   18.2849   24.6707 H   0  0  0  0  0  0  0  0  0  0  0  0
   22.7614   18.1911   23.3742 H   0  0  0  0  0  0  0  0  0  0  0  0
  1  2  1  0  0  0  0
  1  3  2  0  0  0  0
  1  4  1  0  0  0  0
  4  5  1  0  0  0  0
  4  6  1  0  0  0  0
  4  7  1  0  0  0  0
  7  8  1  0  0  0  0
  7  9  1  0  0  0  0
  7 10  1  0  0  0  0
 10 11  1  0  0  0  0
 10 12  1  0  0  0  0
 10 13  1  0  0  0  0
 13 14  1  0  0  0  0
 13 15  1  0  0  0  0
 13 16  1  0  0  0  0
 16 17  1  0  0  0  0
 16 18  1  0  0  0  0
 16 19  1  0  0  0  0
 19 20  1  0  0  0  0
 19 21  1  0  0  0  0
 19 22  1  0  0  0  0
 22 23  1  0  0  0  0
 22 24  1  0  0  0  0
 22 25  1  0  0  0  0
M  END
> <VConfSearch Rank>
353

> <Conf_Id>
20

> <Delta U+W>
3.224

> <U+W>
-48.406

> <U>
10.617

> <W>
-59.023

> <W(PB)>
-61.467

> <W(SA)>
2.444

> <Valence>
11.188

> <Coulomb>
-1.778

> <VdW>
1.208

> <VdW6>
-9.786

> <VdW12>
10.993

> <Bond>
0.241

> <Angle>
3.294

> <Pdih>
7.653

> <Idih>
0.001

> <Tether>
0.000

$$$$
VeraChem MOL file


 25 24  0  0  0  0  0  0  0  0999 V2000     
   19.5586   21.9492   21.8435 C   0  0  0  0  0  0  0  0  0  0  0  0
   18.5546   22.4961   22.2566 O   0  5  0  0  0  0  0  0  0  0  0  0
   19.5988   21.3146   20.8078 O   0  0  0  0  0  0  0  0  0  0  0  0
   20.8553   22.1225   22.6322 C   0  0  0  0  0  0  0  0  0  0  0  0
   21.0891   23.1932   22.6091 H   0  0  0  0  0  0  0  0  0  0  0  0
   21.6672   21.6125   22.0998 H   0  0  0  0  0  0  0  0  0  0  0  0
   20.8002   21.6486   24.1119 C   0  0  0  0  0  0  0  0  0  0  0  0
   21.6166   22.1419   24.6565 H   0  0  0  0  0  0  0  0  0  0  0  0
   19.8700   21.9966   24.5822 H   0  0  0  0  0  0  0  0  0  0  0  0
   20.9564   20.1205   24.3109 C   0  0  0  0  0  0  0  0  0  0  0  0
   21.0546   19.9242   25.3874 H   0  0  0  0  0  0  0  0  0  0  0  0
   21.8935   19.7814   23.8487 H   0  0  0  0  0  0  0  0  0  0  0  0
   19.7754   19.2893   23.7604 C   0  0  0  0  0  0  0  0  0  0  0  0
   18.8287   19.6959   24.1418 H   0  0  0  0  0  0  0  0  0  0  0  0
   19.7419   19.3684   22.6665 H   0  0  0  0  0  0  0  0  0  0  0  0
   19.8940   17.8001   24.1510 C   0  0  0  0  0  0  0  0  0  0  0  0
   19.9200   17.7076   25.2454 H   0  0  0  0  0  0  0  0  0  0  0  0
   20.8434   17.3966   23.7730 H   0  0  0  0  0  0  0  0  0  0  0  0
   18.7212   16.9672   23.5922 C   0  0  0  0  0  0  0  0  0  0  0  0
   17.7700   17.3678   23.9692 H   0  0  0  0  0  0  0  0  0  0  0  0
   18.6930   17.0559   22.4972 H   0  0  0  0  0  0  0  0  0  0  0  0
   18.8426   15.4806   23.9833 C   0  0  0  0  0  0  0  0  0  0  0  0
   18.8414   15.3602   25.0746 H   0  0  0  0  0  0  0  0  0  0  0  0
   18.0011   14.9039   23.5778 H   0  0  0  0  0  0  0  0  0  0  0  0
   19.7715   15.0459   23.5914 H   0  0  0  0  0  0  0  0  0  0  0  0
  1  2  1  0  0  0  0
  1  3  2  0  0  0  0
  1  4  1  0  0  0  0
  4  5  1  0  0  0  0
  4  6  1  0  0  0  0
  4  7  1  0  0  0  0
  7  8  1  0  0  0  0
  7  9  1  0  0  0  0
  7 10  1  0  0  0  0
 10 11  1  0  0  0  0
 10 12  1  0  0  0  0
 10 13  1  0  0  0  0
 13 14  1  0  0  0  0
 13 15  1  0  0  0  0
 13 16  1  0  0  0  0
 16 17  1  0  0  0  0
 16 18  1  0  0  0  0
 16 19  1  0  0  0  0
 19 20  1  0  0  0  0
 19 21  1  0  0  0  0
 19 22  1  0  0  0  0
 22 23  1  0  0  0  0
 22 24  1  0  0  0  0
 22 25  1  0  0  0  0
M  END
> <VConfSearch Rank>
354

> <Conf_Id>
24

> <Delta U+W>
1.784

> <U+W>
-49.846

> <U>
10.904

> <W>
-60.749

> <W(PB)>
-63.220

> <W(SA)>
2.471

> <Valence>
9.445

> <Coulomb>
0.780

> <VdW>
0.679

> <VdW6>
-10.008

> <VdW12>
10.687

> <Bond>
0.201

> <Angle>
3.198

> <Pdih>
6.039

> <Idih>
0.006

> <Tether>
0.000

$$$$
VeraChem MOL file


 25 24  0  0  0  0  0  0  0  0999 V2000     
   21.3452   19.8466   26.4203 C   0  0  0  0  0  0  0  0  0  0  0  0
   21.3908   21.0613   26.4191 O   0  5  0  0  0  0  0  0  0  0  0  0
   20.4863   19.2083   26.9964 O   0  0  0  0  0  0  0  0  0  0  0  0
   22.4627   19.0785   25.7170 C   0  0  0  0  0  0  0  0  0  0  0  0
   22.2982   18.0031   25.8557 H   0  0  0  0  0  0  0  0  0  0  0  0
   23.3885   19.3254   26.2495 H   0  0  0  0  0  0  0  0  0  0  0  0
   22.6445   19.4054   24.2080 C   0  0  0  0  0  0  0  0  0  0  0  0
   22.5999   20.4923   24.0522 H   0  0  0  0  0  0  0  0  0  0  0  0
   23.6580   19.0999   23.9146 H   0  0  0  0  0  0  0  0  0  0  0  0
   21.6452   18.6921   23.2638 C   0  0  0  0  0  0  0  0  0  0  0  0
   21.7036   17.6057   23.4161 H   0  0  0  0  0  0  0  0  0  0  0  0
   21.9626   18.8759   22.2282 H   0  0  0  0  0  0  0  0  0  0  0  0
   20.1814   19.1611   23.4250 C   0  0  0  0  0  0  0  0  0  0  0  0
   19.8025   18.8672   24.4120 H   0  0  0  0  0  0  0  0  0  0  0  0
   20.1379   20.2578   23.3768 H   0  0  0  0  0  0  0  0  0  0  0  0
   19.2654   18.5584   22.3376 C   0  0  0  0  0  0  0  0  0  0  0  0
   19.3140   17.4618   22.3842 H   0  0  0  0  0  0  0  0  0  0  0  0
   19.6304   18.8531   21.3442 H   0  0  0  0  0  0  0  0  0  0  0  0
   17.8014   19.0169   22.5046 C   0  0  0  0  0  0  0  0  0  0  0  0
   17.4322   18.7222   23.4968 H   0  0  0  0  0  0  0  0  0  0  0  0
   17.7493   20.1135   22.4578 H   0  0  0  0  0  0  0  0  0  0  0  0
   16.8891   18.4133   21.4178 C   0  0  0  0  0  0  0  0  0  0  0  0
   16.8979   17.3164   21.4625 H   0  0  0  0  0  0  0  0  0  0  0  0
   15.8528   18.7497   21.5520 H   0  0  0  0  0  0  0  0  0  0  0  0
   17.2175   18.7183   20.4156 H   0  0  0  0  0  0  0  0  0  0  0  0
  1  2  1  0  0  0  0
  1  3  2  0  0  0  0
  1  4  1  0  0  0  0
  4  5  1  0  0  0  0
  4  6  1  0  0  0  0
  4  7  1  0  0  0  0
  7  8  1  0  0  0  0
  7  9  1  0  0  0  0
  7 10  1  0  0  0  0
 10 11  1  0  0  0  0
 10 12  1  0  0  0  0
 10 13  1  0  0  0  0
 13 14  1  0  0  0  0
 13 15  1  0  0  0  0
 13 16  1  0  0  0  0
 16 17  1  0  0  0  0
 16 18  1  0  0  0  0
 16 19  1  0  0  0  0
 19 20  1  0  0  0  0
 19 21  1  0  0  0  0
 19 22  1  0  0  0  0
 22 23  1  0  0  0  0
 22 24  1  0  0  0  0
 22 25  1  0  0  0  0
M  END
> <VConfSearch Rank>
355

> <Conf_Id>
9

> <Delta U+W>
1.764

> <U+W>
-49.865

> <U>
10.902

> <W>
-60.768

> <W(PB)>
-63.223

> <W(SA)>
2.456

> <Valence>
9.445

> <Coulomb>
0.778

> <VdW>
0.679

> <VdW6>
-10.007

> <VdW12>
10.687

> <Bond>
0.201

> <Angle>
3.198

> <Pdih>
6.040

> <Idih>
0.006

> <Tether>
0.000

$$$$
VeraChem MOL file


 25 24  0  0  0  0  0  0  0  0999 V2000     
   20.2791   16.0905   25.4451 C   0  0  0  0  0  0  0  0  0  0  0  0
   19.1208   16.1769   25.8024 O   0  5  0  0  0  0  0  0  0  0  0  0
   20.9480   15.0833   25.5673 O   0  0  0  0  0  0  0  0  0  0  0  0
   20.9228   17.3063   24.7886 C   0  0  0  0  0  0  0  0  0  0  0  0
   21.9870   17.3090   25.0525 H   0  0  0  0  0  0  0  0  0  0  0  0
   20.4809   18.2016   25.2366 H   0  0  0  0  0  0  0  0  0  0  0  0
   20.7576   17.3123   23.2457 C   0  0  0  0  0  0  0  0  0  0  0  0
   21.2239   16.3981   22.8529 H   0  0  0  0  0  0  0  0  0  0  0  0
   19.6934   17.2511   22.9789 H   0  0  0  0  0  0  0  0  0  0  0  0
   21.4133   18.5371   22.5587 C   0  0  0  0  0  0  0  0  0  0  0  0
   21.8165   18.2099   21.5905 H   0  0  0  0  0  0  0  0  0  0  0  0
   22.2787   18.8829   23.1404 H   0  0  0  0  0  0  0  0  0  0  0  0
   20.4485   19.7182   22.2850 C   0  0  0  0  0  0  0  0  0  0  0  0
   20.9962   20.4881   21.7247 H   0  0  0  0  0  0  0  0  0  0  0  0
   19.6392   19.3743   21.6276 H   0  0  0  0  0  0  0  0  0  0  0  0
   19.8487   20.3570   23.5598 C   0  0  0  0  0  0  0  0  0  0  0  0
   20.6568   20.5566   24.2764 H   0  0  0  0  0  0  0  0  0  0  0  0
   19.1625   19.6487   24.0423 H   0  0  0  0  0  0  0  0  0  0  0  0
   19.0955   21.6794   23.2851 C   0  0  0  0  0  0  0  0  0  0  0  0
   18.7881   22.1165   24.2451 H   0  0  0  0  0  0  0  0  0  0  0  0
   19.7764   22.4043   22.8181 H   0  0  0  0  0  0  0  0  0  0  0  0
   17.8450   21.4955   22.3981 C   0  0  0  0  0  0  0  0  0  0  0  0
   17.1607   20.7554   22.8329 H   0  0  0  0  0  0  0  0  0  0  0  0
   17.3004   22.4435   22.3005 H   0  0  0  0  0  0  0  0  0  0  0  0
   18.1163   21.1623   21.3885 H   0  0  0  0  0  0  0  0  0  0  0  0
  1  2  1  0  0  0  0
  1  3  2  0  0  0  0
  1  4  1  0  0  0  0
  4  5  1  0  0  0  0
  4  6  1  0  0  0  0
  4  7  1  0  0  0  0
  7  8  1  0  0  0  0
  7  9  1  0  0  0  0
  7 10  1  0  0  0  0
 10 11  1  0  0  0  0
 10 12  1  0  0  0  0
 10 13  1  0  0  0  0
 13 14  1  0  0  0  0
 13 15  1  0  0  0  0
 13 16  1  0  0  0  0
 16 17  1  0  0  0  0
 16 18  1  0  0  0  0
 16 19  1  0  0  0  0
 19 20  1  0  0  0  0
 19 21  1  0  0  0  0
 19 22  1  0  0  0  0
 22 23  1  0  0  0  0
 22 24  1  0  0  0  0
 22 25  1  0  0  0  0
M  END
> <VConfSearch Rank>
356

> <Conf_Id>
89

> <Delta U+W>
2.903

> <U+W>
-48.726

> <U>
10.996

> <W>
-59.723

> <W(PB)>
-62.151

> <W(SA)>
2.428

> <Valence>
10.985

> <Coulomb>
-0.995

> <VdW>
1.006

> <VdW6>
-10.062

> <VdW12>
11.069

> <Bond>
0.238

> <Angle>
3.202

> <Pdih>
7.544

> <Idih>
0.001

> <Tether>
0.000

$$$$
VeraChem MOL file


 25 24  0  0  0  0  0  0  0  0999 V2000     
   19.0581   15.7177   23.5110 C   0  0  0  0  0  0  0  0  0  0  0  0
   18.0651   15.8367   24.2016 O   0  5  0  0  0  0  0  0  0  0  0  0
   19.0268   15.3750   22.3451 O   0  0  0  0  0  0  0  0  0  0  0  0
   20.4201   15.9490   24.1627 C   0  0  0  0  0  0  0  0  0  0  0  0
   20.9402   14.9844   24.1379 H   0  0  0  0  0  0  0  0  0  0  0  0
   20.2721   16.1983   25.2203 H   0  0  0  0  0  0  0  0  0  0  0  0
   21.3116   17.0215   23.4754 C   0  0  0  0  0  0  0  0  0  0  0  0
   22.3537   16.8306   23.7655 H   0  0  0  0  0  0  0  0  0  0  0  0
   21.2750   16.8970   22.3842 H   0  0  0  0  0  0  0  0  0  0  0  0
   20.9794   18.4864   23.8543 C   0  0  0  0  0  0  0  0  0  0  0  0
   21.7745   19.1232   23.4471 H   0  0  0  0  0  0  0  0  0  0  0  0
   21.0183   18.6035   24.9457 H   0  0  0  0  0  0  0  0  0  0  0  0
   19.6096   18.9784   23.3270 C   0  0  0  0  0  0  0  0  0  0  0  0
   19.5424   18.8068   22.2440 H   0  0  0  0  0  0  0  0  0  0  0  0
   18.8108   18.3840   23.7870 H   0  0  0  0  0  0  0  0  0  0  0  0
   19.3266   20.4681   23.6370 C   0  0  0  0  0  0  0  0  0  0  0  0
   19.4261   20.6451   24.7166 H   0  0  0  0  0  0  0  0  0  0  0  0
   18.2791   20.6807   23.3834 H   0  0  0  0  0  0  0  0  0  0  0  0
   20.2355   21.4476   22.8598 C   0  0  0  0  0  0  0  0  0  0  0  0
   21.2832   21.3118   23.1573 H   0  0  0  0  0  0  0  0  0  0  0  0
   20.1770   21.2326   21.7839 H   0  0  0  0  0  0  0  0  0  0  0  0
   19.8307   22.9142   23.1112 C   0  0  0  0  0  0  0  0  0  0  0  0
   19.9058   23.1647   24.1774 H   0  0  0  0  0  0  0  0  0  0  0  0
   20.4864   23.5971   22.5555 H   0  0  0  0  0  0  0  0  0  0  0  0
   18.7979   23.0983   22.7875 H   0  0  0  0  0  0  0  0  0  0  0  0
  1  2  1  0  0  0  0
  1  3  2  0  0  0  0
  1  4  1  0  0  0  0
  4  5  1  0  0  0  0
  4  6  1  0  0  0  0
  4  7  1  0  0  0  0
  7  8  1  0  0  0  0
  7  9  1  0  0  0  0
  7 10  1  0  0  0  0
 10 11  1  0  0  0  0
 10 12  1  0  0  0  0
 10 13  1  0  0  0  0
 13 14  1  0  0  0  0
 13 15  1  0  0  0  0
 13 16  1  0  0  0  0
 16 17  1  0  0  0  0
 16 18  1  0  0  0  0
 16 19  1  0  0  0  0
 19 20  1  0  0  0  0
 19 21  1  0  0  0  0
 19 22  1  0  0  0  0
 22 23  1  0  0  0  0
 22 24  1  0  0  0  0
 22 25  1  0  0  0  0
M  END
> <VConfSearch Rank>
357

> <Conf_Id>
114

> <Delta U+W>
2.758

> <U+W>
-48.871

> <U>
11.422

> <W>
-60.293

> <W(PB)>
-62.719

> <W(SA)>
2.425

> <Valence>
10.135

> <Coulomb>
0.369

> <VdW>
0.918

> <VdW6>
-10.482

> <VdW12>
11.400

> <Bond>
0.245

> <Angle>
3.539

> <Pdih>
6.346

> <Idih>
0.006

> <Tether>
0.000

$$$$
VeraChem MOL file


 25 24  0  0  0  0  0  0  0  0999 V2000     
   18.2058   16.6942   25.6085 C   0  0  0  0  0  0  0  0  0  0  0  0
   18.9954   15.8427   25.9671 O   0  5  0  0  0  0  0  0  0  0  0  0
   17.6254   17.4386   26.3740 O   0  0  0  0  0  0  0  0  0  0  0  0
   17.9097   16.8236   24.1170 C   0  0  0  0  0  0  0  0  0  0  0  0
   16.8226   16.9092   24.0043 H   0  0  0  0  0  0  0  0  0  0  0  0
   18.2082   15.8933   23.6189 H   0  0  0  0  0  0  0  0  0  0  0  0
   18.5979   18.0385   23.4422 C   0  0  0  0  0  0  0  0  0  0  0  0
   18.2300   18.1296   22.4114 H   0  0  0  0  0  0  0  0  0  0  0  0
   18.2978   18.9538   23.9690 H   0  0  0  0  0  0  0  0  0  0  0  0
   20.1402   17.9104   23.4249 C   0  0  0  0  0  0  0  0  0  0  0  0
   20.4116   16.9444   22.9778 H   0  0  0  0  0  0  0  0  0  0  0  0
   20.5255   17.8935   24.4538 H   0  0  0  0  0  0  0  0  0  0  0  0
   20.8460   19.0340   22.6286 C   0  0  0  0  0  0  0  0  0  0  0  0
   21.9099   18.7767   22.5507 H   0  0  0  0  0  0  0  0  0  0  0  0
   20.4556   19.0589   21.6021 H   0  0  0  0  0  0  0  0  0  0  0  0
   20.7021   20.4330   23.2771 C   0  0  0  0  0  0  0  0  0  0  0  0
   21.0893   20.4065   24.3048 H   0  0  0  0  0  0  0  0  0  0  0  0
   19.6388   20.6935   23.3516 H   0  0  0  0  0  0  0  0  0  0  0  0
   21.4144   21.5540   22.4845 C   0  0  0  0  0  0  0  0  0  0  0  0
   21.0378   21.5758   21.4525 H   0  0  0  0  0  0  0  0  0  0  0  0
   21.1501   22.5224   22.9313 H   0  0  0  0  0  0  0  0  0  0  0  0
   22.9527   21.4174   22.4745 C   0  0  0  0  0  0  0  0  0  0  0  0
   23.4115   22.2856   21.9840 H   0  0  0  0  0  0  0  0  0  0  0  0
   23.3486   21.3587   23.4967 H   0  0  0  0  0  0  0  0  0  0  0  0
   23.2730   20.5213   21.9288 H   0  0  0  0  0  0  0  0  0  0  0  0
  1  2  1  0  0  0  0
  1  3  2  0  0  0  0
  1  4  1  0  0  0  0
  4  5  1  0  0  0  0
  4  6  1  0  0  0  0
  4  7  1  0  0  0  0
  7  8  1  0  0  0  0
  7  9  1  0  0  0  0
  7 10  1  0  0  0  0
 10 11  1  0  0  0  0
 10 12  1  0  0  0  0
 10 13  1  0  0  0  0
 13 14  1  0  0  0  0
 13 15  1  0  0  0  0
 13 16  1  0  0  0  0
 16 17  1  0  0  0  0
 16 18  1  0  0  0  0
 16 19  1  0  0  0  0
 19 20  1  0  0  0  0
 19 21  1  0  0  0  0
 19 22  1  0  0  0  0
 22 23  1  0  0  0  0
 22 24  1  0  0  0  0
 22 25  1  0  0  0  0
M  END
> <VConfSearch Rank>
358

> <Conf_Id>
87

> <Delta U+W>
1.453

> <U+W>
-50.176

> <U>
9.763

> <W>
-59.940

> <W(PB)>
-62.392

> <W(SA)>
2.452

> <Valence>
8.883

> <Coulomb>
-0.122

> <VdW>
1.003

> <VdW6>
-9.782

> <VdW12>
10.785

> <Bond>
0.212

> <Angle>
2.940

> <Pdih>
5.730

> <Idih>
0.001

> <Tether>
0.000

$$$$
VeraChem MOL file


 25 24  0  0  0  0  0  0  0  0999 V2000     
   22.0459   20.4067   20.1662 C   0  0  0  0  0  0  0  0  0  0  0  0
   23.1641   19.9788   20.3744 O   0  5  0  0  0  0  0  0  0  0  0  0
   21.5747   20.5467   19.0549 O   0  0  0  0  0  0  0  0  0  0  0  0
   21.1795   20.7711   21.3665 C   0  0  0  0  0  0  0  0  0  0  0  0
   20.5325   21.6081   21.0779 H   0  0  0  0  0  0  0  0  0  0  0  0
   21.8385   21.1308   22.1658 H   0  0  0  0  0  0  0  0  0  0  0  0
   20.3246   19.5837   21.8736 C   0  0  0  0  0  0  0  0  0  0  0  0
   19.6763   19.2289   21.0605 H   0  0  0  0  0  0  0  0  0  0  0  0
   20.9922   18.7526   22.1372 H   0  0  0  0  0  0  0  0  0  0  0  0
   19.4617   19.9782   23.0944 C   0  0  0  0  0  0  0  0  0  0  0  0
   18.8521   20.8538   22.8331 H   0  0  0  0  0  0  0  0  0  0  0  0
   20.1106   20.2949   23.9214 H   0  0  0  0  0  0  0  0  0  0  0  0
   18.5141   18.8487   23.5705 C   0  0  0  0  0  0  0  0  0  0  0  0
   17.8984   19.2273   24.3969 H   0  0  0  0  0  0  0  0  0  0  0  0
   17.8107   18.6119   22.7608 H   0  0  0  0  0  0  0  0  0  0  0  0
   19.2159   17.5381   24.0150 C   0  0  0  0  0  0  0  0  0  0  0  0
   19.6976   17.0710   23.1460 H   0  0  0  0  0  0  0  0  0  0  0  0
   18.4485   16.8256   24.3466 H   0  0  0  0  0  0  0  0  0  0  0  0
   20.2648   17.7014   25.1425 C   0  0  0  0  0  0  0  0  0  0  0  0
   20.7089   16.7188   25.3528 H   0  0  0  0  0  0  0  0  0  0  0  0
   21.0899   18.3407   24.8013 H   0  0  0  0  0  0  0  0  0  0  0  0
   19.6716   18.2690   26.4502 C   0  0  0  0  0  0  0  0  0  0  0  0
   18.8332   17.6533   26.8008 H   0  0  0  0  0  0  0  0  0  0  0  0
   20.4324   18.2876   27.2411 H   0  0  0  0  0  0  0  0  0  0  0  0
   19.3106   19.2958   26.3112 H   0  0  0  0  0  0  0  0  0  0  0  0
  1  2  1  0  0  0  0
  1  3  2  0  0  0  0
  1  4  1  0  0  0  0
  4  5  1  0  0  0  0
  4  6  1  0  0  0  0
  4  7  1  0  0  0  0
  7  8  1  0  0  0  0
  7  9  1  0  0  0  0
  7 10  1  0  0  0  0
 10 11  1  0  0  0  0
 10 12  1  0  0  0  0
 10 13  1  0  0  0  0
 13 14  1  0  0  0  0
 13 15  1  0  0  0  0
 13 16  1  0  0  0  0
 16 17  1  0  0  0  0
 16 18  1  0  0  0  0
 16 19  1  0  0  0  0
 19 20  1  0  0  0  0
 19 21  1  0  0  0  0
 19 22  1  0  0  0  0
 22 23  1  0  0  0  0
 22 24  1  0  0  0  0
 22 25  1  0  0  0  0
M  END
> <VConfSearch Rank>
359

> <Conf_Id>
29

> <Delta U+W>
0.850

> <U+W>
-50.780

> <U>
8.646

> <W>
-59.426

> <W(PB)>
-61.868

> <W(SA)>
2.442

> <Valence>
8.924

> <Coulomb>
-1.171

> <VdW>
0.894

> <VdW6>
-10.223

> <VdW12>
11.117

> <Bond>
0.231

> <Angle>
3.232

> <Pdih>
5.461

> <Idih>
0.001

> <Tether>
0.000

$$$$
VeraChem MOL file


 25 24  0  0  0  0  0  0  0  0999 V2000     
   18.7629   19.2810   19.5736 C   0  0  0  0  0  0  0  0  0  0  0  0
   19.2913   20.2962   19.1650 O   0  5  0  0  0  0  0  0  0  0  0  0
   17.6891   18.8741   19.1761 O   0  0  0  0  0  0  0  0  0  0  0  0
   19.4778   18.4838   20.6587 C   0  0  0  0  0  0  0  0  0  0  0  0
   20.5582   18.6001   20.5110 H   0  0  0  0  0  0  0  0  0  0  0  0
   19.2426   17.4228   20.5126 H   0  0  0  0  0  0  0  0  0  0  0  0
   19.0841   18.9276   22.0891 C   0  0  0  0  0  0  0  0  0  0  0  0
   19.3103   19.9959   22.2042 H   0  0  0  0  0  0  0  0  0  0  0  0
   17.9991   18.8135   22.2195 H   0  0  0  0  0  0  0  0  0  0  0  0
   19.8283   18.1088   23.1690 C   0  0  0  0  0  0  0  0  0  0  0  0
   20.9115   18.2538   23.0646 H   0  0  0  0  0  0  0  0  0  0  0  0
   19.6461   17.0395   22.9955 H   0  0  0  0  0  0  0  0  0  0  0  0
   19.3875   18.4503   24.6145 C   0  0  0  0  0  0  0  0  0  0  0  0
   18.3218   18.2086   24.7261 H   0  0  0  0  0  0  0  0  0  0  0  0
   19.9164   17.7879   25.3123 H   0  0  0  0  0  0  0  0  0  0  0  0
   19.6078   19.9251   25.0436 C   0  0  0  0  0  0  0  0  0  0  0  0
   19.2783   20.0391   26.0852 H   0  0  0  0  0  0  0  0  0  0  0  0
   18.9517   20.5774   24.4526 H   0  0  0  0  0  0  0  0  0  0  0  0
   21.0645   20.4364   24.9230 C   0  0  0  0  0  0  0  0  0  0  0  0
   21.3866   20.4154   23.8734 H   0  0  0  0  0  0  0  0  0  0  0  0
   21.0918   21.4915   25.2280 H   0  0  0  0  0  0  0  0  0  0  0  0
   22.0640   19.6419   25.7912 C   0  0  0  0  0  0  0  0  0  0  0  0
   22.1483   18.6021   25.4512 H   0  0  0  0  0  0  0  0  0  0  0  0
   23.0634   20.0924   25.7365 H   0  0  0  0  0  0  0  0  0  0  0  0
   21.7520   19.6363   26.8436 H   0  0  0  0  0  0  0  0  0  0  0  0
  1  2  1  0  0  0  0
  1  3  2  0  0  0  0
  1  4  1  0  0  0  0
  4  5  1  0  0  0  0
  4  6  1  0  0  0  0
  4  7  1  0  0  0  0
  7  8  1  0  0  0  0
  7  9  1  0  0  0  0
  7 10  1  0  0  0  0
 10 11  1  0  0  0  0
 10 12  1  0  0  0  0
 10 13  1  0  0  0  0
 13 14  1  0  0  0  0
 13 15  1  0  0  0  0
 13 16  1  0  0  0  0
 16 17  1  0  0  0  0
 16 18  1  0  0  0  0
 16 19  1  0  0  0  0
 19 20  1  0  0  0  0
 19 21  1  0  0  0  0
 19 22  1  0  0  0  0
 22 23  1  0  0  0  0
 22 24  1  0  0  0  0
 22 25  1  0  0  0  0
M  END
> <VConfSearch Rank>
360

> <Conf_Id>
30

> <Delta U+W>
0.843

> <U+W>
-50.787

> <U>
8.647

> <W>
-59.434

> <W(PB)>
-61.861

> <W(SA)>
2.428

> <Valence>
8.924

> <Coulomb>
-1.170

> <VdW>
0.894

> <VdW6>
-10.224

> <VdW12>
11.118

> <Bond>
0.231

> <Angle>
3.232

> <Pdih>
5.460

> <Idih>
0.000

> <Tether>
0.000

$$$$
VeraChem MOL file


 25 24  0  0  0  0  0  0  0  0999 V2000     
   18.5682   18.6149   18.7074 C   0  0  0  0  0  0  0  0  0  0  0  0
   18.9787   19.7017   18.3482 O   0  5  0  0  0  0  0  0  0  0  0  0
   17.9962   17.8426   17.9640 O   0  0  0  0  0  0  0  0  0  0  0  0
   18.7659   18.1707   20.1575 C   0  0  0  0  0  0  0  0  0  0  0  0
   19.3201   17.2249   20.1370 H   0  0  0  0  0  0  0  0  0  0  0  0
   17.7742   17.9527   20.5708 H   0  0  0  0  0  0  0  0  0  0  0  0
   19.5012   19.1900   21.0679 C   0  0  0  0  0  0  0  0  0  0  0  0
   20.4915   19.4086   20.6446 H   0  0  0  0  0  0  0  0  0  0  0  0
   18.9441   20.1371   21.0788 H   0  0  0  0  0  0  0  0  0  0  0  0
   19.6579   18.6627   22.5109 C   0  0  0  0  0  0  0  0  0  0  0  0
   20.2151   17.7158   22.4974 H   0  0  0  0  0  0  0  0  0  0  0  0
   18.6668   18.4448   22.9319 H   0  0  0  0  0  0  0  0  0  0  0  0
   20.3896   19.6782   23.4147 C   0  0  0  0  0  0  0  0  0  0  0  0
   21.3808   19.8963   22.9939 H   0  0  0  0  0  0  0  0  0  0  0  0
   19.8326   20.6251   23.4283 H   0  0  0  0  0  0  0  0  0  0  0  0
   20.5466   19.1516   24.8576 C   0  0  0  0  0  0  0  0  0  0  0  0
   21.1036   18.2047   24.8442 H   0  0  0  0  0  0  0  0  0  0  0  0
   19.5555   18.9335   25.2786 H   0  0  0  0  0  0  0  0  0  0  0  0
   21.2780   20.1665   25.7611 C   0  0  0  0  0  0  0  0  0  0  0  0
   22.2707   20.3857   25.3440 H   0  0  0  0  0  0  0  0  0  0  0  0
   20.7227   21.1145   25.7785 H   0  0  0  0  0  0  0  0  0  0  0  0
   21.4328   19.6370   27.2010 C   0  0  0  0  0  0  0  0  0  0  0  0
   22.0124   18.7047   27.2165 H   0  0  0  0  0  0  0  0  0  0  0  0
   21.9546   20.3708   27.8291 H   0  0  0  0  0  0  0  0  0  0  0  0
   20.4526   19.4390   27.6542 H   0  0  0  0  0  0  0  0  0  0  0  0
  1  2  1  0  0  0  0
  1  3  2  0  0  0  0
  1  4  1  0  0  0  0
  4  5  1  0  0  0  0
  4  6  1  0  0  0  0
  4  7  1  0  0  0  0
  7  8  1  0  0  0  0
  7  9  1  0  0  0  0
  7 10  1  0  0  0  0
 10 11  1  0  0  0  0
 10 12  1  0  0  0  0
 10 13  1  0  0  0  0
 13 14  1  0  0  0  0
 13 15  1  0  0  0  0
 13 16  1  0  0  0  0
 16 17  1  0  0  0  0
 16 18  1  0  0  0  0
 16 19  1  0  0  0  0
 19 20  1  0  0  0  0
 19 21  1  0  0  0  0
 19 22  1  0  0  0  0
 22 23  1  0  0  0  0
 22 24  1  0  0  0  0
 22 25  1  0  0  0  0
M  END
> <VConfSearch Rank>
361

> <Conf_Id>
0

> <Delta U+W>
0.000

> <U+W>
-51.629

> <U>
6.586

> <W>
-58.216

> <W(PB)>
-60.757

> <W(SA)>
2.541

> <Valence>
8.027

> <Coulomb>
-2.892

> <VdW>
1.451

> <VdW6>
-7.931

> <VdW12>
9.383

> <Bond>
0.149

> <Angle>
2.726

> <Pdih>
5.152

> <Idih>
0.000

> <Tether>
0.000

$$$$
VeraChem MOL file


 25 24  0  0  0  0  0  0  0  0999 V2000     
   19.4144   14.5882   23.8757 C   0  0  0  0  0  0  0  0  0  0  0  0
   20.4079   13.8998   23.7501 O   0  5  0  0  0  0  0  0  0  0  0  0
   18.5157   14.3378   24.6544 O   0  0  0  0  0  0  0  0  0  0  0  0
   19.2999   15.8484   23.0256 C   0  0  0  0  0  0  0  0  0  0  0  0
   18.2380   16.0201   22.8122 H   0  0  0  0  0  0  0  0  0  0  0  0
   19.7969   15.6587   22.0666 H   0  0  0  0  0  0  0  0  0  0  0  0
   19.9159   17.0935   23.7100 C   0  0  0  0  0  0  0  0  0  0  0  0
   19.4166   17.2618   24.6744 H   0  0  0  0  0  0  0  0  0  0  0  0
   20.9753   16.9003   23.9289 H   0  0  0  0  0  0  0  0  0  0  0  0
   19.7878   18.3557   22.8301 C   0  0  0  0  0  0  0  0  0  0  0  0
   18.7277   18.5454   22.6122 H   0  0  0  0  0  0  0  0  0  0  0  0
   20.2867   18.1837   21.8664 H   0  0  0  0  0  0  0  0  0  0  0  0
   20.4028   19.5951   23.5149 C   0  0  0  0  0  0  0  0  0  0  0  0
   19.9040   19.7674   24.4785 H   0  0  0  0  0  0  0  0  0  0  0  0
   21.4629   19.4057   23.7328 H   0  0  0  0  0  0  0  0  0  0  0  0
   20.2751   20.8578   22.6354 C   0  0  0  0  0  0  0  0  0  0  0  0
   19.2151   21.0475   22.4174 H   0  0  0  0  0  0  0  0  0  0  0  0
   20.7739   20.6859   21.6717 H   0  0  0  0  0  0  0  0  0  0  0  0
   20.8899   22.0967   23.3197 C   0  0  0  0  0  0  0  0  0  0  0  0
   20.3922   22.2730   24.2834 H   0  0  0  0  0  0  0  0  0  0  0  0
   21.9509   21.9113   23.5377 H   0  0  0  0  0  0  0  0  0  0  0  0
   20.7604   23.3554   22.4385 C   0  0  0  0  0  0  0  0  0  0  0  0
   21.2024   24.2261   22.9401 H   0  0  0  0  0  0  0  0  0  0  0  0
   21.2770   23.2183   21.4794 H   0  0  0  0  0  0  0  0  0  0  0  0
   19.7065   23.5827   22.2308 H   0  0  0  0  0  0  0  0  0  0  0  0
  1  2  1  0  0  0  0
  1  3  2  0  0  0  0
  1  4  1  0  0  0  0
  4  5  1  0  0  0  0
  4  6  1  0  0  0  0
  4  7  1  0  0  0  0
  7  8  1  0  0  0  0
  7  9  1  0  0  0  0
  7 10  1  0  0  0  0
 10 11  1  0  0  0  0
 10 12  1  0  0  0  0
 10 13  1  0  0  0  0
 13 14  1  0  0  0  0
 13 15  1  0  0  0  0
 13 16  1  0  0  0  0
 16 17  1  0  0  0  0
 16 18  1  0  0  0  0
 16 19  1  0  0  0  0
 19 20  1  0  0  0  0
 19 21  1  0  0  0  0
 19 22  1  0  0  0  0
 22 23  1  0  0  0  0
 22 24  1  0  0  0  0
 22 25  1  0  0  0  0
M  END
> <VConfSearch Rank>
362

> <Conf_Id>
27

> <Delta U+W>
-1.297

> <U+W>
-52.926

> <U>
5.617

> <W>
-58.543

> <W(PB)>
-61.065

> <W(SA)>
2.522

> <Valence>
7.531

> <Coulomb>
-2.818

> <VdW>
0.904

> <VdW6>
-7.640

> <VdW12>
8.544

> <Bond>
0.115

> <Angle>
2.271

> <Pdih>
5.144

> <Idih>
0.001

> <Tether>
0.000

$$$$
VeraChem MOL file


 25 24  0  0  0  0  0  0  0  0999 V2000     
   21.8485   19.7885   26.9602 C   0  0  0  0  0  0  0  0  0  0  0  0
   21.0256   19.9444   27.8409 O   0  5  0  0  0  0  0  0  0  0  0  0
   22.6104   18.8430   26.9111 O   0  0  0  0  0  0  0  0  0  0  0  0
   21.9395   20.8484   25.8660 C   0  0  0  0  0  0  0  0  0  0  0  0
   22.9134   20.7566   25.3699 H   0  0  0  0  0  0  0  0  0  0  0  0
   21.9244   21.8286   26.3569 H   0  0  0  0  0  0  0  0  0  0  0  0
   20.7966   20.7747   24.8204 C   0  0  0  0  0  0  0  0  0  0  0  0
   19.8278   20.8401   25.3351 H   0  0  0  0  0  0  0  0  0  0  0  0
   20.8624   21.6487   24.1583 H   0  0  0  0  0  0  0  0  0  0  0  0
   20.8514   19.4858   23.9698 C   0  0  0  0  0  0  0  0  0  0  0  0
   20.7685   18.6068   24.6239 H   0  0  0  0  0  0  0  0  0  0  0  0
   21.8266   19.4184   23.4683 H   0  0  0  0  0  0  0  0  0  0  0  0
   19.7246   19.4484   22.9151 C   0  0  0  0  0  0  0  0  0  0  0  0
   18.7499   19.5159   23.4176 H   0  0  0  0  0  0  0  0  0  0  0  0
   19.8073   20.3250   22.2580 H   0  0  0  0  0  0  0  0  0  0  0  0
   19.7783   18.1604   22.0654 C   0  0  0  0  0  0  0  0  0  0  0  0
   19.6956   17.2837   22.7224 H   0  0  0  0  0  0  0  0  0  0  0  0
   20.7531   18.0925   21.5631 H   0  0  0  0  0  0  0  0  0  0  0  0
   18.6518   18.1223   21.0113 C   0  0  0  0  0  0  0  0  0  0  0  0
   17.6751   18.1882   21.5104 H   0  0  0  0  0  0  0  0  0  0  0  0
   18.7326   18.9970   20.3510 H   0  0  0  0  0  0  0  0  0  0  0  0
   18.7089   16.8346   20.1651 C   0  0  0  0  0  0  0  0  0  0  0  0
   18.5987   15.9438   20.7974 H   0  0  0  0  0  0  0  0  0  0  0  0
   17.9015   16.8242   19.4214 H   0  0  0  0  0  0  0  0  0  0  0  0
   19.6642   16.7587   19.6293 H   0  0  0  0  0  0  0  0  0  0  0  0
  1  2  1  0  0  0  0
  1  3  2  0  0  0  0
  1  4  1  0  0  0  0
  4  5  1  0  0  0  0
  4  6  1  0  0  0  0
  4  7  1  0  0  0  0
  7  8  1  0  0  0  0
  7  9  1  0  0  0  0
  7 10  1  0  0  0  0
 10 11  1  0  0  0  0
 10 12  1  0  0  0  0
 10 13  1  0  0  0  0
 13 14  1  0  0  0  0
 13 15  1  0  0  0  0
 13 16  1  0  0  0  0
 16 17  1  0  0  0  0
 16 18  1  0  0  0  0
 16 19  1  0  0  0  0
 19 20  1  0  0  0  0
 19 21  1  0  0  0  0
 19 22  1  0  0  0  0
 22 23  1  0  0  0  0
 22 24  1  0  0  0  0
 22 25  1  0  0  0  0
M  END
> <VConfSearch Rank>
363

> <Conf_Id>
37

> <Delta U+W>
-0.230

> <U+W>
-51.860

> <U>
7.816

> <W>
-59.675

> <W(PB)>
-62.180

> <W(SA)>
2.505

> <Valence>
7.785

> <Coulomb>
-0.713

> <VdW>
0.744

> <VdW6>
-8.514

> <VdW12>
9.259

> <Bond>
0.136

> <Angle>
2.433

> <Pdih>
5.216

> <Idih>
0.000

> <Tether>
0.000

$$$$
VeraChem MOL file


 25 24  0  0  0  0  0  0  0  0999 V2000     
   17.2472   16.5364   24.2665 C   0  0  0  0  0  0  0  0  0  0  0  0
   16.1146   16.8387   23.9456 O   0  5  0  0  0  0  0  0  0  0  0  0
   17.6115   16.4210   25.4201 O   0  0  0  0  0  0  0  0  0  0  0  0
   18.2618   16.2716   23.1577 C   0  0  0  0  0  0  0  0  0  0  0  0
   17.7743   15.6312   22.4133 H   0  0  0  0  0  0  0  0  0  0  0  0
   19.0952   15.6944   23.5763 H   0  0  0  0  0  0  0  0  0  0  0  0
   18.7922   17.5558   22.4688 C   0  0  0  0  0  0  0  0  0  0  0  0
   19.4034   17.2690   21.6024 H   0  0  0  0  0  0  0  0  0  0  0  0
   17.9444   18.1365   22.0794 H   0  0  0  0  0  0  0  0  0  0  0  0
   19.6361   18.4347   23.4192 C   0  0  0  0  0  0  0  0  0  0  0  0
   20.4744   17.8458   23.8161 H   0  0  0  0  0  0  0  0  0  0  0  0
   19.0260   18.7402   24.2804 H   0  0  0  0  0  0  0  0  0  0  0  0
   20.1799   19.6906   22.7045 C   0  0  0  0  0  0  0  0  0  0  0  0
   20.7928   19.3874   21.8446 H   0  0  0  0  0  0  0  0  0  0  0  0
   19.3409   20.2788   22.3081 H   0  0  0  0  0  0  0  0  0  0  0  0
   21.0227   20.5696   23.6537 C   0  0  0  0  0  0  0  0  0  0  0  0
   21.8616   19.9815   24.0504 H   0  0  0  0  0  0  0  0  0  0  0  0
   20.4099   20.8728   24.5138 H   0  0  0  0  0  0  0  0  0  0  0  0
   21.5659   21.8253   22.9400 C   0  0  0  0  0  0  0  0  0  0  0  0
   22.1809   21.5258   22.0800 H   0  0  0  0  0  0  0  0  0  0  0  0
   20.7292   22.4171   22.5434 H   0  0  0  0  0  0  0  0  0  0  0  0
   22.4068   22.7004   23.8912 C   0  0  0  0  0  0  0  0  0  0  0  0
   23.2695   22.1425   24.2785 H   0  0  0  0  0  0  0  0  0  0  0  0
   22.7847   23.5881   23.3676 H   0  0  0  0  0  0  0  0  0  0  0  0
   21.8069   23.0404   24.7455 H   0  0  0  0  0  0  0  0  0  0  0  0
  1  2  1  0  0  0  0
  1  3  2  0  0  0  0
  1  4  1  0  0  0  0
  4  5  1  0  0  0  0
  4  6  1  0  0  0  0
  4  7  1  0  0  0  0
  7  8  1  0  0  0  0
  7  9  1  0  0  0  0
  7 10  1  0  0  0  0
 10 11  1  0  0  0  0
 10 12  1  0  0  0  0
 10 13  1  0  0  0  0
 13 14  1  0  0  0  0
 13 15  1  0  0  0  0
 13 16  1  0  0  0  0
 16 17  1  0  0  0  0
 16 18  1  0  0  0  0
 16 19  1  0  0  0  0
 19 20  1  0  0  0  0
 19 21  1  0  0  0  0
 19 22  1  0  0  0  0
 22 23  1  0  0  0  0
 22 24  1  0  0  0  0
 22 25  1  0  0  0  0
M  END
> <VConfSearch Rank>
364

> <Conf_Id>
54

> <Delta U+W>
-0.224

> <U+W>
-51.854

> <U>
7.816

> <W>
-59.670

> <W(PB)>
-62.157

> <W(SA)>
2.487

> <Valence>
7.785

> <Coulomb>
-0.713

> <VdW>
0.744

> <VdW6>
-8.515

> <VdW12>
9.259

> <Bond>
0.136

> <Angle>
2.433

> <Pdih>
5.215

> <Idih>
0.000

> <Tether>
0.000

$$$$
VeraChem MOL file


 25 24  0  0  0  0  0  0  0  0999 V2000     
   23.4777   17.0901   22.2416 C   0  0  0  0  0  0  0  0  0  0  0  0
   23.1556   16.4616   21.2525 O   0  5  0  0  0  0  0  0  0  0  0  0
   24.4719   17.7866   22.3017 O   0  0  0  0  0  0  0  0  0  0  0  0
   22.5969   16.9857   23.4836 C   0  0  0  0  0  0  0  0  0  0  0  0
   23.2597   16.8217   24.3414 H   0  0  0  0  0  0  0  0  0  0  0  0
   21.9678   16.0919   23.3931 H   0  0  0  0  0  0  0  0  0  0  0  0
   21.7165   18.2364   23.7414 C   0  0  0  0  0  0  0  0  0  0  0  0
   21.2459   18.1315   24.7270 H   0  0  0  0  0  0  0  0  0  0  0  0
   22.3566   19.1283   23.7884 H   0  0  0  0  0  0  0  0  0  0  0  0
   20.6268   18.4288   22.6592 C   0  0  0  0  0  0  0  0  0  0  0  0
   19.9597   17.5561   22.6445 H   0  0  0  0  0  0  0  0  0  0  0  0
   21.1052   18.4680   21.6710 H   0  0  0  0  0  0  0  0  0  0  0  0
   19.7906   19.7179   22.8437 C   0  0  0  0  0  0  0  0  0  0  0  0
   20.4597   20.5884   22.8773 H   0  0  0  0  0  0  0  0  0  0  0  0
   19.1618   19.8432   21.9532 H   0  0  0  0  0  0  0  0  0  0  0  0
   18.8936   19.6980   24.1062 C   0  0  0  0  0  0  0  0  0  0  0  0
   19.5208   19.5802   24.9988 H   0  0  0  0  0  0  0  0  0  0  0  0
   18.2283   18.8245   24.0745 H   0  0  0  0  0  0  0  0  0  0  0  0
   18.0512   20.9834   24.2813 C   0  0  0  0  0  0  0  0  0  0  0  0
   17.5552   20.9474   25.2611 H   0  0  0  0  0  0  0  0  0  0  0  0
   18.7124   21.8608   24.3010 H   0  0  0  0  0  0  0  0  0  0  0  0
   16.9752   21.1667   23.1889 C   0  0  0  0  0  0  0  0  0  0  0  0
   17.4273   21.3305   22.2029 H   0  0  0  0  0  0  0  0  0  0  0  0
   16.3233   20.2856   23.1276 H   0  0  0  0  0  0  0  0  0  0  0  0
   16.3456   22.0375   23.4132 H   0  0  0  0  0  0  0  0  0  0  0  0
  1  2  1  0  0  0  0
  1  3  2  0  0  0  0
  1  4  1  0  0  0  0
  4  5  1  0  0  0  0
  4  6  1  0  0  0  0
  4  7  1  0  0  0  0
  7  8  1  0  0  0  0
  7  9  1  0  0  0  0
  7 10  1  0  0  0  0
 10 11  1  0  0  0  0
 10 12  1  0  0  0  0
 10 13  1  0  0  0  0
 13 14  1  0  0  0  0
 13 15  1  0  0  0  0
 13 16  1  0  0  0  0
 16 17  1  0  0  0  0
 16 18  1  0  0  0  0
 16 19  1  0  0  0  0
 19 20  1  0  0  0  0
 19 21  1  0  0  0  0
 19 22  1  0  0  0  0
 22 23  1  0  0  0  0
 22 24  1  0  0  0  0
 22 25  1  0  0  0  0
M  END
> <VConfSearch Rank>
365

> <Conf_Id>
101

> <Delta U+W>
1.534

> <U+W>
-50.095

> <U>
9.416

> <W>
-59.512

> <W(PB)>
-61.988

> <W(SA)>
2.476

> <Valence>
8.939

> <Coulomb>
-0.615

> <VdW>
1.092

> <VdW6>
-9.710

> <VdW12>
10.802

> <Bond>
0.216

> <Angle>
2.979

> <Pdih>
5.743

> <Idih>
0.000

> <Tether>
0.000

$$$$
VeraChem MOL file


 25 24  0  0  0  0  0  0  0  0999 V2000     
   19.5747   23.2913   22.5530 C   0  0  0  0  0  0  0  0  0  0  0  0
   20.0791   23.8902   23.4823 O   0  5  0  0  0  0  0  0  0  0  0  0
   19.3578   23.7928   21.4675 O   0  0  0  0  0  0  0  0  0  0  0  0
   19.2147   21.8234   22.7526 C   0  0  0  0  0  0  0  0  0  0  0  0
   18.3374   21.6014   22.1333 H   0  0  0  0  0  0  0  0  0  0  0  0
   18.9162   21.6938   23.7988 H   0  0  0  0  0  0  0  0  0  0  0  0
   20.3805   20.8662   22.3918 C   0  0  0  0  0  0  0  0  0  0  0  0
   20.7171   21.0925   21.3706 H   0  0  0  0  0  0  0  0  0  0  0  0
   21.2368   21.0646   23.0512 H   0  0  0  0  0  0  0  0  0  0  0  0
   19.9997   19.3681   22.4656 C   0  0  0  0  0  0  0  0  0  0  0  0
   20.8365   18.7859   22.0589 H   0  0  0  0  0  0  0  0  0  0  0  0
   19.1376   19.1741   21.8132 H   0  0  0  0  0  0  0  0  0  0  0  0
   19.6887   18.8820   23.9025 C   0  0  0  0  0  0  0  0  0  0  0  0
   20.5506   19.0751   24.5543 H   0  0  0  0  0  0  0  0  0  0  0  0
   18.8580   19.4683   24.3146 H   0  0  0  0  0  0  0  0  0  0  0  0
   19.2936   17.3851   23.9772 C   0  0  0  0  0  0  0  0  0  0  0  0
   18.3793   17.2292   23.3888 H   0  0  0  0  0  0  0  0  0  0  0  0
   19.0295   17.1439   25.0158 H   0  0  0  0  0  0  0  0  0  0  0  0
   20.3738   16.3853   23.4942 C   0  0  0  0  0  0  0  0  0  0  0  0
   19.9747   15.3664   23.5923 H   0  0  0  0  0  0  0  0  0  0  0  0
   20.5736   16.5294   22.4243 H   0  0  0  0  0  0  0  0  0  0  0  0
   21.6945   16.4793   24.2884 C   0  0  0  0  0  0  0  0  0  0  0  0
   21.5150   16.3620   25.3649 H   0  0  0  0  0  0  0  0  0  0  0  0
   22.3896   15.6906   23.9729 H   0  0  0  0  0  0  0  0  0  0  0  0
   22.1903   17.4444   24.1242 H   0  0  0  0  0  0  0  0  0  0  0  0
  1  2  1  0  0  0  0
  1  3  2  0  0  0  0
  1  4  1  0  0  0  0
  4  5  1  0  0  0  0
  4  6  1  0  0  0  0
  4  7  1  0  0  0  0
  7  8  1  0  0  0  0
  7  9  1  0  0  0  0
  7 10  1  0  0  0  0
 10 11  1  0  0  0  0
 10 12  1  0  0  0  0
 10 13  1  0  0  0  0
 13 14  1  0  0  0  0
 13 15  1  0  0  0  0
 13 16  1  0  0  0  0
 16 17  1  0  0  0  0
 16 18  1  0  0  0  0
 16 19  1  0  0  0  0
 19 20  1  0  0  0  0
 19 21  1  0  0  0  0
 19 22  1  0  0  0  0
 22 23  1  0  0  0  0
 22 24  1  0  0  0  0
 22 25  1  0  0  0  0
M  END
> <VConfSearch Rank>
366

> <Conf_Id>
75

> <Delta U+W>
1.014

> <U+W>
-50.615

> <U>
8.474

> <W>
-59.089

> <W(PB)>
-61.530

> <W(SA)>
2.441

> <Valence>
9.080

> <Coulomb>
-1.772

> <VdW>
1.165

> <VdW6>
-9.830

> <VdW12>
10.996

> <Bond>
0.240

> <Angle>
3.225

> <Pdih>
5.615

> <Idih>
0.001

> <Tether>
0.000

$$$$
VeraChem MOL file


 25 24  0  0  0  0  0  0  0  0999 V2000     
   20.8442   19.4878   19.1259 C   0  0  0  0  0  0  0  0  0  0  0  0
   21.4594   20.5168   18.9273 O   0  5  0  0  0  0  0  0  0  0  0  0
   20.8996   18.5184   18.3951 O   0  0  0  0  0  0  0  0  0  0  0  0
   19.9710   19.4004   20.3724 C   0  0  0  0  0  0  0  0  0  0  0  0
   19.1136   18.7562   20.1434 H   0  0  0  0  0  0  0  0  0  0  0  0
   19.5770   20.4019   20.5832 H   0  0  0  0  0  0  0  0  0  0  0  0
   20.7346   18.8562   21.6048 C   0  0  0  0  0  0  0  0  0  0  0  0
   21.1336   17.8588   21.3734 H   0  0  0  0  0  0  0  0  0  0  0  0
   21.5970   19.5047   21.8126 H   0  0  0  0  0  0  0  0  0  0  0  0
   19.8298   18.7788   22.8537 C   0  0  0  0  0  0  0  0  0  0  0  0
   18.9691   18.1301   22.6412 H   0  0  0  0  0  0  0  0  0  0  0  0
   19.4266   19.7749   23.0714 H   0  0  0  0  0  0  0  0  0  0  0  0
   20.5954   18.2290   24.0802 C   0  0  0  0  0  0  0  0  0  0  0  0
   20.9553   17.2205   23.8346 H   0  0  0  0  0  0  0  0  0  0  0  0
   21.4910   18.8346   24.2751 H   0  0  0  0  0  0  0  0  0  0  0  0
   19.7246   18.1416   25.3594 C   0  0  0  0  0  0  0  0  0  0  0  0
   20.0259   17.2441   25.9167 H   0  0  0  0  0  0  0  0  0  0  0  0
   18.6701   17.9871   25.0929 H   0  0  0  0  0  0  0  0  0  0  0  0
   19.8593   19.3512   26.3173 C   0  0  0  0  0  0  0  0  0  0  0  0
   19.2677   19.1480   27.2206 H   0  0  0  0  0  0  0  0  0  0  0  0
   20.9029   19.4442   26.6483 H   0  0  0  0  0  0  0  0  0  0  0  0
   19.3930   20.6919   25.7127 C   0  0  0  0  0  0  0  0  0  0  0  0
   18.3742   20.6106   25.3123 H   0  0  0  0  0  0  0  0  0  0  0  0
   19.3948   21.4791   26.4775 H   0  0  0  0  0  0  0  0  0  0  0  0
   20.0613   21.0150   24.9048 H   0  0  0  0  0  0  0  0  0  0  0  0
  1  2  1  0  0  0  0
  1  3  2  0  0  0  0
  1  4  1  0  0  0  0
  4  5  1  0  0  0  0
  4  6  1  0  0  0  0
  4  7  1  0  0  0  0
  7  8  1  0  0  0  0
  7  9  1  0  0  0  0
  7 10  1  0  0  0  0
 10 11  1  0  0  0  0
 10 12  1  0  0  0  0
 10 13  1  0  0  0  0
 13 14  1  0  0  0  0
 13 15  1  0  0  0  0
 13 16  1  0  0  0  0
 16 17  1  0  0  0  0
 16 18  1  0  0  0  0
 16 19  1  0  0  0  0
 19 20  1  0  0  0  0
 19 21  1  0  0  0  0
 19 22  1  0  0  0  0
 22 23  1  0  0  0  0
 22 24  1  0  0  0  0
 22 25  1  0  0  0  0
M  END
> <VConfSearch Rank>
367

> <Conf_Id>
125

> <Delta U+W>
2.314

> <U+W>
-49.315

> <U>
9.740

> <W>
-59.054

> <W(PB)>
-61.488

> <W(SA)>
2.433

> <Valence>
10.506

> <Coulomb>
-1.761

> <VdW>
0.994

> <VdW6>
-9.209

> <VdW12>
10.203

> <Bond>
0.193

> <Angle>
2.979

> <Pdih>
7.334

> <Idih>
0.001

> <Tether>
0.000

$$$$
VeraChem MOL file


 25 24  0  0  0  0  0  0  0  0999 V2000     
   16.2644   20.4728   23.7410 C   0  0  0  0  0  0  0  0  0  0  0  0
   16.0078   20.3307   24.9202 O   0  5  0  0  0  0  0  0  0  0  0  0
   15.4429   20.8025   22.9084 O   0  0  0  0  0  0  0  0  0  0  0  0
   17.6902   20.1989   23.2761 C   0  0  0  0  0  0  0  0  0  0  0  0
   18.3663   20.4875   24.0886 H   0  0  0  0  0  0  0  0  0  0  0  0
   17.9030   20.8574   22.4256 H   0  0  0  0  0  0  0  0  0  0  0  0
   17.9162   18.7177   22.8760 C   0  0  0  0  0  0  0  0  0  0  0  0
   17.7456   18.0719   23.7484 H   0  0  0  0  0  0  0  0  0  0  0  0
   17.1615   18.4353   22.1289 H   0  0  0  0  0  0  0  0  0  0  0  0
   19.3213   18.4432   22.2890 C   0  0  0  0  0  0  0  0  0  0  0  0
   19.4850   19.0833   21.4113 H   0  0  0  0  0  0  0  0  0  0  0  0
   19.3506   17.4063   21.9272 H   0  0  0  0  0  0  0  0  0  0  0  0
   20.4654   18.6538   23.3077 C   0  0  0  0  0  0  0  0  0  0  0  0
   20.4872   19.7036   23.6238 H   0  0  0  0  0  0  0  0  0  0  0  0
   20.2735   18.0501   24.2051 H   0  0  0  0  0  0  0  0  0  0  0  0
   21.8383   18.2676   22.7099 C   0  0  0  0  0  0  0  0  0  0  0  0
   22.0544   18.9021   21.8395 H   0  0  0  0  0  0  0  0  0  0  0  0
   21.7889   17.2352   22.3377 H   0  0  0  0  0  0  0  0  0  0  0  0
   23.0012   18.3677   23.7245 C   0  0  0  0  0  0  0  0  0  0  0  0
   22.7909   17.7299   24.5941 H   0  0  0  0  0  0  0  0  0  0  0  0
   23.9112   17.9657   23.2580 H   0  0  0  0  0  0  0  0  0  0  0  0
   23.2805   19.8118   24.1947 C   0  0  0  0  0  0  0  0  0  0  0  0
   22.4389   20.2155   24.7712 H   0  0  0  0  0  0  0  0  0  0  0  0
   24.1684   19.8404   24.8395 H   0  0  0  0  0  0  0  0  0  0  0  0
   23.4626   20.4754   23.3394 H   0  0  0  0  0  0  0  0  0  0  0  0
  1  2  1  0  0  0  0
  1  3  2  0  0  0  0
  1  4  1  0  0  0  0
  4  5  1  0  0  0  0
  4  6  1  0  0  0  0
  4  7  1  0  0  0  0
  7  8  1  0  0  0  0
  7  9  1  0  0  0  0
  7 10  1  0  0  0  0
 10 11  1  0  0  0  0
 10 12  1  0  0  0  0
 10 13  1  0  0  0  0
 13 14  1  0  0  0  0
 13 15  1  0  0  0  0
 13 16  1  0  0  0  0
 16 17  1  0  0  0  0
 16 18  1  0  0  0  0
 16 19  1  0  0  0  0
 19 20  1  0  0  0  0
 19 21  1  0  0  0  0
 19 22  1  0  0  0  0
 22 23  1  0  0  0  0
 22 24  1  0  0  0  0
 22 25  1  0  0  0  0
M  END
> <VConfSearch Rank>
368

> <Conf_Id>
4

> <Delta U+W>
0.189

> <U+W>
-51.441

> <U>
7.701

> <W>
-59.141

> <W(PB)>
-61.609

> <W(SA)>
2.467

> <Valence>
8.550

> <Coulomb>
-1.988

> <VdW>
1.139

> <VdW6>
-8.988

> <VdW12>
10.127

> <Bond>
0.191

> <Angle>
2.738

> <Pdih>
5.621

> <Idih>
0.001

> <Tether>
0.000

$$$$
VeraChem MOL file


 25 24  0  0  0  0  0  0  0  0999 V2000     
   20.9792   22.4636   25.5904 C   0  0  0  0  0  0  0  0  0  0  0  0
   19.9465   23.0956   25.6937 O   0  5  0  0  0  0  0  0  0  0  0  0
   21.9957   22.7307   26.2004 O   0  0  0  0  0  0  0  0  0  0  0  0
   20.9938   21.2544   24.6620 C   0  0  0  0  0  0  0  0  0  0  0  0
   22.0055   21.1531   24.2514 H   0  0  0  0  0  0  0  0  0  0  0  0
   20.3221   21.4705   23.8237 H   0  0  0  0  0  0  0  0  0  0  0  0
   20.5726   19.9444   25.3773 C   0  0  0  0  0  0  0  0  0  0  0  0
   21.2049   19.8088   26.2656 H   0  0  0  0  0  0  0  0  0  0  0  0
   19.5410   20.0414   25.7430 H   0  0  0  0  0  0  0  0  0  0  0  0
   20.6949   18.6860   24.4853 C   0  0  0  0  0  0  0  0  0  0  0  0
   20.4922   17.8005   25.1032 H   0  0  0  0  0  0  0  0  0  0  0  0
   21.7295   18.5863   24.1294 H   0  0  0  0  0  0  0  0  0  0  0  0
   19.7276   18.6906   23.2789 C   0  0  0  0  0  0  0  0  0  0  0  0
   18.6989   18.8403   23.6340 H   0  0  0  0  0  0  0  0  0  0  0  0
   19.9669   19.5334   22.6194 H   0  0  0  0  0  0  0  0  0  0  0  0
   19.8100   17.3705   22.4779 C   0  0  0  0  0  0  0  0  0  0  0  0
   19.6317   16.5269   23.1587 H   0  0  0  0  0  0  0  0  0  0  0  0
   20.8265   17.2411   22.0818 H   0  0  0  0  0  0  0  0  0  0  0  0
   18.7891   17.2891   21.3190 C   0  0  0  0  0  0  0  0  0  0  0  0
   18.8322   16.2822   20.8816 H   0  0  0  0  0  0  0  0  0  0  0  0
   17.7706   17.4130   21.7124 H   0  0  0  0  0  0  0  0  0  0  0  0
   19.0450   18.3264   20.2040 C   0  0  0  0  0  0  0  0  0  0  0  0
   20.0687   18.2426   19.8168 H   0  0  0  0  0  0  0  0  0  0  0  0
   18.3530   18.1683   19.3667 H   0  0  0  0  0  0  0  0  0  0  0  0
   18.8968   19.3508   20.5678 H   0  0  0  0  0  0  0  0  0  0  0  0
  1  2  1  0  0  0  0
  1  3  2  0  0  0  0
  1  4  1  0  0  0  0
  4  5  1  0  0  0  0
  4  6  1  0  0  0  0
  4  7  1  0  0  0  0
  7  8  1  0  0  0  0
  7  9  1  0  0  0  0
  7 10  1  0  0  0  0
 10 11  1  0  0  0  0
 10 12  1  0  0  0  0
 10 13  1  0  0  0  0
 13 14  1  0  0  0  0
 13 15  1  0  0  0  0
 13 16  1  0  0  0  0
 16 17  1  0  0  0  0
 16 18  1  0  0  0  0
 16 19  1  0  0  0  0
 19 20  1  0  0  0  0
 19 21  1  0  0  0  0
 19 22  1  0  0  0  0
 22 23  1  0  0  0  0
 22 24  1  0  0  0  0
 22 25  1  0  0  0  0
M  END
> <VConfSearch Rank>
369

> <Conf_Id>
17

> <Delta U+W>
0.219

> <U+W>
-51.411

> <U>
7.701

> <W>
-59.111

> <W(PB)>
-61.599

> <W(SA)>
2.488

> <Valence>
8.550

> <Coulomb>
-1.988

> <VdW>
1.139

> <VdW6>
-8.988

> <VdW12>
10.127

> <Bond>
0.191

> <Angle>
2.738

> <Pdih>
5.621

> <Idih>
0.001

> <Tether>
0.000

$$$$
VeraChem MOL file


 25 24  0  0  0  0  0  0  0  0999 V2000     
   22.7637   18.4096   25.8031 C   0  0  0  0  0  0  0  0  0  0  0  0
   22.7430   19.1415   26.7731 O   0  5  0  0  0  0  0  0  0  0  0  0
   23.6819   18.3726   25.0076 O   0  0  0  0  0  0  0  0  0  0  0  0
   21.5816   17.4706   25.5804 C   0  0  0  0  0  0  0  0  0  0  0  0
   21.0397   17.3594   26.5274 H   0  0  0  0  0  0  0  0  0  0  0  0
   21.9886   16.4839   25.3300 H   0  0  0  0  0  0  0  0  0  0  0  0
   20.6143   17.9318   24.4594 C   0  0  0  0  0  0  0  0  0  0  0  0
   21.1826   18.0544   23.5279 H   0  0  0  0  0  0  0  0  0  0  0  0
   19.8743   17.1406   24.2787 H   0  0  0  0  0  0  0  0  0  0  0  0
   19.8800   19.2467   24.8153 C   0  0  0  0  0  0  0  0  0  0  0  0
   20.6080   20.0618   24.9287 H   0  0  0  0  0  0  0  0  0  0  0  0
   19.3922   19.1298   25.7926 H   0  0  0  0  0  0  0  0  0  0  0  0
   18.8080   19.6542   23.7767 C   0  0  0  0  0  0  0  0  0  0  0  0
   18.0739   18.8442   23.6681 H   0  0  0  0  0  0  0  0  0  0  0  0
   18.2581   20.5215   24.1669 H   0  0  0  0  0  0  0  0  0  0  0  0
   19.3966   20.0138   22.3928 C   0  0  0  0  0  0  0  0  0  0  0  0
   19.8859   19.1348   21.9537 H   0  0  0  0  0  0  0  0  0  0  0  0
   20.1696   20.7853   22.5120 H   0  0  0  0  0  0  0  0  0  0  0  0
   18.3075   20.5212   21.4242 C   0  0  0  0  0  0  0  0  0  0  0  0
   17.5317   19.7523   21.3043 H   0  0  0  0  0  0  0  0  0  0  0  0
   17.8160   21.4070   21.8498 H   0  0  0  0  0  0  0  0  0  0  0  0
   18.8954   20.8759   20.0435 C   0  0  0  0  0  0  0  0  0  0  0  0
   19.3656   19.9988   19.5798 H   0  0  0  0  0  0  0  0  0  0  0  0
   18.1078   21.2349   19.3683 H   0  0  0  0  0  0  0  0  0  0  0  0
   19.6533   21.6654   20.1305 H   0  0  0  0  0  0  0  0  0  0  0  0
  1  2  1  0  0  0  0
  1  3  2  0  0  0  0
  1  4  1  0  0  0  0
  4  5  1  0  0  0  0
  4  6  1  0  0  0  0
  4  7  1  0  0  0  0
  7  8  1  0  0  0  0
  7  9  1  0  0  0  0
  7 10  1  0  0  0  0
 10 11  1  0  0  0  0
 10 12  1  0  0  0  0
 10 13  1  0  0  0  0
 13 14  1  0  0  0  0
 13 15  1  0  0  0  0
 13 16  1  0  0  0  0
 16 17  1  0  0  0  0
 16 18  1  0  0  0  0
 16 19  1  0  0  0  0
 19 20  1  0  0  0  0
 19 21  1  0  0  0  0
 19 22  1  0  0  0  0
 22 23  1  0  0  0  0
 22 24  1  0  0  0  0
 22 25  1  0  0  0  0
M  END
> <VConfSearch Rank>
370

> <Conf_Id>
142

> <Delta U+W>
0.593

> <U+W>
-51.037

> <U>
8.903

> <W>
-59.940

> <W(PB)>
-62.418

> <W(SA)>
2.478

> <Valence>
8.305

> <Coulomb>
-0.223

> <VdW>
0.821

> <VdW6>
-9.236

> <VdW12>
10.057

> <Bond>
0.173

> <Angle>
2.663

> <Pdih>
5.469

> <Idih>
0.001

> <Tether>
0.000

$$$$
VeraChem MOL file


 25 24  0  0  0  0  0  0  0  0999 V2000     
   22.7501   19.9797   25.7578 C   0  0  0  0  0  0  0  0  0  0  0  0
   23.3450   19.4615   26.6825 O   0  5  0  0  0  0  0  0  0  0  0  0
   23.2890   20.6682   24.9136 O   0  0  0  0  0  0  0  0  0  0  0  0
   21.2402   19.7758   25.6705 C   0  0  0  0  0  0  0  0  0  0  0  0
   20.8259   20.5123   24.9725 H   0  0  0  0  0  0  0  0  0  0  0  0
   20.8216   20.0118   26.6557 H   0  0  0  0  0  0  0  0  0  0  0  0
   20.8172   18.3381   25.2628 C   0  0  0  0  0  0  0  0  0  0  0  0
   21.1900   17.6338   26.0193 H   0  0  0  0  0  0  0  0  0  0  0  0
   19.7228   18.2606   25.2939 H   0  0  0  0  0  0  0  0  0  0  0  0
   21.3330   17.8889   23.8711 C   0  0  0  0  0  0  0  0  0  0  0  0
   20.9875   16.8636   23.6812 H   0  0  0  0  0  0  0  0  0  0  0  0
   22.4301   17.8374   23.8960 H   0  0  0  0  0  0  0  0  0  0  0  0
   20.9068   18.7897   22.6849 C   0  0  0  0  0  0  0  0  0  0  0  0
   21.3392   19.7923   22.8031 H   0  0  0  0  0  0  0  0  0  0  0  0
   21.3438   18.3783   21.7649 H   0  0  0  0  0  0  0  0  0  0  0  0
   19.3743   18.8966   22.5091 C   0  0  0  0  0  0  0  0  0  0  0  0
   18.9298   19.3736   23.3923 H   0  0  0  0  0  0  0  0  0  0  0  0
   18.9421   17.8894   22.4355 H   0  0  0  0  0  0  0  0  0  0  0  0
   18.9997   19.7121   21.2537 C   0  0  0  0  0  0  0  0  0  0  0  0
   19.4334   20.7192   21.3241 H   0  0  0  0  0  0  0  0  0  0  0  0
   19.4331   19.2394   20.3614 H   0  0  0  0  0  0  0  0  0  0  0  0
   17.4712   19.8229   21.0832 C   0  0  0  0  0  0  0  0  0  0  0  0
   17.0147   20.3216   21.9482 H   0  0  0  0  0  0  0  0  0  0  0  0
   17.2231   20.4052   20.1864 H   0  0  0  0  0  0  0  0  0  0  0  0
   17.0146   18.8298   20.9797 H   0  0  0  0  0  0  0  0  0  0  0  0
  1  2  1  0  0  0  0
  1  3  2  0  0  0  0
  1  4  1  0  0  0  0
  4  5  1  0  0  0  0
  4  6  1  0  0  0  0
  4  7  1  0  0  0  0
  7  8  1  0  0  0  0
  7  9  1  0  0  0  0
  7 10  1  0  0  0  0
 10 11  1  0  0  0  0
 10 12  1  0  0  0  0
 10 13  1  0  0  0  0
 13 14  1  0  0  0  0
 13 15  1  0  0  0  0
 13 16  1  0  0  0  0
 16 17  1  0  0  0  0
 16 18  1  0  0  0  0
 16 19  1  0  0  0  0
 19 20  1  0  0  0  0
 19 21  1  0  0  0  0
 19 22  1  0  0  0  0
 22 23  1  0  0  0  0
 22 24  1  0  0  0  0
 22 25  1  0  0  0  0
M  END
> <VConfSearch Rank>
371

> <Conf_Id>
135

> <Delta U+W>
1.314

> <U+W>
-50.316

> <U>
9.773

> <W>
-60.088

> <W(PB)>
-62.535

> <W(SA)>
2.447

> <Valence>
8.741

> <Coulomb>
0.479

> <VdW>
0.552

> <VdW6>
-10.627

> <VdW12>
11.179

> <Bond>
0.227

> <Angle>
3.155

> <Pdih>
5.358

> <Idih>
0.001

> <Tether>
0.000

$$$$
VeraChem MOL file


 25 24  0  0  0  0  0  0  0  0999 V2000     
   20.4546   15.0691   22.5055 C   0  0  0  0  0  0  0  0  0  0  0  0
   20.6796   14.4114   23.5023 O   0  5  0  0  0  0  0  0  0  0  0  0
   20.0093   14.6006   21.4764 O   0  0  0  0  0  0  0  0  0  0  0  0
   20.7243   16.5687   22.5561 C   0  0  0  0  0  0  0  0  0  0  0  0
   21.0157   16.8955   21.5507 H   0  0  0  0  0  0  0  0  0  0  0  0
   21.5862   16.7291   23.2130 H   0  0  0  0  0  0  0  0  0  0  0  0
   19.4986   17.3816   23.0486 C   0  0  0  0  0  0  0  0  0  0  0  0
   18.6320   17.1199   22.4257 H   0  0  0  0  0  0  0  0  0  0  0  0
   19.2447   17.0804   24.0743 H   0  0  0  0  0  0  0  0  0  0  0  0
   19.7043   18.9142   22.9881 C   0  0  0  0  0  0  0  0  0  0  0  0
   18.7403   19.3917   23.2041 H   0  0  0  0  0  0  0  0  0  0  0  0
   19.9826   19.2099   21.9675 H   0  0  0  0  0  0  0  0  0  0  0  0
   20.7601   19.4348   23.9925 C   0  0  0  0  0  0  0  0  0  0  0  0
   20.4440   19.1864   25.0147 H   0  0  0  0  0  0  0  0  0  0  0  0
   21.7113   18.9135   23.8285 H   0  0  0  0  0  0  0  0  0  0  0  0
   21.0333   20.9571   23.8944 C   0  0  0  0  0  0  0  0  0  0  0  0
   21.4395   21.2031   22.9038 H   0  0  0  0  0  0  0  0  0  0  0  0
   21.8311   21.1958   24.6109 H   0  0  0  0  0  0  0  0  0  0  0  0
   19.8141   21.8582   24.2135 C   0  0  0  0  0  0  0  0  0  0  0  0
   19.1194   21.3360   24.8857 H   0  0  0  0  0  0  0  0  0  0  0  0
   20.1647   22.7421   24.7641 H   0  0  0  0  0  0  0  0  0  0  0  0
   19.0721   22.3464   22.9492 C   0  0  0  0  0  0  0  0  0  0  0  0
   18.6861   21.5108   22.3542 H   0  0  0  0  0  0  0  0  0  0  0  0
   18.2217   22.9832   23.2249 H   0  0  0  0  0  0  0  0  0  0  0  0
   19.7400   22.9371   22.3089 H   0  0  0  0  0  0  0  0  0  0  0  0
  1  2  1  0  0  0  0
  1  3  2  0  0  0  0
  1  4  1  0  0  0  0
  4  5  1  0  0  0  0
  4  6  1  0  0  0  0
  4  7  1  0  0  0  0
  7  8  1  0  0  0  0
  7  9  1  0  0  0  0
  7 10  1  0  0  0  0
 10 11  1  0  0  0  0
 10 12  1  0  0  0  0
 10 13  1  0  0  0  0
 13 14  1  0  0  0  0
 13 15  1  0  0  0  0
 13 16  1  0  0  0  0
 16 17  1  0  0  0  0
 16 18  1  0  0  0  0
 16 19  1  0  0  0  0
 19 20  1  0  0  0  0
 19 21  1  0  0  0  0
 19 22  1  0  0  0  0
 22 23  1  0  0  0  0
 22 24  1  0  0  0  0
 22 25  1  0  0  0  0
M  END
> <VConfSearch Rank>
372

> <Conf_Id>
19

> <Delta U+W>
3.222

> <U+W>
-48.407

> <U>
10.617

> <W>
-59.025

> <W(PB)>
-61.462

> <W(SA)>
2.437

> <Valence>
11.188

> <Coulomb>
-1.778

> <VdW>
1.208

> <VdW6>
-9.786

> <VdW12>
10.993

> <Bond>
0.241

> <Angle>
3.294

> <Pdih>
7.653

> <Idih>
0.001

> <Tether>
0.000

$$$$
VeraChem MOL file


 25 24  0  0  0  0  0  0  0  0999 V2000     
   18.8608   16.7819   20.0335 C   0  0  0  0  0  0  0  0  0  0  0  0
   17.7188   16.9942   19.6765 O   0  5  0  0  0  0  0  0  0  0  0  0
   19.4678   15.7611   19.7758 O   0  0  0  0  0  0  0  0  0  0  0  0
   19.5630   17.8449   20.8708 C   0  0  0  0  0  0  0  0  0  0  0  0
   19.1974   18.8232   20.5398 H   0  0  0  0  0  0  0  0  0  0  0  0
   20.6348   17.8035   20.6430 H   0  0  0  0  0  0  0  0  0  0  0  0
   19.3318   17.6577   22.3930 C   0  0  0  0  0  0  0  0  0  0  0  0
   18.2600   17.7489   22.6170 H   0  0  0  0  0  0  0  0  0  0  0  0
   19.6193   16.6332   22.6672 H   0  0  0  0  0  0  0  0  0  0  0  0
   20.1365   18.6468   23.2700 C   0  0  0  0  0  0  0  0  0  0  0  0
   21.2050   18.5719   23.0266 H   0  0  0  0  0  0  0  0  0  0  0  0
   20.0276   18.3341   24.3161 H   0  0  0  0  0  0  0  0  0  0  0  0
   19.6678   20.1151   23.1323 C   0  0  0  0  0  0  0  0  0  0  0  0
   19.7088   20.4163   22.0783 H   0  0  0  0  0  0  0  0  0  0  0  0
   18.6143   20.1911   23.4343 H   0  0  0  0  0  0  0  0  0  0  0  0
   20.5104   21.1296   23.9462 C   0  0  0  0  0  0  0  0  0  0  0  0
   20.1204   22.1330   23.7274 H   0  0  0  0  0  0  0  0  0  0  0  0
   21.5488   21.1292   23.5875 H   0  0  0  0  0  0  0  0  0  0  0  0
   20.4726   20.9225   25.4811 C   0  0  0  0  0  0  0  0  0  0  0  0
   20.4627   21.9071   25.9686 H   0  0  0  0  0  0  0  0  0  0  0  0
   19.5376   20.4266   25.7762 H   0  0  0  0  0  0  0  0  0  0  0  0
   21.6894   20.1361   26.0180 C   0  0  0  0  0  0  0  0  0  0  0  0
   22.6249   20.6658   25.7958 H   0  0  0  0  0  0  0  0  0  0  0  0
   21.6208   20.0190   27.1072 H   0  0  0  0  0  0  0  0  0  0  0  0
   21.7555   19.1350   25.5769 H   0  0  0  0  0  0  0  0  0  0  0  0
  1  2  1  0  0  0  0
  1  3  2  0  0  0  0
  1  4  1  0  0  0  0
  4  5  1  0  0  0  0
  4  6  1  0  0  0  0
  4  7  1  0  0  0  0
  7  8  1  0  0  0  0
  7  9  1  0  0  0  0
  7 10  1  0  0  0  0
 10 11  1  0  0  0  0
 10 12  1  0  0  0  0
 10 13  1  0  0  0  0
 13 14  1  0  0  0  0
 13 15  1  0  0  0  0
 13 16  1  0  0  0  0
 16 17  1  0  0  0  0
 16 18  1  0  0  0  0
 16 19  1  0  0  0  0
 19 20  1  0  0  0  0
 19 21  1  0  0  0  0
 19 22  1  0  0  0  0
 22 23  1  0  0  0  0
 22 24  1  0  0  0  0
 22 25  1  0  0  0  0
M  END
> <VConfSearch Rank>
373

> <Conf_Id>
20

> <Delta U+W>
3.224

> <U+W>
-48.406

> <U>
10.617

> <W>
-59.023

> <W(PB)>
-61.467

> <W(SA)>
2.444

> <Valence>
11.188

> <Coulomb>
-1.778

> <VdW>
1.208

> <VdW6>
-9.786

> <VdW12>
10.993

> <Bond>
0.241

> <Angle>
3.294

> <Pdih>
7.653

> <Idih>
0.001

> <Tether>
0.000

$$$$
VeraChem MOL file


 25 24  0  0  0  0  0  0  0  0999 V2000     
   18.6184   22.1635   24.0914 C   0  0  0  0  0  0  0  0  0  0  0  0
   19.1830   22.9233   23.3288 O   0  5  0  0  0  0  0  0  0  0  0  0
   18.8780   22.0870   25.2763 O   0  0  0  0  0  0  0  0  0  0  0  0
   17.4771   21.3060   23.5478 C   0  0  0  0  0  0  0  0  0  0  0  0
   16.6982   22.0031   23.2181 H   0  0  0  0  0  0  0  0  0  0  0  0
   17.0474   20.7214   24.3702 H   0  0  0  0  0  0  0  0  0  0  0  0
   17.8548   20.3725   22.3633 C   0  0  0  0  0  0  0  0  0  0  0  0
   16.9299   20.1028   21.8359 H   0  0  0  0  0  0  0  0  0  0  0  0
   18.4686   20.9209   21.6352 H   0  0  0  0  0  0  0  0  0  0  0  0
   18.5645   19.0580   22.7728 C   0  0  0  0  0  0  0  0  0  0  0  0
   18.6426   18.4198   21.8820 H   0  0  0  0  0  0  0  0  0  0  0  0
   17.9405   18.5094   23.4915 H   0  0  0  0  0  0  0  0  0  0  0  0
   19.9783   19.2624   23.3627 C   0  0  0  0  0  0  0  0  0  0  0  0
   20.5696   19.8998   22.6910 H   0  0  0  0  0  0  0  0  0  0  0  0
   19.9087   19.7861   24.3244 H   0  0  0  0  0  0  0  0  0  0  0  0
   20.7079   17.9184   23.5763 C   0  0  0  0  0  0  0  0  0  0  0  0
   20.7910   17.3883   22.6176 H   0  0  0  0  0  0  0  0  0  0  0  0
   20.1128   17.2806   24.2443 H   0  0  0  0  0  0  0  0  0  0  0  0
   22.1154   18.1207   24.1760 C   0  0  0  0  0  0  0  0  0  0  0  0
   22.7135   18.7577   23.5097 H   0  0  0  0  0  0  0  0  0  0  0  0
   22.0361   18.6493   25.1361 H   0  0  0  0  0  0  0  0  0  0  0  0
   22.8412   16.7770   24.3887 C   0  0  0  0  0  0  0  0  0  0  0  0
   22.9622   16.2411   23.4381 H   0  0  0  0  0  0  0  0  0  0  0  0
   23.8395   16.9399   24.8153 H   0  0  0  0  0  0  0  0  0  0  0  0
   22.2796   16.1319   25.0769 H   0  0  0  0  0  0  0  0  0  0  0  0
  1  2  1  0  0  0  0
  1  3  2  0  0  0  0
  1  4  1  0  0  0  0
  4  5  1  0  0  0  0
  4  6  1  0  0  0  0
  4  7  1  0  0  0  0
  7  8  1  0  0  0  0
  7  9  1  0  0  0  0
  7 10  1  0  0  0  0
 10 11  1  0  0  0  0
 10 12  1  0  0  0  0
 10 13  1  0  0  0  0
 13 14  1  0  0  0  0
 13 15  1  0  0  0  0
 13 16  1  0  0  0  0
 16 17  1  0  0  0  0
 16 18  1  0  0  0  0
 16 19  1  0  0  0  0
 19 20  1  0  0  0  0
 19 21  1  0  0  0  0
 19 22  1  0  0  0  0
 22 23  1  0  0  0  0
 22 24  1  0  0  0  0
 22 25  1  0  0  0  0
M  END
> <VConfSearch Rank>
374

> <Conf_Id>
24

> <Delta U+W>
1.784

> <U+W>
-49.846

> <U>
10.904

> <W>
-60.749

> <W(PB)>
-63.220

> <W(SA)>
2.471

> <Valence>
9.445

> <Coulomb>
0.780

> <VdW>
0.679

> <VdW6>
-10.008

> <VdW12>
10.687

> <Bond>
0.201

> <Angle>
3.198

> <Pdih>
6.039

> <Idih>
0.006

> <Tether>
0.000

$$$$
VeraChem MOL file


 25 24  0  0  0  0  0  0  0  0999 V2000     
   20.1137   21.6992   25.2906 C   0  0  0  0  0  0  0  0  0  0  0  0
   19.7860   22.5833   24.5234 O   0  5  0  0  0  0  0  0  0  0  0  0
   19.3578   21.2003   26.1011 O   0  0  0  0  0  0  0  0  0  0  0  0
   21.5691   21.2353   25.2831 C   0  0  0  0  0  0  0  0  0  0  0  0
   21.7054   20.4765   26.0631 H   0  0  0  0  0  0  0  0  0  0  0  0
   22.1702   22.1023   25.5804 H   0  0  0  0  0  0  0  0  0  0  0  0
   22.0888   20.7036   23.9177 C   0  0  0  0  0  0  0  0  0  0  0  0
   21.7650   21.3720   23.1077 H   0  0  0  0  0  0  0  0  0  0  0  0
   23.1860   20.7537   23.9298 H   0  0  0  0  0  0  0  0  0  0  0  0
   21.6869   19.2433   23.5937 C   0  0  0  0  0  0  0  0  0  0  0  0
   22.0240   18.5792   24.4012 H   0  0  0  0  0  0  0  0  0  0  0  0
   22.2300   18.9315   22.6910 H   0  0  0  0  0  0  0  0  0  0  0  0
   20.1729   19.0442   23.3557 C   0  0  0  0  0  0  0  0  0  0  0  0
   19.6223   19.2243   24.2876 H   0  0  0  0  0  0  0  0  0  0  0  0
   19.8147   19.7802   22.6228 H   0  0  0  0  0  0  0  0  0  0  0  0
   19.8560   17.6183   22.8548 C   0  0  0  0  0  0  0  0  0  0  0  0
   20.2191   16.8838   23.5866 H   0  0  0  0  0  0  0  0  0  0  0  0
   20.3956   17.4294   21.9167 H   0  0  0  0  0  0  0  0  0  0  0  0
   18.3432   17.4150   22.6278 C   0  0  0  0  0  0  0  0  0  0  0  0
   17.8000   17.6014   23.5648 H   0  0  0  0  0  0  0  0  0  0  0  0
   17.9769   18.1479   21.8957 H   0  0  0  0  0  0  0  0  0  0  0  0
   18.0297   15.9903   22.1281 C   0  0  0  0  0  0  0  0  0  0  0  0
   18.3576   15.2375   22.8569 H   0  0  0  0  0  0  0  0  0  0  0  0
   16.9505   15.8637   21.9724 H   0  0  0  0  0  0  0  0  0  0  0  0
   18.5357   15.7882   21.1750 H   0  0  0  0  0  0  0  0  0  0  0  0
  1  2  1  0  0  0  0
  1  3  2  0  0  0  0
  1  4  1  0  0  0  0
  4  5  1  0  0  0  0
  4  6  1  0  0  0  0
  4  7  1  0  0  0  0
  7  8  1  0  0  0  0
  7  9  1  0  0  0  0
  7 10  1  0  0  0  0
 10 11  1  0  0  0  0
 10 12  1  0  0  0  0
 10 13  1  0  0  0  0
 13 14  1  0  0  0  0
 13 15  1  0  0  0  0
 13 16  1  0  0  0  0
 16 17  1  0  0  0  0
 16 18  1  0  0  0  0
 16 19  1  0  0  0  0
 19 20  1  0  0  0  0
 19 21  1  0  0  0  0
 19 22  1  0  0  0  0
 22 23  1  0  0  0  0
 22 24  1  0  0  0  0
 22 25  1  0  0  0  0
M  END
> <VConfSearch Rank>
375

> <Conf_Id>
9

> <Delta U+W>
1.764

> <U+W>
-49.865

> <U>
10.902

> <W>
-60.768

> <W(PB)>
-63.223

> <W(SA)>
2.456

> <Valence>
9.445

> <Coulomb>
0.778

> <VdW>
0.679

> <VdW6>
-10.007

> <VdW12>
10.687

> <Bond>
0.201

> <Angle>
3.198

> <Pdih>
6.040

> <Idih>
0.006

> <Tether>
0.000

$$$$
VeraChem MOL file


 25 24  0  0  0  0  0  0  0  0999 V2000     
   21.6136   16.9018   25.8397 C   0  0  0  0  0  0  0  0  0  0  0  0
   22.2358   16.3408   24.9596 O   0  5  0  0  0  0  0  0  0  0  0  0
   21.8831   16.8062   27.0208 O   0  0  0  0  0  0  0  0  0  0  0  0
   20.4423   17.7913   25.4389 C   0  0  0  0  0  0  0  0  0  0  0  0
   19.6893   17.7372   26.2341 H   0  0  0  0  0  0  0  0  0  0  0  0
   19.9885   17.3622   24.5403 H   0  0  0  0  0  0  0  0  0  0  0  0
   20.8627   19.2664   25.2041 C   0  0  0  0  0  0  0  0  0  0  0  0
   21.3029   19.6444   26.1372 H   0  0  0  0  0  0  0  0  0  0  0  0
   21.6587   19.3173   24.4484 H   0  0  0  0  0  0  0  0  0  0  0  0
   19.6832   20.1889   24.8037 C   0  0  0  0  0  0  0  0  0  0  0  0
   19.8559   21.1771   25.2515 H   0  0  0  0  0  0  0  0  0  0  0  0
   18.7457   19.8220   25.2435 H   0  0  0  0  0  0  0  0  0  0  0  0
   19.5121   20.3939   23.2775 C   0  0  0  0  0  0  0  0  0  0  0  0
   18.7083   21.1249   23.1158 H   0  0  0  0  0  0  0  0  0  0  0  0
   20.4270   20.8455   22.8721 H   0  0  0  0  0  0  0  0  0  0  0  0
   19.1786   19.1009   22.4964 C   0  0  0  0  0  0  0  0  0  0  0  0
   18.3573   18.5764   23.0030 H   0  0  0  0  0  0  0  0  0  0  0  0
   20.0442   18.4257   22.5095 H   0  0  0  0  0  0  0  0  0  0  0  0
   18.7662   19.3619   21.0289 C   0  0  0  0  0  0  0  0  0  0  0  0
   18.4526   18.4112   20.5761 H   0  0  0  0  0  0  0  0  0  0  0  0
   17.8889   20.0227   21.0018 H   0  0  0  0  0  0  0  0  0  0  0  0
   19.9008   19.9699   20.1761 C   0  0  0  0  0  0  0  0  0  0  0  0
   20.7981   19.3383   20.2087 H   0  0  0  0  0  0  0  0  0  0  0  0
   19.5878   20.0591   19.1278 H   0  0  0  0  0  0  0  0  0  0  0  0
   20.1726   20.9727   20.5286 H   0  0  0  0  0  0  0  0  0  0  0  0
  1  2  1  0  0  0  0
  1  3  2  0  0  0  0
  1  4  1  0  0  0  0
  4  5  1  0  0  0  0
  4  6  1  0  0  0  0
  4  7  1  0  0  0  0
  7  8  1  0  0  0  0
  7  9  1  0  0  0  0
  7 10  1  0  0  0  0
 10 11  1  0  0  0  0
 10 12  1  0  0  0  0
 10 13  1  0  0  0  0
 13 14  1  0  0  0  0
 13 15  1  0  0  0  0
 13 16  1  0  0  0  0
 16 17  1  0  0  0  0
 16 18  1  0  0  0  0
 16 19  1  0  0  0  0
 19 20  1  0  0  0  0
 19 21  1  0  0  0  0
 19 22  1  0  0  0  0
 22 23  1  0  0  0  0
 22 24  1  0  0  0  0
 22 25  1  0  0  0  0
M  END
> <VConfSearch Rank>
376

> <Conf_Id>
89

> <Delta U+W>
2.903

> <U+W>
-48.726

> <U>
10.996

> <W>
-59.723

> <W(PB)>
-62.151

> <W(SA)>
2.428

> <Valence>
10.985

> <Coulomb>
-0.995

> <VdW>
1.006

> <VdW6>
-10.062

> <VdW12>
11.069

> <Bond>
0.238

> <Angle>
3.202

> <Pdih>
7.544

> <Idih>
0.001

> <Tether>
0.000

$$$$
VeraChem MOL file


 25 24  0  0  0  0  0  0  0  0999 V2000     
   19.8183   20.3009   20.2625 C   0  0  0  0  0  0  0  0  0  0  0  0
   18.8184   19.7070   19.9095 O   0  5  0  0  0  0  0  0  0  0  0  0
   19.8726   21.5092   20.3840 O   0  0  0  0  0  0  0  0  0  0  0  0
   21.0901   19.4899   20.5033 C   0  0  0  0  0  0  0  0  0  0  0  0
   21.8113   19.8175   19.7457 H   0  0  0  0  0  0  0  0  0  0  0  0
   20.8824   18.4320   20.3016 H   0  0  0  0  0  0  0  0  0  0  0  0
   21.7267   19.6555   21.9121 C   0  0  0  0  0  0  0  0  0  0  0  0
   22.7829   19.3623   21.8419 H   0  0  0  0  0  0  0  0  0  0  0  0
   21.7269   20.7156   22.2017 H   0  0  0  0  0  0  0  0  0  0  0  0
   21.0749   18.8003   23.0273 C   0  0  0  0  0  0  0  0  0  0  0  0
   21.7120   18.8739   23.9174 H   0  0  0  0  0  0  0  0  0  0  0  0
   21.0786   17.7425   22.7314 H   0  0  0  0  0  0  0  0  0  0  0  0
   19.6341   19.2331   23.3924 C   0  0  0  0  0  0  0  0  0  0  0  0
   19.6150   20.3054   23.6302 H   0  0  0  0  0  0  0  0  0  0  0  0
   18.9837   19.0955   22.5201 H   0  0  0  0  0  0  0  0  0  0  0  0
   19.0255   18.4283   24.5659 C   0  0  0  0  0  0  0  0  0  0  0  0
   19.0750   17.3542   24.3408 H   0  0  0  0  0  0  0  0  0  0  0  0
   17.9588   18.6802   24.6410 H   0  0  0  0  0  0  0  0  0  0  0  0
   19.7003   18.7096   25.9278 C   0  0  0  0  0  0  0  0  0  0  0  0
   20.7498   18.3889   25.9058 H   0  0  0  0  0  0  0  0  0  0  0  0
   19.6992   19.7904   26.1255 H   0  0  0  0  0  0  0  0  0  0  0  0
   18.9784   17.9785   27.0778 C   0  0  0  0  0  0  0  0  0  0  0  0
   18.9879   16.8921   26.9193 H   0  0  0  0  0  0  0  0  0  0  0  0
   19.4705   18.1854   28.0370 H   0  0  0  0  0  0  0  0  0  0  0  0
   17.9329   18.3045   27.1564 H   0  0  0  0  0  0  0  0  0  0  0  0
  1  2  1  0  0  0  0
  1  3  2  0  0  0  0
  1  4  1  0  0  0  0
  4  5  1  0  0  0  0
  4  6  1  0  0  0  0
  4  7  1  0  0  0  0
  7  8  1  0  0  0  0
  7  9  1  0  0  0  0
  7 10  1  0  0  0  0
 10 11  1  0  0  0  0
 10 12  1  0  0  0  0
 10 13  1  0  0  0  0
 13 14  1  0  0  0  0
 13 15  1  0  0  0  0
 13 16  1  0  0  0  0
 16 17  1  0  0  0  0
 16 18  1  0  0  0  0
 16 19  1  0  0  0  0
 19 20  1  0  0  0  0
 19 21  1  0  0  0  0
 19 22  1  0  0  0  0
 22 23  1  0  0  0  0
 22 24  1  0  0  0  0
 22 25  1  0  0  0  0
M  END
> <VConfSearch Rank>
377

> <Conf_Id>
114

> <Delta U+W>
2.758

> <U+W>
-48.871

> <U>
11.422

> <W>
-60.293

> <W(PB)>
-62.719

> <W(SA)>
2.425

> <Valence>
10.135

> <Coulomb>
0.369

> <VdW>
0.918

> <VdW6>
-10.482

> <VdW12>
11.400

> <Bond>
0.245

> <Angle>
3.539

> <Pdih>
6.346

> <Idih>
0.006

> <Tether>
0.000

$$$$
VeraChem MOL file


 25 24  0  0  0  0  0  0  0  0999 V2000     
   21.2976   16.5425   20.7515 C   0  0  0  0  0  0  0  0  0  0  0  0
   20.4938   16.6479   19.8460 O   0  5  0  0  0  0  0  0  0  0  0  0
   22.4865   16.7600   20.6244 O   0  0  0  0  0  0  0  0  0  0  0  0
   20.7914   16.0924   22.1190 C   0  0  0  0  0  0  0  0  0  0  0  0
   21.4828   15.3263   22.4893 H   0  0  0  0  0  0  0  0  0  0  0  0
   19.8178   15.6048   21.9888 H   0  0  0  0  0  0  0  0  0  0  0  0
   20.6831   17.2385   23.1582 C   0  0  0  0  0  0  0  0  0  0  0  0
   20.4395   16.8086   24.1391 H   0  0  0  0  0  0  0  0  0  0  0  0
   21.6641   17.7212   23.2572 H   0  0  0  0  0  0  0  0  0  0  0  0
   19.6069   18.2832   22.7765 C   0  0  0  0  0  0  0  0  0  0  0  0
   18.6570   17.7635   22.5913 H   0  0  0  0  0  0  0  0  0  0  0  0
   19.8800   18.7732   21.8318 H   0  0  0  0  0  0  0  0  0  0  0  0
   19.3730   19.3574   23.8656 C   0  0  0  0  0  0  0  0  0  0  0  0
   18.5015   19.9551   23.5699 H   0  0  0  0  0  0  0  0  0  0  0  0
   19.1090   18.8694   24.8136 H   0  0  0  0  0  0  0  0  0  0  0  0
   20.5886   20.2930   24.0796 C   0  0  0  0  0  0  0  0  0  0  0  0
   20.8544   20.7779   23.1305 H   0  0  0  0  0  0  0  0  0  0  0  0
   21.4598   19.6972   24.3797 H   0  0  0  0  0  0  0  0  0  0  0  0
   20.3509   21.3711   25.1629 C   0  0  0  0  0  0  0  0  0  0  0  0
   20.0734   20.8900   26.1109 H   0  0  0  0  0  0  0  0  0  0  0  0
   21.2975   21.8974   25.3481 H   0  0  0  0  0  0  0  0  0  0  0  0
   19.2763   22.4090   24.7717 C   0  0  0  0  0  0  0  0  0  0  0  0
   19.2160   23.2021   25.5281 H   0  0  0  0  0  0  0  0  0  0  0  0
   19.5157   22.8785   23.8086 H   0  0  0  0  0  0  0  0  0  0  0  0
   18.2833   21.9494   24.6939 H   0  0  0  0  0  0  0  0  0  0  0  0
  1  2  1  0  0  0  0
  1  3  2  0  0  0  0
  1  4  1  0  0  0  0
  4  5  1  0  0  0  0
  4  6  1  0  0  0  0
  4  7  1  0  0  0  0
  7  8  1  0  0  0  0
  7  9  1  0  0  0  0
  7 10  1  0  0  0  0
 10 11  1  0  0  0  0
 10 12  1  0  0  0  0
 10 13  1  0  0  0  0
 13 14  1  0  0  0  0
 13 15  1  0  0  0  0
 13 16  1  0  0  0  0
 16 17  1  0  0  0  0
 16 18  1  0  0  0  0
 16 19  1  0  0  0  0
 19 20  1  0  0  0  0
 19 21  1  0  0  0  0
 19 22  1  0  0  0  0
 22 23  1  0  0  0  0
 22 24  1  0  0  0  0
 22 25  1  0  0  0  0
M  END
> <VConfSearch Rank>
378

> <Conf_Id>
87

> <Delta U+W>
1.453

> <U+W>
-50.176

> <U>
9.763

> <W>
-59.940

> <W(PB)>
-62.392

> <W(SA)>
2.452

> <Valence>
8.883

> <Coulomb>
-0.122

> <VdW>
1.003

> <VdW6>
-9.782

> <VdW12>
10.785

> <Bond>
0.212

> <Angle>
2.940

> <Pdih>
5.730

> <Idih>
0.001

> <Tether>
0.000

$$$$
VeraChem MOL file


 25 24  0  0  0  0  0  0  0  0999 V2000     
   17.8743   17.5061   20.4502 C   0  0  0  0  0  0  0  0  0  0  0  0
   17.5096   18.4909   19.8388 O   0  5  0  0  0  0  0  0  0  0  0  0
   18.0797   16.4278   19.9290 O   0  0  0  0  0  0  0  0  0  0  0  0
   18.1046   17.6353   21.9517 C   0  0  0  0  0  0  0  0  0  0  0  0
   17.8576   16.6740   22.4181 H   0  0  0  0  0  0  0  0  0  0  0  0
   17.3975   18.3769   22.3424 H   0  0  0  0  0  0  0  0  0  0  0  0
   19.5559   18.0443   22.3045 C   0  0  0  0  0  0  0  0  0  0  0  0
   20.2528   17.2974   21.8999 H   0  0  0  0  0  0  0  0  0  0  0  0
   19.7859   18.9979   21.8110 H   0  0  0  0  0  0  0  0  0  0  0  0
   19.7600   18.1749   23.8315 C   0  0  0  0  0  0  0  0  0  0  0  0
   19.4590   17.2351   24.3139 H   0  0  0  0  0  0  0  0  0  0  0  0
   19.0923   18.9495   24.2309 H   0  0  0  0  0  0  0  0  0  0  0  0
   21.2243   18.4824   24.2338 C   0  0  0  0  0  0  0  0  0  0  0  0
   21.2948   18.4998   25.3293 H   0  0  0  0  0  0  0  0  0  0  0  0
   21.8630   17.6502   23.9086 H   0  0  0  0  0  0  0  0  0  0  0  0
   21.8048   19.8036   23.6634 C   0  0  0  0  0  0  0  0  0  0  0  0
   21.8877   19.7227   22.5717 H   0  0  0  0  0  0  0  0  0  0  0  0
   22.8333   19.9209   24.0306 H   0  0  0  0  0  0  0  0  0  0  0  0
   21.0024   21.0813   24.0123 C   0  0  0  0  0  0  0  0  0  0  0  0
   21.4911   21.9426   23.5367 H   0  0  0  0  0  0  0  0  0  0  0  0
   19.9954   21.0255   23.5778 H   0  0  0  0  0  0  0  0  0  0  0  0
   20.9015   21.3429   25.5307 C   0  0  0  0  0  0  0  0  0  0  0  0
   21.8981   21.3862   25.9887 H   0  0  0  0  0  0  0  0  0  0  0  0
   20.3982   22.2991   25.7234 H   0  0  0  0  0  0  0  0  0  0  0  0
   20.3252   20.5560   26.0331 H   0  0  0  0  0  0  0  0  0  0  0  0
  1  2  1  0  0  0  0
  1  3  2  0  0  0  0
  1  4  1  0  0  0  0
  4  5  1  0  0  0  0
  4  6  1  0  0  0  0
  4  7  1  0  0  0  0
  7  8  1  0  0  0  0
  7  9  1  0  0  0  0
  7 10  1  0  0  0  0
 10 11  1  0  0  0  0
 10 12  1  0  0  0  0
 10 13  1  0  0  0  0
 13 14  1  0  0  0  0
 13 15  1  0  0  0  0
 13 16  1  0  0  0  0
 16 17  1  0  0  0  0
 16 18  1  0  0  0  0
 16 19  1  0  0  0  0
 19 20  1  0  0  0  0
 19 21  1  0  0  0  0
 19 22  1  0  0  0  0
 22 23  1  0  0  0  0
 22 24  1  0  0  0  0
 22 25  1  0  0  0  0
M  END
> <VConfSearch Rank>
379

> <Conf_Id>
29

> <Delta U+W>
0.850

> <U+W>
-50.780

> <U>
8.646

> <W>
-59.426

> <W(PB)>
-61.868

> <W(SA)>
2.442

> <Valence>
8.924

> <Coulomb>
-1.171

> <VdW>
0.894

> <VdW6>
-10.223

> <VdW12>
11.117

> <Bond>
0.231

> <Angle>
3.232

> <Pdih>
5.461

> <Idih>
0.001

> <Tether>
0.000

$$$$
VeraChem MOL file


 25 24  0  0  0  0  0  0  0  0999 V2000     
   23.6173   17.9306   22.3353 C   0  0  0  0  0  0  0  0  0  0  0  0
   23.9234   17.2513   23.2952 O   0  5  0  0  0  0  0  0  0  0  0  0
   24.4180   18.5633   21.6754 O   0  0  0  0  0  0  0  0  0  0  0  0
   22.1447   18.0088   21.9487 C   0  0  0  0  0  0  0  0  0  0  0  0
   21.6749   17.0505   22.2008 H   0  0  0  0  0  0  0  0  0  0  0  0
   22.0840   18.1235   20.8598 H   0  0  0  0  0  0  0  0  0  0  0  0
   21.3992   19.1698   22.6518 C   0  0  0  0  0  0  0  0  0  0  0  0
   21.4909   19.0439   23.7388 H   0  0  0  0  0  0  0  0  0  0  0  0
   21.8855   20.1215   22.3970 H   0  0  0  0  0  0  0  0  0  0  0  0
   19.9076   19.2216   22.2482 C   0  0  0  0  0  0  0  0  0  0  0  0
   19.4112   18.2863   22.5386 H   0  0  0  0  0  0  0  0  0  0  0  0
   19.8353   19.2774   21.1535 H   0  0  0  0  0  0  0  0  0  0  0  0
   19.1477   20.4305   22.8494 C   0  0  0  0  0  0  0  0  0  0  0  0
   19.6005   21.3570   22.4710 H   0  0  0  0  0  0  0  0  0  0  0  0
   18.1179   20.4268   22.4688 H   0  0  0  0  0  0  0  0  0  0  0  0
   19.1193   20.4911   24.3996 C   0  0  0  0  0  0  0  0  0  0  0  0
   18.5403   21.3733   24.7045 H   0  0  0  0  0  0  0  0  0  0  0  0
   20.1368   20.6606   24.7754 H   0  0  0  0  0  0  0  0  0  0  0  0
   18.5282   19.2415   25.0977 C   0  0  0  0  0  0  0  0  0  0  0  0
   19.1446   18.3595   24.8787 H   0  0  0  0  0  0  0  0  0  0  0  0
   18.5838   19.3886   26.1850 H   0  0  0  0  0  0  0  0  0  0  0  0
   17.0605   18.9620   24.7082 C   0  0  0  0  0  0  0  0  0  0  0  0
   16.9725   18.7042   23.6454 H   0  0  0  0  0  0  0  0  0  0  0  0
   16.6623   18.1202   25.2893 H   0  0  0  0  0  0  0  0  0  0  0  0
   16.4286   19.8379   24.9040 H   0  0  0  0  0  0  0  0  0  0  0  0
  1  2  1  0  0  0  0
  1  3  2  0  0  0  0
  1  4  1  0  0  0  0
  4  5  1  0  0  0  0
  4  6  1  0  0  0  0
  4  7  1  0  0  0  0
  7  8  1  0  0  0  0
  7  9  1  0  0  0  0
  7 10  1  0  0  0  0
 10 11  1  0  0  0  0
 10 12  1  0  0  0  0
 10 13  1  0  0  0  0
 13 14  1  0  0  0  0
 13 15  1  0  0  0  0
 13 16  1  0  0  0  0
 16 17  1  0  0  0  0
 16 18  1  0  0  0  0
 16 19  1  0  0  0  0
 19 20  1  0  0  0  0
 19 21  1  0  0  0  0
 19 22  1  0  0  0  0
 22 23  1  0  0  0  0
 22 24  1  0  0  0  0
 22 25  1  0  0  0  0
M  END
> <VConfSearch Rank>
380

> <Conf_Id>
30

> <Delta U+W>
0.843

> <U+W>
-50.787

> <U>
8.647

> <W>
-59.434

> <W(PB)>
-61.861

> <W(SA)>
2.428

> <Valence>
8.924

> <Coulomb>
-1.170

> <VdW>
0.894

> <VdW6>
-10.224

> <VdW12>
11.118

> <Bond>
0.231

> <Angle>
3.232

> <Pdih>
5.460

> <Idih>
0.000

> <Tether>
0.000

$$$$
VeraChem MOL file


 25 24  0  0  0  0  0  0  0  0999 V2000     
   16.0275   19.1289   25.5290 C   0  0  0  0  0  0  0  0  0  0  0  0
   15.4231   18.5456   24.6498 O   0  5  0  0  0  0  0  0  0  0  0  0
   15.5127   19.4684   26.5758 O   0  0  0  0  0  0  0  0  0  0  0  0
   17.5072   19.4657   25.3374 C   0  0  0  0  0  0  0  0  0  0  0  0
   18.0572   19.0055   26.1666 H   0  0  0  0  0  0  0  0  0  0  0  0
   17.6120   20.5516   25.4461 H   0  0  0  0  0  0  0  0  0  0  0  0
   18.1199   19.0122   23.9856 C   0  0  0  0  0  0  0  0  0  0  0  0
   18.0057   17.9243   23.8804 H   0  0  0  0  0  0  0  0  0  0  0  0
   17.5602   19.4719   23.1592 H   0  0  0  0  0  0  0  0  0  0  0  0
   19.6129   19.3909   23.8759 C   0  0  0  0  0  0  0  0  0  0  0  0
   20.1704   18.9303   24.7030 H   0  0  0  0  0  0  0  0  0  0  0  0
   19.7246   20.4788   23.9814 H   0  0  0  0  0  0  0  0  0  0  0  0
   20.2204   18.9388   22.5305 C   0  0  0  0  0  0  0  0  0  0  0  0
   20.1088   17.8509   22.4247 H   0  0  0  0  0  0  0  0  0  0  0  0
   19.6631   19.3993   21.7031 H   0  0  0  0  0  0  0  0  0  0  0  0
   21.7132   19.3171   22.4201 C   0  0  0  0  0  0  0  0  0  0  0  0
   22.2707   18.8567   23.2473 H   0  0  0  0  0  0  0  0  0  0  0  0
   21.8250   20.4050   22.5257 H   0  0  0  0  0  0  0  0  0  0  0  0
   22.3205   18.8652   21.0754 C   0  0  0  0  0  0  0  0  0  0  0  0
   22.2122   17.7771   20.9670 H   0  0  0  0  0  0  0  0  0  0  0  0
   21.7665   19.3254   20.2454 H   0  0  0  0  0  0  0  0  0  0  0  0
   23.8112   19.2448   20.9690 C   0  0  0  0  0  0  0  0  0  0  0  0
   24.3951   18.7720   21.7696 H   0  0  0  0  0  0  0  0  0  0  0  0
   24.2265   18.9162   20.0074 H   0  0  0  0  0  0  0  0  0  0  0  0
   23.9460   20.3319   21.0426 H   0  0  0  0  0  0  0  0  0  0  0  0
  1  2  1  0  0  0  0
  1  3  2  0  0  0  0
  1  4  1  0  0  0  0
  4  5  1  0  0  0  0
  4  6  1  0  0  0  0
  4  7  1  0  0  0  0
  7  8  1  0  0  0  0
  7  9  1  0  0  0  0
  7 10  1  0  0  0  0
 10 11  1  0  0  0  0
 10 12  1  0  0  0  0
 10 13  1  0  0  0  0
 13 14  1  0  0  0  0
 13 15  1  0  0  0  0
 13 16  1  0  0  0  0
 16 17  1  0  0  0  0
 16 18  1  0  0  0  0
 16 19  1  0  0  0  0
 19 20  1  0  0  0  0
 19 21  1  0  0  0  0
 19 22  1  0  0  0  0
 22 23  1  0  0  0  0
 22 24  1  0  0  0  0
 22 25  1  0  0  0  0
M  END
> <VConfSearch Rank>
381

> <Conf_Id>
0

> <Delta U+W>
0.000

> <U+W>
-51.629

> <U>
6.586

> <W>
-58.216

> <W(PB)>
-60.757

> <W(SA)>
2.541

> <Valence>
8.027

> <Coulomb>
-2.892

> <VdW>
1.451

> <VdW6>
-7.931

> <VdW12>
9.383

> <Bond>
0.149

> <Angle>
2.726

> <Pdih>
5.152

> <Idih>
0.000

> <Tether>
0.000

$$$$
VeraChem MOL file


 25 24  0  0  0  0  0  0  0  0999 V2000     
   20.6638   17.8822   18.6743 C   0  0  0  0  0  0  0  0  0  0  0  0
   21.8046   17.9661   18.2640 O   0  5  0  0  0  0  0  0  0  0  0  0
   19.8688   17.0484   18.2879 O   0  0  0  0  0  0  0  0  0  0  0  0
   20.2120   18.8631   19.7503 C   0  0  0  0  0  0  0  0  0  0  0  0
   19.1419   19.0557   19.6080 H   0  0  0  0  0  0  0  0  0  0  0  0
   20.7368   19.8123   19.5878 H   0  0  0  0  0  0  0  0  0  0  0  0
   20.4760   18.3449   21.1855 C   0  0  0  0  0  0  0  0  0  0  0  0
   19.9548   17.3880   21.3274 H   0  0  0  0  0  0  0  0  0  0  0  0
   21.5496   18.1444   21.3072 H   0  0  0  0  0  0  0  0  0  0  0  0
   20.0104   19.3552   22.2562 C   0  0  0  0  0  0  0  0  0  0  0  0
   18.9371   19.5543   22.1312 H   0  0  0  0  0  0  0  0  0  0  0  0
   20.5323   20.3111   22.1108 H   0  0  0  0  0  0  0  0  0  0  0  0
   20.2750   18.8360   23.6859 C   0  0  0  0  0  0  0  0  0  0  0  0
   19.7532   17.8802   23.8316 H   0  0  0  0  0  0  0  0  0  0  0  0
   21.3482   18.6369   23.8112 H   0  0  0  0  0  0  0  0  0  0  0  0
   19.8097   19.8459   24.7572 C   0  0  0  0  0  0  0  0  0  0  0  0
   18.7365   20.0451   24.6322 H   0  0  0  0  0  0  0  0  0  0  0  0
   20.3314   20.8018   24.6117 H   0  0  0  0  0  0  0  0  0  0  0  0
   20.0742   19.3271   26.1863 C   0  0  0  0  0  0  0  0  0  0  0  0
   19.5523   18.3717   26.3361 H   0  0  0  0  0  0  0  0  0  0  0  0
   21.1472   19.1284   26.3156 H   0  0  0  0  0  0  0  0  0  0  0  0
   19.6082   20.3382   27.2530 C   0  0  0  0  0  0  0  0  0  0  0  0
   19.8037   19.9534   28.2624 H   0  0  0  0  0  0  0  0  0  0  0  0
   20.1377   21.2940   27.1463 H   0  0  0  0  0  0  0  0  0  0  0  0
   18.5309   20.5317   27.1669 H   0  0  0  0  0  0  0  0  0  0  0  0
  1  2  1  0  0  0  0
  1  3  2  0  0  0  0
  1  4  1  0  0  0  0
  4  5  1  0  0  0  0
  4  6  1  0  0  0  0
  4  7  1  0  0  0  0
  7  8  1  0  0  0  0
  7  9  1  0  0  0  0
  7 10  1  0  0  0  0
 10 11  1  0  0  0  0
 10 12  1  0  0  0  0
 10 13  1  0  0  0  0
 13 14  1  0  0  0  0
 13 15  1  0  0  0  0
 13 16  1  0  0  0  0
 16 17  1  0  0  0  0
 16 18  1  0  0  0  0
 16 19  1  0  0  0  0
 19 20  1  0  0  0  0
 19 21  1  0  0  0  0
 19 22  1  0  0  0  0
 22 23  1  0  0  0  0
 22 24  1  0  0  0  0
 22 25  1  0  0  0  0
M  END
> <VConfSearch Rank>
382

> <Conf_Id>
27

> <Delta U+W>
-1.297

> <U+W>
-52.926

> <U>
5.617

> <W>
-58.543

> <W(PB)>
-61.065

> <W(SA)>
2.522

> <Valence>
7.531

> <Coulomb>
-2.818

> <VdW>
0.904

> <VdW6>
-7.640

> <VdW12>
8.544

> <Bond>
0.115

> <Angle>
2.271

> <Pdih>
5.144

> <Idih>
0.001

> <Tether>
0.000

$$$$
VeraChem MOL file


 25 24  0  0  0  0  0  0  0  0999 V2000     
   18.2228   22.2595   24.8150 C   0  0  0  0  0  0  0  0  0  0  0  0
   17.1490   22.4496   24.2784 O   0  5  0  0  0  0  0  0  0  0  0  0
   18.3442   21.9219   25.9762 O   0  0  0  0  0  0  0  0  0  0  0  0
   19.4874   22.4735   23.9880 C   0  0  0  0  0  0  0  0  0  0  0  0
   20.3351   22.6030   24.6717 H   0  0  0  0  0  0  0  0  0  0  0  0
   19.3689   23.4195   23.4466 H   0  0  0  0  0  0  0  0  0  0  0  0
   19.7817   21.3327   22.9797 C   0  0  0  0  0  0  0  0  0  0  0  0
   18.9132   21.1967   22.3203 H   0  0  0  0  0  0  0  0  0  0  0  0
   20.6218   21.6318   22.3383 H   0  0  0  0  0  0  0  0  0  0  0  0
   20.1236   19.9968   23.6771 C   0  0  0  0  0  0  0  0  0  0  0  0
   19.2804   19.6818   24.3074 H   0  0  0  0  0  0  0  0  0  0  0  0
   20.9837   20.1411   24.3452 H   0  0  0  0  0  0  0  0  0  0  0  0
   20.4441   18.8842   22.6557 C   0  0  0  0  0  0  0  0  0  0  0  0
   19.5834   18.7406   21.9881 H   0  0  0  0  0  0  0  0  0  0  0  0
   21.2889   19.1958   22.0262 H   0  0  0  0  0  0  0  0  0  0  0  0
   20.7849   17.5489   23.3518 C   0  0  0  0  0  0  0  0  0  0  0  0
   19.9402   17.2372   23.9814 H   0  0  0  0  0  0  0  0  0  0  0  0
   21.6454   17.6923   24.0197 H   0  0  0  0  0  0  0  0  0  0  0  0
   21.1048   16.4364   22.3313 C   0  0  0  0  0  0  0  0  0  0  0  0
   20.2454   16.2889   21.6626 H   0  0  0  0  0  0  0  0  0  0  0  0
   21.9507   16.7439   21.7010 H   0  0  0  0  0  0  0  0  0  0  0  0
   21.4444   15.1047   23.0304 C   0  0  0  0  0  0  0  0  0  0  0  0
   20.6027   14.7571   23.6437 H   0  0  0  0  0  0  0  0  0  0  0  0
   21.6690   14.3255   22.2905 H   0  0  0  0  0  0  0  0  0  0  0  0
   22.3208   15.2156   23.6824 H   0  0  0  0  0  0  0  0  0  0  0  0
  1  2  1  0  0  0  0
  1  3  2  0  0  0  0
  1  4  1  0  0  0  0
  4  5  1  0  0  0  0
  4  6  1  0  0  0  0
  4  7  1  0  0  0  0
  7  8  1  0  0  0  0
  7  9  1  0  0  0  0
  7 10  1  0  0  0  0
 10 11  1  0  0  0  0
 10 12  1  0  0  0  0
 10 13  1  0  0  0  0
 13 14  1  0  0  0  0
 13 15  1  0  0  0  0
 13 16  1  0  0  0  0
 16 17  1  0  0  0  0
 16 18  1  0  0  0  0
 16 19  1  0  0  0  0
 19 20  1  0  0  0  0
 19 21  1  0  0  0  0
 19 22  1  0  0  0  0
 22 23  1  0  0  0  0
 22 24  1  0  0  0  0
 22 25  1  0  0  0  0
M  END
> <VConfSearch Rank>
383

> <Conf_Id>
37

> <Delta U+W>
-0.230

> <U+W>
-51.860

> <U>
7.816

> <W>
-59.675

> <W(PB)>
-62.180

> <W(SA)>
2.505

> <Valence>
7.785

> <Coulomb>
-0.713

> <VdW>
0.744

> <VdW6>
-8.514

> <VdW12>
9.259

> <Bond>
0.136

> <Angle>
2.433

> <Pdih>
5.216

> <Idih>
0.000

> <Tether>
0.000

$$$$
VeraChem MOL file


 25 24  0  0  0  0  0  0  0  0999 V2000     
   18.0442   16.8824   25.8688 C   0  0  0  0  0  0  0  0  0  0  0  0
   17.9647   17.3162   27.0013 O   0  5  0  0  0  0  0  0  0  0  0  0
   18.6907   15.8978   25.5693 O   0  0  0  0  0  0  0  0  0  0  0  0
   17.2759   17.6060   24.7665 C   0  0  0  0  0  0  0  0  0  0  0  0
   16.2671   17.8055   25.1467 H   0  0  0  0  0  0  0  0  0  0  0  0
   17.1649   16.9262   23.9130 H   0  0  0  0  0  0  0  0  0  0  0  0
   17.9304   18.9359   24.3106 C   0  0  0  0  0  0  0  0  0  0  0  0
   17.2472   19.4520   23.6226 H   0  0  0  0  0  0  0  0  0  0  0  0
   18.0603   19.5946   25.1807 H   0  0  0  0  0  0  0  0  0  0  0  0
   19.2908   18.7194   23.6105 C   0  0  0  0  0  0  0  0  0  0  0  0
   19.1581   18.0498   22.7496 H   0  0  0  0  0  0  0  0  0  0  0  0
   19.9859   18.2188   24.2987 H   0  0  0  0  0  0  0  0  0  0  0  0
   19.9089   20.0526   23.1372 C   0  0  0  0  0  0  0  0  0  0  0  0
   19.2168   20.5536   22.4465 H   0  0  0  0  0  0  0  0  0  0  0  0
   20.0414   20.7214   23.9987 H   0  0  0  0  0  0  0  0  0  0  0  0
   21.2686   19.8371   22.4381 C   0  0  0  0  0  0  0  0  0  0  0  0
   21.1364   19.1680   21.5767 H   0  0  0  0  0  0  0  0  0  0  0  0
   21.9608   19.3359   23.1286 H   0  0  0  0  0  0  0  0  0  0  0  0
   21.8871   21.1695   21.9654 C   0  0  0  0  0  0  0  0  0  0  0  0
   21.1981   21.6727   21.2729 H   0  0  0  0  0  0  0  0  0  0  0  0
   22.0226   21.8406   22.8249 H   0  0  0  0  0  0  0  0  0  0  0  0
   23.2447   20.9499   21.2679 C   0  0  0  0  0  0  0  0  0  0  0  0
   23.1332   20.3068   20.3850 H   0  0  0  0  0  0  0  0  0  0  0  0
   23.6698   21.9069   20.9386 H   0  0  0  0  0  0  0  0  0  0  0  0
   23.9639   20.4759   21.9486 H   0  0  0  0  0  0  0  0  0  0  0  0
  1  2  1  0  0  0  0
  1  3  2  0  0  0  0
  1  4  1  0  0  0  0
  4  5  1  0  0  0  0
  4  6  1  0  0  0  0
  4  7  1  0  0  0  0
  7  8  1  0  0  0  0
  7  9  1  0  0  0  0
  7 10  1  0  0  0  0
 10 11  1  0  0  0  0
 10 12  1  0  0  0  0
 10 13  1  0  0  0  0
 13 14  1  0  0  0  0
 13 15  1  0  0  0  0
 13 16  1  0  0  0  0
 16 17  1  0  0  0  0
 16 18  1  0  0  0  0
 16 19  1  0  0  0  0
 19 20  1  0  0  0  0
 19 21  1  0  0  0  0
 19 22  1  0  0  0  0
 22 23  1  0  0  0  0
 22 24  1  0  0  0  0
 22 25  1  0  0  0  0
M  END
> <VConfSearch Rank>
384

> <Conf_Id>
54

> <Delta U+W>
-0.224

> <U+W>
-51.854

> <U>
7.816

> <W>
-59.670

> <W(PB)>
-62.157

> <W(SA)>
2.487

> <Valence>
7.785

> <Coulomb>
-0.713

> <VdW>
0.744

> <VdW6>
-8.515

> <VdW12>
9.259

> <Bond>
0.136

> <Angle>
2.433

> <Pdih>
5.215

> <Idih>
0.000

> <Tether>
0.000

$$$$
VeraChem MOL file


 25 24  0  0  0  0  0  0  0  0999 V2000     
   21.3297   22.0306   20.7526 C   0  0  0  0  0  0  0  0  0  0  0  0
   20.7851   23.0407   21.1529 O   0  5  0  0  0  0  0  0  0  0  0  0
   22.5177   21.9595   20.5063 O   0  0  0  0  0  0  0  0  0  0  0  0
   20.4733   20.7874   20.5287 C   0  0  0  0  0  0  0  0  0  0  0  0
   20.7478   20.3733   19.5514 H   0  0  0  0  0  0  0  0  0  0  0  0
   19.4224   21.0933   20.4600 H   0  0  0  0  0  0  0  0  0  0  0  0
   20.6437   19.6973   21.6189 C   0  0  0  0  0  0  0  0  0  0  0  0
   20.1159   18.7933   21.2902 H   0  0  0  0  0  0  0  0  0  0  0  0
   21.7064   19.4315   21.7043 H   0  0  0  0  0  0  0  0  0  0  0  0
   20.1025   20.1469   22.9976 C   0  0  0  0  0  0  0  0  0  0  0  0
   19.0293   20.3687   22.9211 H   0  0  0  0  0  0  0  0  0  0  0  0
   20.5921   21.0872   23.2862 H   0  0  0  0  0  0  0  0  0  0  0  0
   20.3395   19.1123   24.1238 C   0  0  0  0  0  0  0  0  0  0  0  0
   21.4105   18.8767   24.1873 H   0  0  0  0  0  0  0  0  0  0  0  0
   20.0675   19.5824   25.0773 H   0  0  0  0  0  0  0  0  0  0  0  0
   19.5259   17.8065   23.9456 C   0  0  0  0  0  0  0  0  0  0  0  0
   19.8015   17.3305   22.9962 H   0  0  0  0  0  0  0  0  0  0  0  0
   18.4555   18.0431   23.8771 H   0  0  0  0  0  0  0  0  0  0  0  0
   19.7569   16.7794   25.0788 C   0  0  0  0  0  0  0  0  0  0  0  0
   19.2577   15.8389   24.8074 H   0  0  0  0  0  0  0  0  0  0  0  0
   20.8284   16.5494   25.1587 H   0  0  0  0  0  0  0  0  0  0  0  0
   19.2208   17.2459   26.4499 C   0  0  0  0  0  0  0  0  0  0  0  0
   19.7747   18.1162   26.8230 H   0  0  0  0  0  0  0  0  0  0  0  0
   18.1584   17.5147   26.3857 H   0  0  0  0  0  0  0  0  0  0  0  0
   19.3221   16.4451   27.1938 H   0  0  0  0  0  0  0  0  0  0  0  0
  1  2  1  0  0  0  0
  1  3  2  0  0  0  0
  1  4  1  0  0  0  0
  4  5  1  0  0  0  0
  4  6  1  0  0  0  0
  4  7  1  0  0  0  0
  7  8  1  0  0  0  0
  7  9  1  0  0  0  0
  7 10  1  0  0  0  0
 10 11  1  0  0  0  0
 10 12  1  0  0  0  0
 10 13  1  0  0  0  0
 13 14  1  0  0  0  0
 13 15  1  0  0  0  0
 13 16  1  0  0  0  0
 16 17  1  0  0  0  0
 16 18  1  0  0  0  0
 16 19  1  0  0  0  0
 19 20  1  0  0  0  0
 19 21  1  0  0  0  0
 19 22  1  0  0  0  0
 22 23  1  0  0  0  0
 22 24  1  0  0  0  0
 22 25  1  0  0  0  0
M  END
> <VConfSearch Rank>
385

> <Conf_Id>
101

> <Delta U+W>
1.534

> <U+W>
-50.095

> <U>
9.416

> <W>
-59.512

> <W(PB)>
-61.988

> <W(SA)>
2.476

> <Valence>
8.939

> <Coulomb>
-0.615

> <VdW>
1.092

> <VdW6>
-9.710

> <VdW12>
10.802

> <Bond>
0.216

> <Angle>
2.979

> <Pdih>
5.743

> <Idih>
0.000

> <Tether>
0.000

$$$$
VeraChem MOL file


 25 24  0  0  0  0  0  0  0  0999 V2000     
   23.8981   20.1480   24.7412 C   0  0  0  0  0  0  0  0  0  0  0  0
   23.9879   19.6706   25.8551 O   0  5  0  0  0  0  0  0  0  0  0  0
   24.8574   20.4559   24.0616 O   0  0  0  0  0  0  0  0  0  0  0  0
   22.5056   20.3511   24.1547 C   0  0  0  0  0  0  0  0  0  0  0  0
   22.5396   21.2250   23.4933 H   0  0  0  0  0  0  0  0  0  0  0  0
   21.8292   20.5944   24.9815 H   0  0  0  0  0  0  0  0  0  0  0  0
   21.9966   19.1100   23.3762 C   0  0  0  0  0  0  0  0  0  0  0  0
   22.7469   18.8375   22.6211 H   0  0  0  0  0  0  0  0  0  0  0  0
   21.9198   18.2531   24.0596 H   0  0  0  0  0  0  0  0  0  0  0  0
   20.6404   19.3355   22.6658 C   0  0  0  0  0  0  0  0  0  0  0  0
   20.4400   18.4610   22.0337 H   0  0  0  0  0  0  0  0  0  0  0  0
   20.7168   20.1985   21.9905 H   0  0  0  0  0  0  0  0  0  0  0  0
   19.4589   19.5404   23.6455 C   0  0  0  0  0  0  0  0  0  0  0  0
   19.3821   18.6777   24.3199 H   0  0  0  0  0  0  0  0  0  0  0  0
   19.6607   20.4092   24.2844 H   0  0  0  0  0  0  0  0  0  0  0  0
   18.1017   19.7803   22.9363 C   0  0  0  0  0  0  0  0  0  0  0  0
   18.1724   20.6965   22.3344 H   0  0  0  0  0  0  0  0  0  0  0  0
   17.3376   19.9786   23.7001 H   0  0  0  0  0  0  0  0  0  0  0  0
   17.6098   18.6249   22.0294 C   0  0  0  0  0  0  0  0  0  0  0  0
   16.6481   18.9157   21.5849 H   0  0  0  0  0  0  0  0  0  0  0  0
   18.3002   18.4820   21.1879 H   0  0  0  0  0  0  0  0  0  0  0  0
   17.4242   17.2905   22.7837 C   0  0  0  0  0  0  0  0  0  0  0  0
   16.7554   17.4156   23.6450 H   0  0  0  0  0  0  0  0  0  0  0  0
   16.9860   16.5325   22.1217 H   0  0  0  0  0  0  0  0  0  0  0  0
   18.3840   16.9007   23.1457 H   0  0  0  0  0  0  0  0  0  0  0  0
  1  2  1  0  0  0  0
  1  3  2  0  0  0  0
  1  4  1  0  0  0  0
  4  5  1  0  0  0  0
  4  6  1  0  0  0  0
  4  7  1  0  0  0  0
  7  8  1  0  0  0  0
  7  9  1  0  0  0  0
  7 10  1  0  0  0  0
 10 11  1  0  0  0  0
 10 12  1  0  0  0  0
 10 13  1  0  0  0  0
 13 14  1  0  0  0  0
 13 15  1  0  0  0  0
 13 16  1  0  0  0  0
 16 17  1  0  0  0  0
 16 18  1  0  0  0  0
 16 19  1  0  0  0  0
 19 20  1  0  0  0  0
 19 21  1  0  0  0  0
 19 22  1  0  0  0  0
 22 23  1  0  0  0  0
 22 24  1  0  0  0  0
 22 25  1  0  0  0  0
M  END
> <VConfSearch Rank>
386

> <Conf_Id>
75

> <Delta U+W>
1.014

> <U+W>
-50.615

> <U>
8.474

> <W>
-59.089

> <W(PB)>
-61.530

> <W(SA)>
2.441

> <Valence>
9.080

> <Coulomb>
-1.772

> <VdW>
1.165

> <VdW6>
-9.830

> <VdW12>
10.996

> <Bond>
0.240

> <Angle>
3.225

> <Pdih>
5.615

> <Idih>
0.001

> <Tether>
0.000

$$$$
VeraChem MOL file


 25 24  0  0  0  0  0  0  0  0999 V2000     
   20.0984   14.9406   23.1905 C   0  0  0  0  0  0  0  0  0  0  0  0
   21.1409   14.5731   22.6858 O   0  5  0  0  0  0  0  0  0  0  0  0
   19.4532   14.2671   23.9695 O   0  0  0  0  0  0  0  0  0  0  0  0
   19.5822   16.3325   22.8438 C   0  0  0  0  0  0  0  0  0  0  0  0
   18.4862   16.3053   22.8681 H   0  0  0  0  0  0  0  0  0  0  0  0
   19.8783   16.5585   21.8124 H   0  0  0  0  0  0  0  0  0  0  0  0
   20.1112   17.4266   23.8036 C   0  0  0  0  0  0  0  0  0  0  0  0
   19.8177   17.1792   24.8332 H   0  0  0  0  0  0  0  0  0  0  0  0
   21.2098   17.4318   23.7773 H   0  0  0  0  0  0  0  0  0  0  0  0
   19.5760   18.8262   23.4308 C   0  0  0  0  0  0  0  0  0  0  0  0
   18.4779   18.8161   23.4579 H   0  0  0  0  0  0  0  0  0  0  0  0
   19.8629   19.0609   22.3989 H   0  0  0  0  0  0  0  0  0  0  0  0
   20.1024   19.9144   24.3959 C   0  0  0  0  0  0  0  0  0  0  0  0
   19.7686   19.6612   25.4115 H   0  0  0  0  0  0  0  0  0  0  0  0
   21.2006   19.9031   24.4229 H   0  0  0  0  0  0  0  0  0  0  0  0
   19.5942   21.3379   24.0526 C   0  0  0  0  0  0  0  0  0  0  0  0
   19.4263   21.8768   24.9951 H   0  0  0  0  0  0  0  0  0  0  0  0
   18.6132   21.2842   23.5611 H   0  0  0  0  0  0  0  0  0  0  0  0
   20.5709   22.1851   23.1998 C   0  0  0  0  0  0  0  0  0  0  0  0
   20.1498   23.1936   23.0867 H   0  0  0  0  0  0  0  0  0  0  0  0
   21.5199   22.3074   23.7398 H   0  0  0  0  0  0  0  0  0  0  0  0
   20.8511   21.6065   21.7973 C   0  0  0  0  0  0  0  0  0  0  0  0
   19.9155   21.4108   21.2574 H   0  0  0  0  0  0  0  0  0  0  0  0
   21.4444   22.3127   21.2023 H   0  0  0  0  0  0  0  0  0  0  0  0
   21.4196   20.6704   21.8621 H   0  0  0  0  0  0  0  0  0  0  0  0
  1  2  1  0  0  0  0
  1  3  2  0  0  0  0
  1  4  1  0  0  0  0
  4  5  1  0  0  0  0
  4  6  1  0  0  0  0
  4  7  1  0  0  0  0
  7  8  1  0  0  0  0
  7  9  1  0  0  0  0
  7 10  1  0  0  0  0
 10 11  1  0  0  0  0
 10 12  1  0  0  0  0
 10 13  1  0  0  0  0
 13 14  1  0  0  0  0
 13 15  1  0  0  0  0
 13 16  1  0  0  0  0
 16 17  1  0  0  0  0
 16 18  1  0  0  0  0
 16 19  1  0  0  0  0
 19 20  1  0  0  0  0
 19 21  1  0  0  0  0
 19 22  1  0  0  0  0
 22 23  1  0  0  0  0
 22 24  1  0  0  0  0
 22 25  1  0  0  0  0
M  END
> <VConfSearch Rank>
387

> <Conf_Id>
125

> <Delta U+W>
2.314

> <U+W>
-49.315

> <U>
9.740

> <W>
-59.054

> <W(PB)>
-61.488

> <W(SA)>
2.433

> <Valence>
10.506

> <Coulomb>
-1.761

> <VdW>
0.994

> <VdW6>
-9.209

> <VdW12>
10.203

> <Bond>
0.193

> <Angle>
2.979

> <Pdih>
7.334

> <Idih>
0.001

> <Tether>
0.000

$$$$
VeraChem MOL file


 25 24  0  0  0  0  0  0  0  0999 V2000     
   19.8356   22.4514   20.9151 C   0  0  0  0  0  0  0  0  0  0  0  0
   19.9285   22.0367   19.7766 O   0  5  0  0  0  0  0  0  0  0  0  0
   19.8241   23.6321   21.2025 O   0  0  0  0  0  0  0  0  0  0  0  0
   19.7532   21.4342   22.0475 C   0  0  0  0  0  0  0  0  0  0  0  0
   19.2145   20.5582   21.6694 H   0  0  0  0  0  0  0  0  0  0  0  0
   19.1465   21.8683   22.8511 H   0  0  0  0  0  0  0  0  0  0  0  0
   21.1478   21.0269   22.5902 C   0  0  0  0  0  0  0  0  0  0  0  0
   21.7289   20.5510   21.7881 H   0  0  0  0  0  0  0  0  0  0  0  0
   21.6959   21.9367   22.8719 H   0  0  0  0  0  0  0  0  0  0  0  0
   21.0835   20.0871   23.8177 C   0  0  0  0  0  0  0  0  0  0  0  0
   20.5102   20.5697   24.6211 H   0  0  0  0  0  0  0  0  0  0  0  0
   22.1028   19.9483   24.2033 H   0  0  0  0  0  0  0  0  0  0  0  0
   20.4718   18.7026   23.5010 C   0  0  0  0  0  0  0  0  0  0  0  0
   19.4306   18.8259   23.1797 H   0  0  0  0  0  0  0  0  0  0  0  0
   21.0159   18.2437   22.6644 H   0  0  0  0  0  0  0  0  0  0  0  0
   20.5242   17.7629   24.7280 C   0  0  0  0  0  0  0  0  0  0  0  0
   19.9414   18.1974   25.5517 H   0  0  0  0  0  0  0  0  0  0  0  0
   21.5616   17.6951   25.0829 H   0  0  0  0  0  0  0  0  0  0  0  0
   20.0135   16.3337   24.4306 C   0  0  0  0  0  0  0  0  0  0  0  0
   20.5980   15.8940   23.6106 H   0  0  0  0  0  0  0  0  0  0  0  0
   20.1948   15.7043   25.3127 H   0  0  0  0  0  0  0  0  0  0  0  0
   18.5098   16.2810   24.0833 C   0  0  0  0  0  0  0  0  0  0  0  0
   18.2977   16.8003   23.1404 H   0  0  0  0  0  0  0  0  0  0  0  0
   18.1782   15.2407   23.9709 H   0  0  0  0  0  0  0  0  0  0  0  0
   17.9071   16.7441   24.8753 H   0  0  0  0  0  0  0  0  0  0  0  0
  1  2  1  0  0  0  0
  1  3  2  0  0  0  0
  1  4  1  0  0  0  0
  4  5  1  0  0  0  0
  4  6  1  0  0  0  0
  4  7  1  0  0  0  0
  7  8  1  0  0  0  0
  7  9  1  0  0  0  0
  7 10  1  0  0  0  0
 10 11  1  0  0  0  0
 10 12  1  0  0  0  0
 10 13  1  0  0  0  0
 13 14  1  0  0  0  0
 13 15  1  0  0  0  0
 13 16  1  0  0  0  0
 16 17  1  0  0  0  0
 16 18  1  0  0  0  0
 16 19  1  0  0  0  0
 19 20  1  0  0  0  0
 19 21  1  0  0  0  0
 19 22  1  0  0  0  0
 22 23  1  0  0  0  0
 22 24  1  0  0  0  0
 22 25  1  0  0  0  0
M  END
> <VConfSearch Rank>
388

> <Conf_Id>
4

> <Delta U+W>
0.189

> <U+W>
-51.441

> <U>
7.701

> <W>
-59.141

> <W(PB)>
-61.609

> <W(SA)>
2.467

> <Valence>
8.550

> <Coulomb>
-1.988

> <VdW>
1.139

> <VdW6>
-8.988

> <VdW12>
10.127

> <Bond>
0.191

> <Angle>
2.738

> <Pdih>
5.621

> <Idih>
0.001

> <Tether>
0.000

$$$$
VeraChem MOL file


 25 24  0  0  0  0  0  0  0  0999 V2000     
   22.3597   20.2320   20.0922 C   0  0  0  0  0  0  0  0  0  0  0  0
   23.4318   20.5582   20.5622 O   0  5  0  0  0  0  0  0  0  0  0  0
   22.1553   20.1141   18.9001 O   0  0  0  0  0  0  0  0  0  0  0  0
   21.2142   19.9312   21.0520 C   0  0  0  0  0  0  0  0  0  0  0  0
   20.2747   20.2035   20.5563 H   0  0  0  0  0  0  0  0  0  0  0  0
   21.3266   20.5892   21.9209 H   0  0  0  0  0  0  0  0  0  0  0  0
   21.1757   18.4447   21.4924 C   0  0  0  0  0  0  0  0  0  0  0  0
   21.1586   17.8114   20.5946 H   0  0  0  0  0  0  0  0  0  0  0  0
   22.1021   18.1969   22.0288 H   0  0  0  0  0  0  0  0  0  0  0  0
   19.9522   18.0915   22.3713 C   0  0  0  0  0  0  0  0  0  0  0  0
   19.9436   17.0053   22.5353 H   0  0  0  0  0  0  0  0  0  0  0  0
   19.0276   18.3311   21.8284 H   0  0  0  0  0  0  0  0  0  0  0  0
   19.9518   18.8080   23.7416 C   0  0  0  0  0  0  0  0  0  0  0  0
   20.8985   18.6070   24.2611 H   0  0  0  0  0  0  0  0  0  0  0  0
   19.8914   19.8923   23.5892 H   0  0  0  0  0  0  0  0  0  0  0  0
   18.7700   18.3457   24.6254 C   0  0  0  0  0  0  0  0  0  0  0  0
   18.8011   17.2518   24.7210 H   0  0  0  0  0  0  0  0  0  0  0  0
   17.8203   18.5878   24.1293 H   0  0  0  0  0  0  0  0  0  0  0  0
   18.7845   18.9622   26.0437 C   0  0  0  0  0  0  0  0  0  0  0  0
   17.9884   18.4944   26.6392 H   0  0  0  0  0  0  0  0  0  0  0  0
   19.7312   18.7175   26.5450 H   0  0  0  0  0  0  0  0  0  0  0  0
   18.5746   20.4920   26.0483 C   0  0  0  0  0  0  0  0  0  0  0  0
   17.6490   20.7632   25.5242 H   0  0  0  0  0  0  0  0  0  0  0  0
   18.5021   20.8663   27.0776 H   0  0  0  0  0  0  0  0  0  0  0  0
   19.4101   21.0128   25.5642 H   0  0  0  0  0  0  0  0  0  0  0  0
  1  2  1  0  0  0  0
  1  3  2  0  0  0  0
  1  4  1  0  0  0  0
  4  5  1  0  0  0  0
  4  6  1  0  0  0  0
  4  7  1  0  0  0  0
  7  8  1  0  0  0  0
  7  9  1  0  0  0  0
  7 10  1  0  0  0  0
 10 11  1  0  0  0  0
 10 12  1  0  0  0  0
 10 13  1  0  0  0  0
 13 14  1  0  0  0  0
 13 15  1  0  0  0  0
 13 16  1  0  0  0  0
 16 17  1  0  0  0  0
 16 18  1  0  0  0  0
 16 19  1  0  0  0  0
 19 20  1  0  0  0  0
 19 21  1  0  0  0  0
 19 22  1  0  0  0  0
 22 23  1  0  0  0  0
 22 24  1  0  0  0  0
 22 25  1  0  0  0  0
M  END
> <VConfSearch Rank>
389

> <Conf_Id>
17

> <Delta U+W>
0.219

> <U+W>
-51.411

> <U>
7.701

> <W>
-59.111

> <W(PB)>
-61.599

> <W(SA)>
2.488

> <Valence>
8.550

> <Coulomb>
-1.988

> <VdW>
1.139

> <VdW6>
-8.988

> <VdW12>
10.127

> <Bond>
0.191

> <Angle>
2.738

> <Pdih>
5.621

> <Idih>
0.001

> <Tether>
0.000

$$$$
VeraChem MOL file


 25 24  0  0  0  0  0  0  0  0999 V2000     
   21.0577   21.1361   20.2495 C   0  0  0  0  0  0  0  0  0  0  0  0
   20.8002   20.4658   19.2690 O   0  5  0  0  0  0  0  0  0  0  0  0
   22.1882   21.4271   20.5876 O   0  0  0  0  0  0  0  0  0  0  0  0
   19.8982   21.6584   21.0932 C   0  0  0  0  0  0  0  0  0  0  0  0
   18.9840   21.6290   20.4881 H   0  0  0  0  0  0  0  0  0  0  0  0
   20.1003   22.7136   21.3116 H   0  0  0  0  0  0  0  0  0  0  0  0
   19.6882   20.8853   22.4210 C   0  0  0  0  0  0  0  0  0  0  0  0
   20.6211   20.9125   22.9994 H   0  0  0  0  0  0  0  0  0  0  0  0
   18.9276   21.4044   23.0196 H   0  0  0  0  0  0  0  0  0  0  0  0
   19.2446   19.4210   22.1895 C   0  0  0  0  0  0  0  0  0  0  0  0
   20.0310   18.8733   21.6521 H   0  0  0  0  0  0  0  0  0  0  0  0
   18.3617   19.4146   21.5357 H   0  0  0  0  0  0  0  0  0  0  0  0
   18.8941   18.6696   23.4957 C   0  0  0  0  0  0  0  0  0  0  0  0
   18.1016   19.2107   24.0305 H   0  0  0  0  0  0  0  0  0  0  0  0
   18.4763   17.6886   23.2310 H   0  0  0  0  0  0  0  0  0  0  0  0
   20.1075   18.4626   24.4317 C   0  0  0  0  0  0  0  0  0  0  0  0
   20.4920   19.4344   24.7673 H   0  0  0  0  0  0  0  0  0  0  0  0
   20.9185   17.9704   23.8777 H   0  0  0  0  0  0  0  0  0  0  0  0
   19.7373   17.6132   25.6659 C   0  0  0  0  0  0  0  0  0  0  0  0
   18.9249   18.1020   26.2213 H   0  0  0  0  0  0  0  0  0  0  0  0
   19.3587   16.6338   25.3422 H   0  0  0  0  0  0  0  0  0  0  0  0
   20.9473   17.4108   26.6001 C   0  0  0  0  0  0  0  0  0  0  0  0
   21.3271   18.3741   26.9652 H   0  0  0  0  0  0  0  0  0  0  0  0
   20.6665   16.8050   27.4713 H   0  0  0  0  0  0  0  0  0  0  0  0
   21.7645   16.8958   26.0782 H   0  0  0  0  0  0  0  0  0  0  0  0
  1  2  1  0  0  0  0
  1  3  2  0  0  0  0
  1  4  1  0  0  0  0
  4  5  1  0  0  0  0
  4  6  1  0  0  0  0
  4  7  1  0  0  0  0
  7  8  1  0  0  0  0
  7  9  1  0  0  0  0
  7 10  1  0  0  0  0
 10 11  1  0  0  0  0
 10 12  1  0  0  0  0
 10 13  1  0  0  0  0
 13 14  1  0  0  0  0
 13 15  1  0  0  0  0
 13 16  1  0  0  0  0
 16 17  1  0  0  0  0
 16 18  1  0  0  0  0
 16 19  1  0  0  0  0
 19 20  1  0  0  0  0
 19 21  1  0  0  0  0
 19 22  1  0  0  0  0
 22 23  1  0  0  0  0
 22 24  1  0  0  0  0
 22 25  1  0  0  0  0
M  END
> <VConfSearch Rank>
390

> <Conf_Id>
142

> <Delta U+W>
0.593

> <U+W>
-51.037

> <U>
8.903

> <W>
-59.940

> <W(PB)>
-62.418

> <W(SA)>
2.478

> <Valence>
8.305

> <Coulomb>
-0.223

> <VdW>
0.821

> <VdW6>
-9.236

> <VdW12>
10.057

> <Bond>
0.173

> <Angle>
2.663

> <Pdih>
5.469

> <Idih>
0.001

> <Tether>
0.000

$$$$
VeraChem MOL file


 25 24  0  0  0  0  0  0  0  0999 V2000     
   22.2670   18.0645   26.0767 C   0  0  0  0  0  0  0  0  0  0  0  0
   22.1442   17.5689   27.1798 O   0  5  0  0  0  0  0  0  0  0  0  0
   23.0984   17.7041   25.2668 O   0  0  0  0  0  0  0  0  0  0  0  0
   21.3437   19.2203   25.7016 C   0  0  0  0  0  0  0  0  0  0  0  0
   21.7539   19.7257   24.8198 H   0  0  0  0  0  0  0  0  0  0  0  0
   21.3810   19.9470   26.5215 H   0  0  0  0  0  0  0  0  0  0  0  0
   19.8694   18.7993   25.4540 C   0  0  0  0  0  0  0  0  0  0  0  0
   19.4691   18.3596   26.3779 H   0  0  0  0  0  0  0  0  0  0  0  0
   19.2650   19.6951   25.2614 H   0  0  0  0  0  0  0  0  0  0  0  0
   19.6788   17.7828   24.2986 C   0  0  0  0  0  0  0  0  0  0  0  0
   18.6098   17.5465   24.2096 H   0  0  0  0  0  0  0  0  0  0  0  0
   20.1745   16.8397   24.5668 H   0  0  0  0  0  0  0  0  0  0  0  0
   20.2073   18.2441   22.9172 C   0  0  0  0  0  0  0  0  0  0  0  0
   21.2967   18.3772   22.9596 H   0  0  0  0  0  0  0  0  0  0  0  0
   20.0290   17.4378   22.1929 H   0  0  0  0  0  0  0  0  0  0  0  0
   19.5400   19.5399   22.4012 C   0  0  0  0  0  0  0  0  0  0  0  0
   19.7702   20.3732   23.0777 H   0  0  0  0  0  0  0  0  0  0  0  0
   18.4485   19.4164   22.4026 H   0  0  0  0  0  0  0  0  0  0  0  0
   20.0170   19.8993   20.9782 C   0  0  0  0  0  0  0  0  0  0  0  0
   21.1091   20.0207   20.9741 H   0  0  0  0  0  0  0  0  0  0  0  0
   19.7846   19.0750   20.2899 H   0  0  0  0  0  0  0  0  0  0  0  0
   19.3552   21.1951   20.4674 C   0  0  0  0  0  0  0  0  0  0  0  0
   19.5978   22.0437   21.1204 H   0  0  0  0  0  0  0  0  0  0  0  0
   19.7054   21.4353   19.4552 H   0  0  0  0  0  0  0  0  0  0  0  0
   18.2628   21.0907   20.4325 H   0  0  0  0  0  0  0  0  0  0  0  0
  1  2  1  0  0  0  0
  1  3  2  0  0  0  0
  1  4  1  0  0  0  0
  4  5  1  0  0  0  0
  4  6  1  0  0  0  0
  4  7  1  0  0  0  0
  7  8  1  0  0  0  0
  7  9  1  0  0  0  0
  7 10  1  0  0  0  0
 10 11  1  0  0  0  0
 10 12  1  0  0  0  0
 10 13  1  0  0  0  0
 13 14  1  0  0  0  0
 13 15  1  0  0  0  0
 13 16  1  0  0  0  0
 16 17  1  0  0  0  0
 16 18  1  0  0  0  0
 16 19  1  0  0  0  0
 19 20  1  0  0  0  0
 19 21  1  0  0  0  0
 19 22  1  0  0  0  0
 22 23  1  0  0  0  0
 22 24  1  0  0  0  0
 22 25  1  0  0  0  0
M  END
> <VConfSearch Rank>
391

> <Conf_Id>
135

> <Delta U+W>
1.314

> <U+W>
-50.316

> <U>
9.773

> <W>
-60.088

> <W(PB)>
-62.535

> <W(SA)>
2.447

> <Valence>
8.741

> <Coulomb>
0.479

> <VdW>
0.552

> <VdW6>
-10.627

> <VdW12>
11.179

> <Bond>
0.227

> <Angle>
3.155

> <Pdih>
5.358

> <Idih>
0.001

> <Tether>
0.000

$$$$
VeraChem MOL file


 25 24  0  0  0  0  0  0  0  0999 V2000     
   18.2112   20.9701   19.9297 C   0  0  0  0  0  0  0  0  0  0  0  0
   18.4989   22.1405   19.7749 O   0  5  0  0  0  0  0  0  0  0  0  0
   17.7506   20.2683   19.0511 O   0  0  0  0  0  0  0  0  0  0  0  0
   18.4632   20.3411   21.2954 C   0  0  0  0  0  0  0  0  0  0  0  0
   17.7057   19.5650   21.4570 H   0  0  0  0  0  0  0  0  0  0  0  0
   18.3019   21.1161   22.0528 H   0  0  0  0  0  0  0  0  0  0  0  0
   19.8855   19.7354   21.4227 C   0  0  0  0  0  0  0  0  0  0  0  0
   20.0439   19.0363   20.5900 H   0  0  0  0  0  0  0  0  0  0  0  0
   20.6360   20.5296   21.3071 H   0  0  0  0  0  0  0  0  0  0  0  0
   20.1225   18.9801   22.7525 C   0  0  0  0  0  0  0  0  0  0  0  0
   21.0876   18.4633   22.6783 H   0  0  0  0  0  0  0  0  0  0  0  0
   19.3561   18.2032   22.8780 H   0  0  0  0  0  0  0  0  0  0  0  0
   20.1410   19.9054   23.9926 C   0  0  0  0  0  0  0  0  0  0  0  0
   20.9488   20.6421   23.8853 H   0  0  0  0  0  0  0  0  0  0  0  0
   19.2060   20.4774   24.0379 H   0  0  0  0  0  0  0  0  0  0  0  0
   20.3026   19.1577   25.3403 C   0  0  0  0  0  0  0  0  0  0  0  0
   19.4491   18.4851   25.5018 H   0  0  0  0  0  0  0  0  0  0  0  0
   20.2469   19.9069   26.1419 H   0  0  0  0  0  0  0  0  0  0  0  0
   21.6345   18.3822   25.4978 C   0  0  0  0  0  0  0  0  0  0  0  0
   22.4180   18.8399   24.8783 H   0  0  0  0  0  0  0  0  0  0  0  0
   21.9750   18.4758   26.5383 H   0  0  0  0  0  0  0  0  0  0  0  0
   21.5036   16.8776   25.1718 C   0  0  0  0  0  0  0  0  0  0  0  0
   21.1739   16.7107   24.1400 H   0  0  0  0  0  0  0  0  0  0  0  0
   22.4686   16.3711   25.3019 H   0  0  0  0  0  0  0  0  0  0  0  0
   20.7787   16.3954   25.8405 H   0  0  0  0  0  0  0  0  0  0  0  0
  1  2  1  0  0  0  0
  1  3  2  0  0  0  0
  1  4  1  0  0  0  0
  4  5  1  0  0  0  0
  4  6  1  0  0  0  0
  4  7  1  0  0  0  0
  7  8  1  0  0  0  0
  7  9  1  0  0  0  0
  7 10  1  0  0  0  0
 10 11  1  0  0  0  0
 10 12  1  0  0  0  0
 10 13  1  0  0  0  0
 13 14  1  0  0  0  0
 13 15  1  0  0  0  0
 13 16  1  0  0  0  0
 16 17  1  0  0  0  0
 16 18  1  0  0  0  0
 16 19  1  0  0  0  0
 19 20  1  0  0  0  0
 19 21  1  0  0  0  0
 19 22  1  0  0  0  0
 22 23  1  0  0  0  0
 22 24  1  0  0  0  0
 22 25  1  0  0  0  0
M  END
> <VConfSearch Rank>
392

> <Conf_Id>
19

> <Delta U+W>
3.222

> <U+W>
-48.407

> <U>
10.617

> <W>
-59.025

> <W(PB)>
-61.462

> <W(SA)>
2.437

> <Valence>
11.188

> <Coulomb>
-1.778

> <VdW>
1.208

> <VdW6>
-9.786

> <VdW12>
10.993

> <Bond>
0.241

> <Angle>
3.294

> <Pdih>
7.653

> <Idih>
0.001

> <Tether>
0.000

$$$$
VeraChem MOL file


 25 24  0  0  0  0  0  0  0  0999 V2000     
   23.9827   20.7929   23.5550 C   0  0  0  0  0  0  0  0  0  0  0  0
   24.1348   21.8220   22.9269 O   0  5  0  0  0  0  0  0  0  0  0  0
   24.9008   20.0848   23.9191 O   0  0  0  0  0  0  0  0  0  0  0  0
   22.5605   20.3536   23.8842 C   0  0  0  0  0  0  0  0  0  0  0  0
   21.9607   21.2575   24.0368 H   0  0  0  0  0  0  0  0  0  0  0  0
   22.5841   19.8134   24.8381 H   0  0  0  0  0  0  0  0  0  0  0  0
   21.9383   19.4608   22.7789 C   0  0  0  0  0  0  0  0  0  0  0  0
   21.8750   20.0274   21.8397 H   0  0  0  0  0  0  0  0  0  0  0  0
   22.6167   18.6179   22.5869 H   0  0  0  0  0  0  0  0  0  0  0  0
   20.5444   18.8978   23.1463 C   0  0  0  0  0  0  0  0  0  0  0  0
   20.6047   18.3532   24.0983 H   0  0  0  0  0  0  0  0  0  0  0  0
   20.2650   18.1644   22.3794 H   0  0  0  0  0  0  0  0  0  0  0  0
   19.4438   19.9824   23.2301 C   0  0  0  0  0  0  0  0  0  0  0  0
   19.7454   20.7569   23.9461 H   0  0  0  0  0  0  0  0  0  0  0  0
   19.3497   20.4819   22.2564 H   0  0  0  0  0  0  0  0  0  0  0  0
   18.0574   19.4474   23.6698 C   0  0  0  0  0  0  0  0  0  0  0  0
   17.3801   20.3090   23.7449 H   0  0  0  0  0  0  0  0  0  0  0  0
   18.1202   19.0289   24.6836 H   0  0  0  0  0  0  0  0  0  0  0  0
   17.4214   18.4178   22.7026 C   0  0  0  0  0  0  0  0  0  0  0  0
   16.3382   18.5973   22.6606 H   0  0  0  0  0  0  0  0  0  0  0  0
   17.7958   18.5720   21.6812 H   0  0  0  0  0  0  0  0  0  0  0  0
   17.6461   16.9533   23.1407 C   0  0  0  0  0  0  0  0  0  0  0  0
   17.2046   16.7699   24.1289 H   0  0  0  0  0  0  0  0  0  0  0  0
   17.1749   16.2629   22.4293 H   0  0  0  0  0  0  0  0  0  0  0  0
   18.7116   16.7025   23.1954 H   0  0  0  0  0  0  0  0  0  0  0  0
  1  2  1  0  0  0  0
  1  3  2  0  0  0  0
  1  4  1  0  0  0  0
  4  5  1  0  0  0  0
  4  6  1  0  0  0  0
  4  7  1  0  0  0  0
  7  8  1  0  0  0  0
  7  9  1  0  0  0  0
  7 10  1  0  0  0  0
 10 11  1  0  0  0  0
 10 12  1  0  0  0  0
 10 13  1  0  0  0  0
 13 14  1  0  0  0  0
 13 15  1  0  0  0  0
 13 16  1  0  0  0  0
 16 17  1  0  0  0  0
 16 18  1  0  0  0  0
 16 19  1  0  0  0  0
 19 20  1  0  0  0  0
 19 21  1  0  0  0  0
 19 22  1  0  0  0  0
 22 23  1  0  0  0  0
 22 24  1  0  0  0  0
 22 25  1  0  0  0  0
M  END
> <VConfSearch Rank>
393

> <Conf_Id>
20

> <Delta U+W>
3.224

> <U+W>
-48.406

> <U>
10.617

> <W>
-59.023

> <W(PB)>
-61.467

> <W(SA)>
2.444

> <Valence>
11.188

> <Coulomb>
-1.778

> <VdW>
1.208

> <VdW6>
-9.786

> <VdW12>
10.993

> <Bond>
0.241

> <Angle>
3.294

> <Pdih>
7.653

> <Idih>
0.001

> <Tether>
0.000

$$$$
VeraChem MOL file


 25 24  0  0  0  0  0  0  0  0999 V2000     
   20.4386   22.3411   22.8466 C   0  0  0  0  0  0  0  0  0  0  0  0
   21.3557   22.6962   23.5611 O   0  5  0  0  0  0  0  0  0  0  0  0
   19.2755   22.6230   23.0584 O   0  0  0  0  0  0  0  0  0  0  0  0
   20.7694   21.5548   21.5794 C   0  0  0  0  0  0  0  0  0  0  0  0
   21.3723   22.2214   20.9520 H   0  0  0  0  0  0  0  0  0  0  0  0
   19.8414   21.3596   21.0286 H   0  0  0  0  0  0  0  0  0  0  0  0
   21.5504   20.2297   21.8058 C   0  0  0  0  0  0  0  0  0  0  0  0
   22.0383   19.9579   20.8600 H   0  0  0  0  0  0  0  0  0  0  0  0
   22.3622   20.3921   22.5284 H   0  0  0  0  0  0  0  0  0  0  0  0
   20.6779   19.0289   22.2484 C   0  0  0  0  0  0  0  0  0  0  0  0
   21.3035   18.1260   22.2283 H   0  0  0  0  0  0  0  0  0  0  0  0
   19.8758   18.8648   21.5160 H   0  0  0  0  0  0  0  0  0  0  0  0
   20.0685   19.1793   23.6608 C   0  0  0  0  0  0  0  0  0  0  0  0
   20.8579   19.4469   24.3765 H   0  0  0  0  0  0  0  0  0  0  0  0
   19.3382   19.9983   23.6663 H   0  0  0  0  0  0  0  0  0  0  0  0
   19.3693   17.8822   24.1223 C   0  0  0  0  0  0  0  0  0  0  0  0
   20.0934   17.0560   24.1288 H   0  0  0  0  0  0  0  0  0  0  0  0
   18.5836   17.6136   23.4029 H   0  0  0  0  0  0  0  0  0  0  0  0
   18.7506   18.0350   25.5278 C   0  0  0  0  0  0  0  0  0  0  0  0
   19.5342   18.3029   26.2500 H   0  0  0  0  0  0  0  0  0  0  0  0
   18.0243   18.8596   25.5247 H   0  0  0  0  0  0  0  0  0  0  0  0
   18.0526   16.7385   25.9857 C   0  0  0  0  0  0  0  0  0  0  0  0
   18.7640   15.9034   26.0281 H   0  0  0  0  0  0  0  0  0  0  0  0
   17.6188   16.8653   26.9861 H   0  0  0  0  0  0  0  0  0  0  0  0
   17.2426   16.4644   25.2973 H   0  0  0  0  0  0  0  0  0  0  0  0
  1  2  1  0  0  0  0
  1  3  2  0  0  0  0
  1  4  1  0  0  0  0
  4  5  1  0  0  0  0
  4  6  1  0  0  0  0
  4  7  1  0  0  0  0
  7  8  1  0  0  0  0
  7  9  1  0  0  0  0
  7 10  1  0  0  0  0
 10 11  1  0  0  0  0
 10 12  1  0  0  0  0
 10 13  1  0  0  0  0
 13 14  1  0  0  0  0
 13 15  1  0  0  0  0
 13 16  1  0  0  0  0
 16 17  1  0  0  0  0
 16 18  1  0  0  0  0
 16 19  1  0  0  0  0
 19 20  1  0  0  0  0
 19 21  1  0  0  0  0
 19 22  1  0  0  0  0
 22 23  1  0  0  0  0
 22 24  1  0  0  0  0
 22 25  1  0  0  0  0
M  END
> <VConfSearch Rank>
394

> <Conf_Id>
24

> <Delta U+W>
1.784

> <U+W>
-49.846

> <U>
10.904

> <W>
-60.749

> <W(PB)>
-63.220

> <W(SA)>
2.471

> <Valence>
9.445

> <Coulomb>
0.780

> <VdW>
0.679

> <VdW6>
-10.008

> <VdW12>
10.687

> <Bond>
0.201

> <Angle>
3.198

> <Pdih>
6.039

> <Idih>
0.006

> <Tether>
0.000

$$$$
VeraChem MOL file


 25 24  0  0  0  0  0  0  0  0999 V2000     
   20.3345   21.6322   21.7635 C   0  0  0  0  0  0  0  0  0  0  0  0
   19.5174   21.4905   20.8747 O   0  5  0  0  0  0  0  0  0  0  0  0
   20.1525   22.3391   22.7353 O   0  0  0  0  0  0  0  0  0  0  0  0
   21.6883   20.9391   21.6211 C   0  0  0  0  0  0  0  0  0  0  0  0
   22.3193   21.2102   22.4761 H   0  0  0  0  0  0  0  0  0  0  0  0
   22.1628   21.3699   20.7319 H   0  0  0  0  0  0  0  0  0  0  0  0
   21.6289   19.3935   21.4641 C   0  0  0  0  0  0  0  0  0  0  0  0
   20.8408   19.1196   20.7489 H   0  0  0  0  0  0  0  0  0  0  0  0
   22.5740   19.0619   21.0133 H   0  0  0  0  0  0  0  0  0  0  0  0
   21.4387   18.6128   22.7883 C   0  0  0  0  0  0  0  0  0  0  0  0
   22.2363   18.8821   23.4941 H   0  0  0  0  0  0  0  0  0  0  0  0
   21.5638   17.5424   22.5751 H   0  0  0  0  0  0  0  0  0  0  0  0
   20.0610   18.8285   23.4548 C   0  0  0  0  0  0  0  0  0  0  0  0
   19.9702   19.8678   23.7949 H   0  0  0  0  0  0  0  0  0  0  0  0
   19.2641   18.6601   22.7175 H   0  0  0  0  0  0  0  0  0  0  0  0
   19.8568   17.8873   24.6619 C   0  0  0  0  0  0  0  0  0  0  0  0
   20.6572   18.0537   25.3957 H   0  0  0  0  0  0  0  0  0  0  0  0
   19.9372   16.8426   24.3316 H   0  0  0  0  0  0  0  0  0  0  0  0
   18.4861   18.1099   25.3350 C   0  0  0  0  0  0  0  0  0  0  0  0
   18.4026   19.1537   25.6683 H   0  0  0  0  0  0  0  0  0  0  0  0
   17.6831   17.9435   24.6036 H   0  0  0  0  0  0  0  0  0  0  0  0
   18.2851   17.1691   26.5401 C   0  0  0  0  0  0  0  0  0  0  0  0
   19.0575   17.3366   27.3022 H   0  0  0  0  0  0  0  0  0  0  0  0
   17.3062   17.3411   27.0062 H   0  0  0  0  0  0  0  0  0  0  0  0
   18.3324   16.1172   26.2294 H   0  0  0  0  0  0  0  0  0  0  0  0
  1  2  1  0  0  0  0
  1  3  2  0  0  0  0
  1  4  1  0  0  0  0
  4  5  1  0  0  0  0
  4  6  1  0  0  0  0
  4  7  1  0  0  0  0
  7  8  1  0  0  0  0
  7  9  1  0  0  0  0
  7 10  1  0  0  0  0
 10 11  1  0  0  0  0
 10 12  1  0  0  0  0
 10 13  1  0  0  0  0
 13 14  1  0  0  0  0
 13 15  1  0  0  0  0
 13 16  1  0  0  0  0
 16 17  1  0  0  0  0
 16 18  1  0  0  0  0
 16 19  1  0  0  0  0
 19 20  1  0  0  0  0
 19 21  1  0  0  0  0
 19 22  1  0  0  0  0
 22 23  1  0  0  0  0
 22 24  1  0  0  0  0
 22 25  1  0  0  0  0
M  END
> <VConfSearch Rank>
395

> <Conf_Id>
9

> <Delta U+W>
1.764

> <U+W>
-49.865

> <U>
10.902

> <W>
-60.768

> <W(PB)>
-63.223

> <W(SA)>
2.456

> <Valence>
9.445

> <Coulomb>
0.778

> <VdW>
0.679

> <VdW6>
-10.007

> <VdW12>
10.687

> <Bond>
0.201

> <Angle>
3.198

> <Pdih>
6.040

> <Idih>
0.006

> <Tether>
0.000

$$$$
VeraChem MOL file


 25 24  0  0  0  0  0  0  0  0999 V2000     
   20.3670   22.8297   23.1791 C   0  0  0  0  0  0  0  0  0  0  0  0
   20.0077   22.8318   22.0183 O   0  5  0  0  0  0  0  0  0  0  0  0
   20.4193   23.8285   23.8694 O   0  0  0  0  0  0  0  0  0  0  0  0
   20.7543   21.4976   23.8108 C   0  0  0  0  0  0  0  0  0  0  0  0
   21.5436   21.6896   24.5472 H   0  0  0  0  0  0  0  0  0  0  0  0
   21.1937   20.8715   23.0282 H   0  0  0  0  0  0  0  0  0  0  0  0
   19.5550   20.7852   24.4904 C   0  0  0  0  0  0  0  0  0  0  0  0
   19.1612   21.4546   25.2676 H   0  0  0  0  0  0  0  0  0  0  0  0
   18.7396   20.6439   23.7674 H   0  0  0  0  0  0  0  0  0  0  0  0
   19.9308   19.4321   25.1463 C   0  0  0  0  0  0  0  0  0  0  0  0
   19.3280   19.3155   26.0573 H   0  0  0  0  0  0  0  0  0  0  0  0
   20.9770   19.4480   25.4811 H   0  0  0  0  0  0  0  0  0  0  0  0
   19.6743   18.1893   24.2572 C   0  0  0  0  0  0  0  0  0  0  0  0
   19.8944   17.2906   24.8491 H   0  0  0  0  0  0  0  0  0  0  0  0
   18.6060   18.1416   24.0082 H   0  0  0  0  0  0  0  0  0  0  0  0
   20.5143   18.1530   22.9586 C   0  0  0  0  0  0  0  0  0  0  0  0
   21.5654   18.3556   23.2046 H   0  0  0  0  0  0  0  0  0  0  0  0
   20.1855   18.9520   22.2814 H   0  0  0  0  0  0  0  0  0  0  0  0
   20.4339   16.7990   22.2158 C   0  0  0  0  0  0  0  0  0  0  0  0
   21.1296   16.8209   21.3658 H   0  0  0  0  0  0  0  0  0  0  0  0
   20.7776   15.9917   22.8772 H   0  0  0  0  0  0  0  0  0  0  0  0
   19.0179   16.4741   21.6926 C   0  0  0  0  0  0  0  0  0  0  0  0
   18.6428   17.2802   21.0485 H   0  0  0  0  0  0  0  0  0  0  0  0
   19.0290   15.5479   21.1036 H   0  0  0  0  0  0  0  0  0  0  0  0
   18.3087   16.3349   22.5182 H   0  0  0  0  0  0  0  0  0  0  0  0
  1  2  1  0  0  0  0
  1  3  2  0  0  0  0
  1  4  1  0  0  0  0
  4  5  1  0  0  0  0
  4  6  1  0  0  0  0
  4  7  1  0  0  0  0
  7  8  1  0  0  0  0
  7  9  1  0  0  0  0
  7 10  1  0  0  0  0
 10 11  1  0  0  0  0
 10 12  1  0  0  0  0
 10 13  1  0  0  0  0
 13 14  1  0  0  0  0
 13 15  1  0  0  0  0
 13 16  1  0  0  0  0
 16 17  1  0  0  0  0
 16 18  1  0  0  0  0
 16 19  1  0  0  0  0
 19 20  1  0  0  0  0
 19 21  1  0  0  0  0
 19 22  1  0  0  0  0
 22 23  1  0  0  0  0
 22 24  1  0  0  0  0
 22 25  1  0  0  0  0
M  END
> <VConfSearch Rank>
396

> <Conf_Id>
89

> <Delta U+W>
2.903

> <U+W>
-48.726

> <U>
10.996

> <W>
-59.723

> <W(PB)>
-62.151

> <W(SA)>
2.428

> <Valence>
10.985

> <Coulomb>
-0.995

> <VdW>
1.006

> <VdW6>
-10.062

> <VdW12>
11.069

> <Bond>
0.238

> <Angle>
3.202

> <Pdih>
7.544

> <Idih>
0.001

> <Tether>
0.000

$$$$
VeraChem MOL file


 25 24  0  0  0  0  0  0  0  0999 V2000     
   18.1477   21.2105   25.3539 C   0  0  0  0  0  0  0  0  0  0  0  0
   18.0127   22.0955   24.5319 O   0  5  0  0  0  0  0  0  0  0  0  0
   17.2247   20.5428   25.7779 O   0  0  0  0  0  0  0  0  0  0  0  0
   19.5417   20.9700   25.9304 C   0  0  0  0  0  0  0  0  0  0  0  0
   19.4802   21.2180   26.9964 H   0  0  0  0  0  0  0  0  0  0  0  0
   20.2417   21.6853   25.4820 H   0  0  0  0  0  0  0  0  0  0  0  0
   20.0817   19.5198   25.7794 C   0  0  0  0  0  0  0  0  0  0  0  0
   20.8663   19.3715   26.5336 H   0  0  0  0  0  0  0  0  0  0  0  0
   19.2901   18.7972   26.0220 H   0  0  0  0  0  0  0  0  0  0  0  0
   20.6936   19.1922   24.3944 C   0  0  0  0  0  0  0  0  0  0  0  0
   21.1853   18.2146   24.4714 H   0  0  0  0  0  0  0  0  0  0  0  0
   21.4839   19.9178   24.1588 H   0  0  0  0  0  0  0  0  0  0  0  0
   19.6606   19.1560   23.2420 C   0  0  0  0  0  0  0  0  0  0  0  0
   18.8364   18.4771   23.5000 H   0  0  0  0  0  0  0  0  0  0  0  0
   19.2181   20.1523   23.1221 H   0  0  0  0  0  0  0  0  0  0  0  0
   20.2685   18.7433   21.8798 C   0  0  0  0  0  0  0  0  0  0  0  0
   21.1133   19.4026   21.6384 H   0  0  0  0  0  0  0  0  0  0  0  0
   19.5129   18.9097   21.0998 H   0  0  0  0  0  0  0  0  0  0  0  0
   20.7238   17.2671   21.8246 C   0  0  0  0  0  0  0  0  0  0  0  0
   21.5386   17.0934   22.5393 H   0  0  0  0  0  0  0  0  0  0  0  0
   19.8928   16.6119   22.1202 H   0  0  0  0  0  0  0  0  0  0  0  0
   21.2058   16.8769   20.4127 C   0  0  0  0  0  0  0  0  0  0  0  0
   22.0551   17.4994   20.1021 H   0  0  0  0  0  0  0  0  0  0  0  0
   21.5283   15.8278   20.3903 H   0  0  0  0  0  0  0  0  0  0  0  0
   20.4023   16.9999   19.6748 H   0  0  0  0  0  0  0  0  0  0  0  0
  1  2  1  0  0  0  0
  1  3  2  0  0  0  0
  1  4  1  0  0  0  0
  4  5  1  0  0  0  0
  4  6  1  0  0  0  0
  4  7  1  0  0  0  0
  7  8  1  0  0  0  0
  7  9  1  0  0  0  0
  7 10  1  0  0  0  0
 10 11  1  0  0  0  0
 10 12  1  0  0  0  0
 10 13  1  0  0  0  0
 13 14  1  0  0  0  0
 13 15  1  0  0  0  0
 13 16  1  0  0  0  0
 16 17  1  0  0  0  0
 16 18  1  0  0  0  0
 16 19  1  0  0  0  0
 19 20  1  0  0  0  0
 19 21  1  0  0  0  0
 19 22  1  0  0  0  0
 22 23  1  0  0  0  0
 22 24  1  0  0  0  0
 22 25  1  0  0  0  0
M  END
> <VConfSearch Rank>
397

> <Conf_Id>
114

> <Delta U+W>
2.758

> <U+W>
-48.871

> <U>
11.422

> <W>
-60.293

> <W(PB)>
-62.719

> <W(SA)>
2.425

> <Valence>
10.135

> <Coulomb>
0.369

> <VdW>
0.918

> <VdW6>
-10.482

> <VdW12>
11.400

> <Bond>
0.245

> <Angle>
3.539

> <Pdih>
6.346

> <Idih>
0.006

> <Tether>
0.000

$$$$
VeraChem MOL file


 25 24  0  0  0  0  0  0  0  0999 V2000     
   16.7495   19.8996   24.8087 C   0  0  0  0  0  0  0  0  0  0  0  0
   16.5745   19.1115   25.7171 O   0  5  0  0  0  0  0  0  0  0  0  0
   16.7842   21.1049   24.9609 O   0  0  0  0  0  0  0  0  0  0  0  0
   16.9146   19.3487   23.3951 C   0  0  0  0  0  0  0  0  0  0  0  0
   16.2878   19.9554   22.7309 H   0  0  0  0  0  0  0  0  0  0  0  0
   16.5118   18.3290   23.3676 H   0  0  0  0  0  0  0  0  0  0  0  0
   18.3778   19.3619   22.8816 C   0  0  0  0  0  0  0  0  0  0  0  0
   18.3864   19.0743   21.8217 H   0  0  0  0  0  0  0  0  0  0  0  0
   18.7634   20.3884   22.9357 H   0  0  0  0  0  0  0  0  0  0  0  0
   19.2933   18.4021   23.6791 C   0  0  0  0  0  0  0  0  0  0  0  0
   18.8375   17.4026   23.6890 H   0  0  0  0  0  0  0  0  0  0  0  0
   19.3510   18.7255   24.7276 H   0  0  0  0  0  0  0  0  0  0  0  0
   20.7222   18.2829   23.0971 C   0  0  0  0  0  0  0  0  0  0  0  0
   21.2409   17.4794   23.6351 H   0  0  0  0  0  0  0  0  0  0  0  0
   20.6667   17.9687   22.0460 H   0  0  0  0  0  0  0  0  0  0  0  0
   21.5446   19.5904   23.2095 C   0  0  0  0  0  0  0  0  0  0  0  0
   21.5967   19.9060   24.2604 H   0  0  0  0  0  0  0  0  0  0  0  0
   21.0293   20.3938   22.6682 H   0  0  0  0  0  0  0  0  0  0  0  0
   22.9752   19.4679   22.6345 C   0  0  0  0  0  0  0  0  0  0  0  0
   22.9274   19.1410   21.5866 H   0  0  0  0  0  0  0  0  0  0  0  0
   23.4374   20.4647   22.6273 H   0  0  0  0  0  0  0  0  0  0  0  0
   23.8805   18.5089   23.4381 C   0  0  0  0  0  0  0  0  0  0  0  0
   24.9061   18.5325   23.0477 H   0  0  0  0  0  0  0  0  0  0  0  0
   23.9156   18.7965   24.4970 H   0  0  0  0  0  0  0  0  0  0  0  0
   23.5256   17.4729   23.3738 H   0  0  0  0  0  0  0  0  0  0  0  0
  1  2  1  0  0  0  0
  1  3  2  0  0  0  0
  1  4  1  0  0  0  0
  4  5  1  0  0  0  0
  4  6  1  0  0  0  0
  4  7  1  0  0  0  0
  7  8  1  0  0  0  0
  7  9  1  0  0  0  0
  7 10  1  0  0  0  0
 10 11  1  0  0  0  0
 10 12  1  0  0  0  0
 10 13  1  0  0  0  0
 13 14  1  0  0  0  0
 13 15  1  0  0  0  0
 13 16  1  0  0  0  0
 16 17  1  0  0  0  0
 16 18  1  0  0  0  0
 16 19  1  0  0  0  0
 19 20  1  0  0  0  0
 19 21  1  0  0  0  0
 19 22  1  0  0  0  0
 22 23  1  0  0  0  0
 22 24  1  0  0  0  0
 22 25  1  0  0  0  0
M  END
> <VConfSearch Rank>
398

> <Conf_Id>
87

> <Delta U+W>
1.453

> <U+W>
-50.176

> <U>
9.763

> <W>
-59.940

> <W(PB)>
-62.392

> <W(SA)>
2.452

> <Valence>
8.883

> <Coulomb>
-0.122

> <VdW>
1.003

> <VdW6>
-9.782

> <VdW12>
10.785

> <Bond>
0.212

> <Angle>
2.940

> <Pdih>
5.730

> <Idih>
0.001

> <Tether>
0.000

$$$$
VeraChem MOL file


 25 24  0  0  0  0  0  0  0  0999 V2000     
   23.7463   20.5641   23.3905 C   0  0  0  0  0  0  0  0  0  0  0  0
   24.2432   20.0287   22.4194 O   0  5  0  0  0  0  0  0  0  0  0  0
   24.0536   21.6740   23.7783 O   0  0  0  0  0  0  0  0  0  0  0  0
   22.6643   19.8089   24.1542 C   0  0  0  0  0  0  0  0  0  0  0  0
   22.7358   20.0887   25.2120 H   0  0  0  0  0  0  0  0  0  0  0  0
   22.8847   18.7368   24.0864 H   0  0  0  0  0  0  0  0  0  0  0  0
   21.2396   20.0956   23.6195 C   0  0  0  0  0  0  0  0  0  0  0  0
   21.0364   21.1734   23.6857 H   0  0  0  0  0  0  0  0  0  0  0  0
   21.1988   19.8264   22.5557 H   0  0  0  0  0  0  0  0  0  0  0  0
   20.1633   19.3125   24.4062 C   0  0  0  0  0  0  0  0  0  0  0  0
   20.2650   19.5416   25.4757 H   0  0  0  0  0  0  0  0  0  0  0  0
   20.3421   18.2338   24.3076 H   0  0  0  0  0  0  0  0  0  0  0  0
   18.7149   19.6488   23.9710 C   0  0  0  0  0  0  0  0  0  0  0  0
   18.0149   19.0996   24.6142 H   0  0  0  0  0  0  0  0  0  0  0  0
   18.5245   20.7128   24.1661 H   0  0  0  0  0  0  0  0  0  0  0  0
   18.3835   19.3515   22.4845 C   0  0  0  0  0  0  0  0  0  0  0  0
   18.9688   20.0211   21.8408 H   0  0  0  0  0  0  0  0  0  0  0  0
   17.3317   19.6103   22.3022 H   0  0  0  0  0  0  0  0  0  0  0  0
   18.6217   17.8887   22.0355 C   0  0  0  0  0  0  0  0  0  0  0  0
   18.3786   17.8062   20.9674 H   0  0  0  0  0  0  0  0  0  0  0  0
   19.6863   17.6346   22.1252 H   0  0  0  0  0  0  0  0  0  0  0  0
   17.7731   16.8641   22.8191 C   0  0  0  0  0  0  0  0  0  0  0  0
   16.7049   17.1090   22.7563 H   0  0  0  0  0  0  0  0  0  0  0  0
   17.9141   15.8553   22.4101 H   0  0  0  0  0  0  0  0  0  0  0  0
   18.0589   16.8369   23.8781 H   0  0  0  0  0  0  0  0  0  0  0  0
  1  2  1  0  0  0  0
  1  3  2  0  0  0  0
  1  4  1  0  0  0  0
  4  5  1  0  0  0  0
  4  6  1  0  0  0  0
  4  7  1  0  0  0  0
  7  8  1  0  0  0  0
  7  9  1  0  0  0  0
  7 10  1  0  0  0  0
 10 11  1  0  0  0  0
 10 12  1  0  0  0  0
 10 13  1  0  0  0  0
 13 14  1  0  0  0  0
 13 15  1  0  0  0  0
 13 16  1  0  0  0  0
 16 17  1  0  0  0  0
 16 18  1  0  0  0  0
 16 19  1  0  0  0  0
 19 20  1  0  0  0  0
 19 21  1  0  0  0  0
 19 22  1  0  0  0  0
 22 23  1  0  0  0  0
 22 24  1  0  0  0  0
 22 25  1  0  0  0  0
M  END
> <VConfSearch Rank>
399

> <Conf_Id>
29

> <Delta U+W>
0.850

> <U+W>
-50.780

> <U>
8.646

> <W>
-59.426

> <W(PB)>
-61.868

> <W(SA)>
2.442

> <Valence>
8.924

> <Coulomb>
-1.171

> <VdW>
0.894

> <VdW6>
-10.223

> <VdW12>
11.117

> <Bond>
0.231

> <Angle>
3.232

> <Pdih>
5.461

> <Idih>
0.001

> <Tether>
0.000

$$$$
VeraChem MOL file


 25 24  0  0  0  0  0  0  0  0999 V2000     
   21.1903   16.7820   20.4174 C   0  0  0  0  0  0  0  0  0  0  0  0
   21.9355   16.0229   21.0050 O   0  5  0  0  0  0  0  0  0  0  0  0
   21.3436   17.1131   19.2583 O   0  0  0  0  0  0  0  0  0  0  0  0
   20.0080   17.3661   21.1825 C   0  0  0  0  0  0  0  0  0  0  0  0
   19.6768   16.6225   21.9173 H   0  0  0  0  0  0  0  0  0  0  0  0
   19.1834   17.5128   20.4748 H   0  0  0  0  0  0  0  0  0  0  0  0
   20.3499   18.7002   21.8904 C   0  0  0  0  0  0  0  0  0  0  0  0
   21.1897   18.5324   22.5777 H   0  0  0  0  0  0  0  0  0  0  0  0
   20.6877   19.4320   21.1437 H   0  0  0  0  0  0  0  0  0  0  0  0
   19.1368   19.2664   22.6640 C   0  0  0  0  0  0  0  0  0  0  0  0
   18.8233   18.5529   23.4374 H   0  0  0  0  0  0  0  0  0  0  0  0
   18.2865   19.3618   21.9751 H   0  0  0  0  0  0  0  0  0  0  0  0
   19.4050   20.6522   23.3027 C   0  0  0  0  0  0  0  0  0  0  0  0
   19.6236   21.3738   22.5040 H   0  0  0  0  0  0  0  0  0  0  0  0
   18.4818   21.0077   23.7789 H   0  0  0  0  0  0  0  0  0  0  0  0
   20.5615   20.6930   24.3364 C   0  0  0  0  0  0  0  0  0  0  0  0
   20.6419   21.7149   24.7310 H   0  0  0  0  0  0  0  0  0  0  0  0
   21.5131   20.4976   23.8250 H   0  0  0  0  0  0  0  0  0  0  0  0
   20.4192   19.7099   25.5244 C   0  0  0  0  0  0  0  0  0  0  0  0
   20.4262   18.6739   25.1604 H   0  0  0  0  0  0  0  0  0  0  0  0
   21.3021   19.8108   26.1703 H   0  0  0  0  0  0  0  0  0  0  0  0
   19.1523   19.9563   26.3720 C   0  0  0  0  0  0  0  0  0  0  0  0
   18.2411   19.7620   25.7924 H   0  0  0  0  0  0  0  0  0  0  0  0
   19.1393   19.2922   27.2458 H   0  0  0  0  0  0  0  0  0  0  0  0
   19.1169   20.9923   26.7331 H   0  0  0  0  0  0  0  0  0  0  0  0
  1  2  1  0  0  0  0
  1  3  2  0  0  0  0
  1  4  1  0  0  0  0
  4  5  1  0  0  0  0
  4  6  1  0  0  0  0
  4  7  1  0  0  0  0
  7  8  1  0  0  0  0
  7  9  1  0  0  0  0
  7 10  1  0  0  0  0
 10 11  1  0  0  0  0
 10 12  1  0  0  0  0
 10 13  1  0  0  0  0
 13 14  1  0  0  0  0
 13 15  1  0  0  0  0
 13 16  1  0  0  0  0
 16 17  1  0  0  0  0
 16 18  1  0  0  0  0
 16 19  1  0  0  0  0
 19 20  1  0  0  0  0
 19 21  1  0  0  0  0
 19 22  1  0  0  0  0
 22 23  1  0  0  0  0
 22 24  1  0  0  0  0
 22 25  1  0  0  0  0
M  END
> <VConfSearch Rank>
400

> <Conf_Id>
30

> <Delta U+W>
0.843

> <U+W>
-50.787

> <U>
8.647

> <W>
-59.434

> <W(PB)>
-61.861

> <W(SA)>
2.428

> <Valence>
8.924

> <Coulomb>
-1.170

> <VdW>
0.894

> <VdW6>
-10.224

> <VdW12>
11.118

> <Bond>
0.231

> <Angle>
3.232

> <Pdih>
5.460

> <Idih>
0.000

> <Tether>
0.000

$$$$
VeraChem MOL file


 25 24  0  0  0  0  0  0  0  0999 V2000     
   22.2540   19.8430   19.0153 C   0  0  0  0  0  0  0  0  0  0  0  0
   22.0525   18.7054   18.6358 O   0  5  0  0  0  0  0  0  0  0  0  0
   22.8476   20.6691   18.3510 O   0  0  0  0  0  0  0  0  0  0  0  0
   21.7487   20.2848   20.3897 C   0  0  0  0  0  0  0  0  0  0  0  0
   21.0933   21.1498   20.2344 H   0  0  0  0  0  0  0  0  0  0  0  0
   22.6166   20.6377   20.9591 H   0  0  0  0  0  0  0  0  0  0  0  0
   20.9969   19.1958   21.2004 C   0  0  0  0  0  0  0  0  0  0  0  0
   20.1325   18.8422   20.6214 H   0  0  0  0  0  0  0  0  0  0  0  0
   21.6571   18.3296   21.3468 H   0  0  0  0  0  0  0  0  0  0  0  0
   20.5227   19.7251   22.5713 C   0  0  0  0  0  0  0  0  0  0  0  0
   19.8629   20.5910   22.4225 H   0  0  0  0  0  0  0  0  0  0  0  0
   21.3885   20.0781   23.1483 H   0  0  0  0  0  0  0  0  0  0  0  0
   19.7751   18.6402   23.3760 C   0  0  0  0  0  0  0  0  0  0  0  0
   18.9092   18.2871   22.7993 H   0  0  0  0  0  0  0  0  0  0  0  0
   20.4347   17.7743   23.5251 H   0  0  0  0  0  0  0  0  0  0  0  0
   19.3006   19.1689   24.7469 C   0  0  0  0  0  0  0  0  0  0  0  0
   18.6410   20.0348   24.5981 H   0  0  0  0  0  0  0  0  0  0  0  0
   20.1664   19.5220   25.3238 H   0  0  0  0  0  0  0  0  0  0  0  0
   18.5533   18.0845   25.5513 C   0  0  0  0  0  0  0  0  0  0  0  0
   17.6854   17.7302   24.9780 H   0  0  0  0  0  0  0  0  0  0  0  0
   19.2108   17.2173   25.7038 H   0  0  0  0  0  0  0  0  0  0  0  0
   18.0812   18.6163   26.9195 C   0  0  0  0  0  0  0  0  0  0  0  0
   17.3963   19.4654   26.7958 H   0  0  0  0  0  0  0  0  0  0  0  0
   17.5522   17.8328   27.4775 H   0  0  0  0  0  0  0  0  0  0  0  0
   18.9331   18.9487   27.5270 H   0  0  0  0  0  0  0  0  0  0  0  0
  1  2  1  0  0  0  0
  1  3  2  0  0  0  0
  1  4  1  0  0  0  0
  4  5  1  0  0  0  0
  4  6  1  0  0  0  0
  4  7  1  0  0  0  0
  7  8  1  0  0  0  0
  7  9  1  0  0  0  0
  7 10  1  0  0  0  0
 10 11  1  0  0  0  0
 10 12  1  0  0  0  0
 10 13  1  0  0  0  0
 13 14  1  0  0  0  0
 13 15  1  0  0  0  0
 13 16  1  0  0  0  0
 16 17  1  0  0  0  0
 16 18  1  0  0  0  0
 16 19  1  0  0  0  0
 19 20  1  0  0  0  0
 19 21  1  0  0  0  0
 19 22  1  0  0  0  0
 22 23  1  0  0  0  0
 22 24  1  0  0  0  0
 22 25  1  0  0  0  0
M  END
> <VConfSearch Rank>
401

> <Conf_Id>
0

> <Delta U+W>
0.000

> <U+W>
-51.629

> <U>
6.586

> <W>
-58.216

> <W(PB)>
-60.757

> <W(SA)>
2.541

> <Valence>
8.027

> <Coulomb>
-2.892

> <VdW>
1.451

> <VdW6>
-7.931

> <VdW12>
9.383

> <Bond>
0.149

> <Angle>
2.726

> <Pdih>
5.152

> <Idih>
0.000

> <Tether>
0.000

$$$$
VeraChem MOL file


 25 24  0  0  0  0  0  0  0  0999 V2000     
   21.5357   15.7654   20.2435 C   0  0  0  0  0  0  0  0  0  0  0  0
   22.4781   15.1163   20.6524 O   0  5  0  0  0  0  0  0  0  0  0  0
   20.6584   15.3079   19.5380 O   0  0  0  0  0  0  0  0  0  0  0  0
   21.4362   17.2291   20.6577 C   0  0  0  0  0  0  0  0  0  0  0  0
   20.9543   17.7818   19.8422 H   0  0  0  0  0  0  0  0  0  0  0  0
   22.4541   17.6241   20.7600 H   0  0  0  0  0  0  0  0  0  0  0  0
   20.6500   17.4288   21.9768 C   0  0  0  0  0  0  0  0  0  0  0  0
   19.6379   17.0164   21.8620 H   0  0  0  0  0  0  0  0  0  0  0  0
   21.1376   16.8585   22.7797 H   0  0  0  0  0  0  0  0  0  0  0  0
   20.5633   18.9181   22.3746 C   0  0  0  0  0  0  0  0  0  0  0  0
   20.0764   19.4855   21.5695 H   0  0  0  0  0  0  0  0  0  0  0  0
   21.5766   19.3277   22.4872 H   0  0  0  0  0  0  0  0  0  0  0  0
   19.7792   19.1140   23.6901 C   0  0  0  0  0  0  0  0  0  0  0  0
   18.7659   18.7046   23.5777 H   0  0  0  0  0  0  0  0  0  0  0  0
   20.2660   18.5467   24.4953 H   0  0  0  0  0  0  0  0  0  0  0  0
   19.6922   20.6031   24.0886 C   0  0  0  0  0  0  0  0  0  0  0  0
   19.2054   21.1707   23.2836 H   0  0  0  0  0  0  0  0  0  0  0  0
   20.7054   21.0129   24.2011 H   0  0  0  0  0  0  0  0  0  0  0  0
   18.9086   20.7991   25.4035 C   0  0  0  0  0  0  0  0  0  0  0  0
   17.8938   20.3920   25.2941 H   0  0  0  0  0  0  0  0  0  0  0  0
   19.3937   20.2342   26.2116 H   0  0  0  0  0  0  0  0  0  0  0  0
   18.8238   22.2873   25.7980 C   0  0  0  0  0  0  0  0  0  0  0  0
   18.2638   22.4081   26.7344 H   0  0  0  0  0  0  0  0  0  0  0  0
   19.8254   22.7124   25.9449 H   0  0  0  0  0  0  0  0  0  0  0  0
   18.3141   22.8714   25.0205 H   0  0  0  0  0  0  0  0  0  0  0  0
  1  2  1  0  0  0  0
  1  3  2  0  0  0  0
  1  4  1  0  0  0  0
  4  5  1  0  0  0  0
  4  6  1  0  0  0  0
  4  7  1  0  0  0  0
  7  8  1  0  0  0  0
  7  9  1  0  0  0  0
  7 10  1  0  0  0  0
 10 11  1  0  0  0  0
 10 12  1  0  0  0  0
 10 13  1  0  0  0  0
 13 14  1  0  0  0  0
 13 15  1  0  0  0  0
 13 16  1  0  0  0  0
 16 17  1  0  0  0  0
 16 18  1  0  0  0  0
 16 19  1  0  0  0  0
 19 20  1  0  0  0  0
 19 21  1  0  0  0  0
 19 22  1  0  0  0  0
 22 23  1  0  0  0  0
 22 24  1  0  0  0  0
 22 25  1  0  0  0  0
M  END
> <VConfSearch Rank>
402

> <Conf_Id>
27

> <Delta U+W>
-1.297

> <U+W>
-52.926

> <U>
5.617

> <W>
-58.543

> <W(PB)>
-61.065

> <W(SA)>
2.522

> <Valence>
7.531

> <Coulomb>
-2.818

> <VdW>
0.904

> <VdW6>
-7.640

> <VdW12>
8.544

> <Bond>
0.115

> <Angle>
2.271

> <Pdih>
5.144

> <Idih>
0.001

> <Tether>
0.000

$$$$
VeraChem MOL file


 25 24  0  0  0  0  0  0  0  0999 V2000     
   24.0414   18.1540   22.4548 C   0  0  0  0  0  0  0  0  0  0  0  0
   24.7701   18.1102   23.4265 O   0  5  0  0  0  0  0  0  0  0  0  0
   23.7521   17.1811   21.7865 O   0  0  0  0  0  0  0  0  0  0  0  0
   23.4732   19.5092   22.0432 C   0  0  0  0  0  0  0  0  0  0  0  0
   23.1427   19.4478   20.9993 H   0  0  0  0  0  0  0  0  0  0  0  0
   24.2963   20.2328   22.0736 H   0  0  0  0  0  0  0  0  0  0  0  0
   22.3129   20.0061   22.9442 C   0  0  0  0  0  0  0  0  0  0  0  0
   22.6508   20.0358   23.9895 H   0  0  0  0  0  0  0  0  0  0  0  0
   22.0608   21.0379   22.6641 H   0  0  0  0  0  0  0  0  0  0  0  0
   21.0499   19.1235   22.8273 C   0  0  0  0  0  0  0  0  0  0  0  0
   21.2899   18.0927   23.1229 H   0  0  0  0  0  0  0  0  0  0  0  0
   20.7240   19.0861   21.7788 H   0  0  0  0  0  0  0  0  0  0  0  0
   19.8979   19.6544   23.7075 C   0  0  0  0  0  0  0  0  0  0  0  0
   20.2247   19.6914   24.7558 H   0  0  0  0  0  0  0  0  0  0  0  0
   19.6541   20.6840   23.4117 H   0  0  0  0  0  0  0  0  0  0  0  0
   18.6358   18.7725   23.5918 C   0  0  0  0  0  0  0  0  0  0  0  0
   18.8794   17.7428   23.8876 H   0  0  0  0  0  0  0  0  0  0  0  0
   18.3091   18.7350   22.5435 H   0  0  0  0  0  0  0  0  0  0  0  0
   17.4842   19.3024   24.4718 C   0  0  0  0  0  0  0  0  0  0  0  0
   17.8070   19.3395   25.5215 H   0  0  0  0  0  0  0  0  0  0  0  0
   17.2365   20.3317   24.1775 H   0  0  0  0  0  0  0  0  0  0  0  0
   16.2260   18.4189   24.3536 C   0  0  0  0  0  0  0  0  0  0  0  0
   16.4374   17.3897   24.6722 H   0  0  0  0  0  0  0  0  0  0  0  0
   15.4179   18.8100   24.9853 H   0  0  0  0  0  0  0  0  0  0  0  0
   15.8626   18.3894   23.3180 H   0  0  0  0  0  0  0  0  0  0  0  0
  1  2  1  0  0  0  0
  1  3  2  0  0  0  0
  1  4  1  0  0  0  0
  4  5  1  0  0  0  0
  4  6  1  0  0  0  0
  4  7  1  0  0  0  0
  7  8  1  0  0  0  0
  7  9  1  0  0  0  0
  7 10  1  0  0  0  0
 10 11  1  0  0  0  0
 10 12  1  0  0  0  0
 10 13  1  0  0  0  0
 13 14  1  0  0  0  0
 13 15  1  0  0  0  0
 13 16  1  0  0  0  0
 16 17  1  0  0  0  0
 16 18  1  0  0  0  0
 16 19  1  0  0  0  0
 19 20  1  0  0  0  0
 19 21  1  0  0  0  0
 19 22  1  0  0  0  0
 22 23  1  0  0  0  0
 22 24  1  0  0  0  0
 22 25  1  0  0  0  0
M  END
> <VConfSearch Rank>
403

> <Conf_Id>
37

> <Delta U+W>
-0.230

> <U+W>
-51.860

> <U>
7.816

> <W>
-59.675

> <W(PB)>
-62.180

> <W(SA)>
2.505

> <Valence>
7.785

> <Coulomb>
-0.713

> <VdW>
0.744

> <VdW6>
-8.514

> <VdW12>
9.259

> <Bond>
0.136

> <Angle>
2.433

> <Pdih>
5.216

> <Idih>
0.000

> <Tether>
0.000

$$$$
VeraChem MOL file


 25 24  0  0  0  0  0  0  0  0999 V2000     
   19.2288   16.5216   20.5551 C   0  0  0  0  0  0  0  0  0  0  0  0
   18.9190   15.4445   21.0252 O   0  5  0  0  0  0  0  0  0  0  0  0
   20.2560   16.7146   19.9350 O   0  0  0  0  0  0  0  0  0  0  0  0
   18.2657   17.6907   20.7409 C   0  0  0  0  0  0  0  0  0  0  0  0
   17.2581   17.3253   20.5102 H   0  0  0  0  0  0  0  0  0  0  0  0
   18.5023   18.4609   19.9969 H   0  0  0  0  0  0  0  0  0  0  0  0
   18.2820   18.3003   22.1668 C   0  0  0  0  0  0  0  0  0  0  0  0
   17.4698   19.0352   22.2496 H   0  0  0  0  0  0  0  0  0  0  0  0
   18.0709   17.5115   22.9023 H   0  0  0  0  0  0  0  0  0  0  0  0
   19.6252   18.9852   22.5050 C   0  0  0  0  0  0  0  0  0  0  0  0
   19.8382   19.7636   21.7595 H   0  0  0  0  0  0  0  0  0  0  0  0
   20.4411   18.2519   22.4413 H   0  0  0  0  0  0  0  0  0  0  0  0
   19.6081   19.6121   23.9157 C   0  0  0  0  0  0  0  0  0  0  0  0
   18.7948   20.3479   23.9809 H   0  0  0  0  0  0  0  0  0  0  0  0
   19.3953   18.8330   24.6605 H   0  0  0  0  0  0  0  0  0  0  0  0
   20.9502   20.2961   24.2546 C   0  0  0  0  0  0  0  0  0  0  0  0
   21.1635   21.0751   23.5098 H   0  0  0  0  0  0  0  0  0  0  0  0
   21.7637   19.5605   24.1894 H   0  0  0  0  0  0  0  0  0  0  0  0
   20.9339   20.9224   25.6649 C   0  0  0  0  0  0  0  0  0  0  0  0
   20.1224   21.6602   25.7332 H   0  0  0  0  0  0  0  0  0  0  0  0
   20.7228   20.1455   26.4128 H   0  0  0  0  0  0  0  0  0  0  0  0
   22.2758   21.6043   25.9993 C   0  0  0  0  0  0  0  0  0  0  0  0
   22.4970   22.4078   25.2846 H   0  0  0  0  0  0  0  0  0  0  0  0
   22.2465   22.0437   27.0048 H   0  0  0  0  0  0  0  0  0  0  0  0
   23.1018   20.8817   25.9692 H   0  0  0  0  0  0  0  0  0  0  0  0
  1  2  1  0  0  0  0
  1  3  2  0  0  0  0
  1  4  1  0  0  0  0
  4  5  1  0  0  0  0
  4  6  1  0  0  0  0
  4  7  1  0  0  0  0
  7  8  1  0  0  0  0
  7  9  1  0  0  0  0
  7 10  1  0  0  0  0
 10 11  1  0  0  0  0
 10 12  1  0  0  0  0
 10 13  1  0  0  0  0
 13 14  1  0  0  0  0
 13 15  1  0  0  0  0
 13 16  1  0  0  0  0
 16 17  1  0  0  0  0
 16 18  1  0  0  0  0
 16 19  1  0  0  0  0
 19 20  1  0  0  0  0
 19 21  1  0  0  0  0
 19 22  1  0  0  0  0
 22 23  1  0  0  0  0
 22 24  1  0  0  0  0
 22 25  1  0  0  0  0
M  END
> <VConfSearch Rank>
404

> <Conf_Id>
54

> <Delta U+W>
-0.224

> <U+W>
-51.854

> <U>
7.816

> <W>
-59.670

> <W(PB)>
-62.157

> <W(SA)>
2.487

> <Valence>
7.785

> <Coulomb>
-0.713

> <VdW>
0.744

> <VdW6>
-8.515

> <VdW12>
9.259

> <Bond>
0.136

> <Angle>
2.433

> <Pdih>
5.215

> <Idih>
0.000

> <Tether>
0.000

$$$$
VeraChem MOL file


 25 24  0  0  0  0  0  0  0  0999 V2000     
   16.8847   21.4234   24.0821 C   0  0  0  0  0  0  0  0  0  0  0  0
   16.0847   21.1307   23.2153 O   0  5  0  0  0  0  0  0  0  0  0  0
   16.6142   21.4474   25.2667 O   0  0  0  0  0  0  0  0  0  0  0  0
   18.3024   21.8000   23.6606 C   0  0  0  0  0  0  0  0  0  0  0  0
   18.5751   22.7101   24.2078 H   0  0  0  0  0  0  0  0  0  0  0  0
   18.2938   22.0607   22.5953 H   0  0  0  0  0  0  0  0  0  0  0  0
   19.3575   20.6964   23.9334 C   0  0  0  0  0  0  0  0  0  0  0  0
   20.3538   21.1157   23.7457 H   0  0  0  0  0  0  0  0  0  0  0  0
   19.3252   20.4171   24.9956 H   0  0  0  0  0  0  0  0  0  0  0  0
   19.1443   19.4407   23.0537 C   0  0  0  0  0  0  0  0  0  0  0  0
   19.2222   19.7131   21.9924 H   0  0  0  0  0  0  0  0  0  0  0  0
   18.1216   19.0678   23.2023 H   0  0  0  0  0  0  0  0  0  0  0  0
   20.1297   18.2895   23.3676 C   0  0  0  0  0  0  0  0  0  0  0  0
   20.0650   18.0303   24.4331 H   0  0  0  0  0  0  0  0  0  0  0  0
   19.8013   17.4024   22.8113 H   0  0  0  0  0  0  0  0  0  0  0  0
   21.5980   18.6132   22.9959 C   0  0  0  0  0  0  0  0  0  0  0  0
   21.9312   19.4956   23.5564 H   0  0  0  0  0  0  0  0  0  0  0  0
   21.6613   18.8773   21.9315 H   0  0  0  0  0  0  0  0  0  0  0  0
   22.5782   17.4562   23.3007 C   0  0  0  0  0  0  0  0  0  0  0  0
   23.6046   17.8140   23.1401 H   0  0  0  0  0  0  0  0  0  0  0  0
   22.5087   17.1807   24.3621 H   0  0  0  0  0  0  0  0  0  0  0  0
   22.3469   16.2071   22.4225 C   0  0  0  0  0  0  0  0  0  0  0  0
   21.3780   15.7392   22.6364 H   0  0  0  0  0  0  0  0  0  0  0  0
   22.3773   16.4655   21.3560 H   0  0  0  0  0  0  0  0  0  0  0  0
   23.1257   15.4568   22.6105 H   0  0  0  0  0  0  0  0  0  0  0  0
  1  2  1  0  0  0  0
  1  3  2  0  0  0  0
  1  4  1  0  0  0  0
  4  5  1  0  0  0  0
  4  6  1  0  0  0  0
  4  7  1  0  0  0  0
  7  8  1  0  0  0  0
  7  9  1  0  0  0  0
  7 10  1  0  0  0  0
 10 11  1  0  0  0  0
 10 12  1  0  0  0  0
 10 13  1  0  0  0  0
 13 14  1  0  0  0  0
 13 15  1  0  0  0  0
 13 16  1  0  0  0  0
 16 17  1  0  0  0  0
 16 18  1  0  0  0  0
 16 19  1  0  0  0  0
 19 20  1  0  0  0  0
 19 21  1  0  0  0  0
 19 22  1  0  0  0  0
 22 23  1  0  0  0  0
 22 24  1  0  0  0  0
 22 25  1  0  0  0  0
M  END
> <VConfSearch Rank>
405

> <Conf_Id>
101

> <Delta U+W>
1.534

> <U+W>
-50.095

> <U>
9.416

> <W>
-59.512

> <W(PB)>
-61.988

> <W(SA)>
2.476

> <Valence>
8.939

> <Coulomb>
-0.615

> <VdW>
1.092

> <VdW6>
-9.710

> <VdW12>
10.802

> <Bond>
0.216

> <Angle>
2.979

> <Pdih>
5.743

> <Idih>
0.000

> <Tether>
0.000

$$$$
VeraChem MOL file


 25 24  0  0  0  0  0  0  0  0999 V2000     
   19.7884   15.0694   23.9350 C   0  0  0  0  0  0  0  0  0  0  0  0
   20.8012   14.7172   24.5067 O   0  5  0  0  0  0  0  0  0  0  0  0
   18.7525   14.4341   23.9483 O   0  0  0  0  0  0  0  0  0  0  0  0
   19.8116   16.3924   23.1779 C   0  0  0  0  0  0  0  0  0  0  0  0
   19.1272   16.3082   22.3253 H   0  0  0  0  0  0  0  0  0  0  0  0
   20.8210   16.5260   22.7733 H   0  0  0  0  0  0  0  0  0  0  0  0
   19.4126   17.5988   24.0673 C   0  0  0  0  0  0  0  0  0  0  0  0
   18.4403   17.3853   24.5325 H   0  0  0  0  0  0  0  0  0  0  0  0
   20.1333   17.7034   24.8901 H   0  0  0  0  0  0  0  0  0  0  0  0
   19.3066   18.9339   23.2921 C   0  0  0  0  0  0  0  0  0  0  0  0
   18.8847   19.6864   23.9705 H   0  0  0  0  0  0  0  0  0  0  0  0
   18.5931   18.8241   22.4643 H   0  0  0  0  0  0  0  0  0  0  0  0
   20.6655   19.4396   22.7484 C   0  0  0  0  0  0  0  0  0  0  0  0
   21.3783   19.5501   23.5758 H   0  0  0  0  0  0  0  0  0  0  0  0
   21.0935   18.6853   22.0765 H   0  0  0  0  0  0  0  0  0  0  0  0
   20.5597   20.7697   21.9597 C   0  0  0  0  0  0  0  0  0  0  0  0
   19.9110   20.6147   21.0869 H   0  0  0  0  0  0  0  0  0  0  0  0
   21.5516   21.0190   21.5586 H   0  0  0  0  0  0  0  0  0  0  0  0
   20.0304   21.9824   22.7651 C   0  0  0  0  0  0  0  0  0  0  0  0
   19.9986   22.8560   22.0997 H   0  0  0  0  0  0  0  0  0  0  0  0
   18.9938   21.8057   23.0808 H   0  0  0  0  0  0  0  0  0  0  0  0
   20.8981   22.3270   23.9949 C   0  0  0  0  0  0  0  0  0  0  0  0
   21.9452   22.4844   23.7054 H   0  0  0  0  0  0  0  0  0  0  0  0
   20.5374   23.2461   24.4744 H   0  0  0  0  0  0  0  0  0  0  0  0
   20.8637   21.5259   24.7439 H   0  0  0  0  0  0  0  0  0  0  0  0
  1  2  1  0  0  0  0
  1  3  2  0  0  0  0
  1  4  1  0  0  0  0
  4  5  1  0  0  0  0
  4  6  1  0  0  0  0
  4  7  1  0  0  0  0
  7  8  1  0  0  0  0
  7  9  1  0  0  0  0
  7 10  1  0  0  0  0
 10 11  1  0  0  0  0
 10 12  1  0  0  0  0
 10 13  1  0  0  0  0
 13 14  1  0  0  0  0
 13 15  1  0  0  0  0
 13 16  1  0  0  0  0
 16 17  1  0  0  0  0
 16 18  1  0  0  0  0
 16 19  1  0  0  0  0
 19 20  1  0  0  0  0
 19 21  1  0  0  0  0
 19 22  1  0  0  0  0
 22 23  1  0  0  0  0
 22 24  1  0  0  0  0
 22 25  1  0  0  0  0
M  END
> <VConfSearch Rank>
406

> <Conf_Id>
75

> <Delta U+W>
1.014

> <U+W>
-50.615

> <U>
8.474

> <W>
-59.089

> <W(PB)>
-61.530

> <W(SA)>
2.441

> <Valence>
9.080

> <Coulomb>
-1.772

> <VdW>
1.165

> <VdW6>
-9.830

> <VdW12>
10.996

> <Bond>
0.240

> <Angle>
3.225

> <Pdih>
5.615

> <Idih>
0.001

> <Tether>
0.000

$$$$
VeraChem MOL file


 25 24  0  0  0  0  0  0  0  0999 V2000     
   19.0728   18.2242   27.2822 C   0  0  0  0  0  0  0  0  0  0  0  0
   17.9409   17.7822   27.2917 O   0  5  0  0  0  0  0  0  0  0  0  0
   19.9066   17.9581   28.1252 O   0  0  0  0  0  0  0  0  0  0  0  0
   19.4756   19.1470   26.1376 C   0  0  0  0  0  0  0  0  0  0  0  0
   20.2096   19.8657   26.5215 H   0  0  0  0  0  0  0  0  0  0  0  0
   18.5906   19.7186   25.8332 H   0  0  0  0  0  0  0  0  0  0  0  0
   20.0604   18.3815   24.9251 C   0  0  0  0  0  0  0  0  0  0  0  0
   20.9377   17.8043   25.2489 H   0  0  0  0  0  0  0  0  0  0  0  0
   19.3184   17.6573   24.5612 H   0  0  0  0  0  0  0  0  0  0  0  0
   20.4589   19.3371   23.7796 C   0  0  0  0  0  0  0  0  0  0  0  0
   21.2001   20.0594   24.1480 H   0  0  0  0  0  0  0  0  0  0  0  0
   19.5815   19.9173   23.4699 H   0  0  0  0  0  0  0  0  0  0  0  0
   21.0479   18.5683   22.5735 C   0  0  0  0  0  0  0  0  0  0  0  0
   21.9403   18.0268   22.9161 H   0  0  0  0  0  0  0  0  0  0  0  0
   20.3407   17.8033   22.2251 H   0  0  0  0  0  0  0  0  0  0  0  0
   21.4551   19.4909   21.3964 C   0  0  0  0  0  0  0  0  0  0  0  0
   22.3628   19.0768   20.9366 H   0  0  0  0  0  0  0  0  0  0  0  0
   21.7370   20.4845   21.7707 H   0  0  0  0  0  0  0  0  0  0  0  0
   20.3885   19.6254   20.2814 C   0  0  0  0  0  0  0  0  0  0  0  0
   20.8104   20.2297   19.4666 H   0  0  0  0  0  0  0  0  0  0  0  0
   20.1776   18.6361   19.8524 H   0  0  0  0  0  0  0  0  0  0  0  0
   19.0676   20.2742   20.7447 C   0  0  0  0  0  0  0  0  0  0  0  0
   19.2532   21.2368   21.2386 H   0  0  0  0  0  0  0  0  0  0  0  0
   18.4073   20.4552   19.8868 H   0  0  0  0  0  0  0  0  0  0  0  0
   18.5298   19.6210   21.4431 H   0  0  0  0  0  0  0  0  0  0  0  0
  1  2  1  0  0  0  0
  1  3  2  0  0  0  0
  1  4  1  0  0  0  0
  4  5  1  0  0  0  0
  4  6  1  0  0  0  0
  4  7  1  0  0  0  0
  7  8  1  0  0  0  0
  7  9  1  0  0  0  0
  7 10  1  0  0  0  0
 10 11  1  0  0  0  0
 10 12  1  0  0  0  0
 10 13  1  0  0  0  0
 13 14  1  0  0  0  0
 13 15  1  0  0  0  0
 13 16  1  0  0  0  0
 16 17  1  0  0  0  0
 16 18  1  0  0  0  0
 16 19  1  0  0  0  0
 19 20  1  0  0  0  0
 19 21  1  0  0  0  0
 19 22  1  0  0  0  0
 22 23  1  0  0  0  0
 22 24  1  0  0  0  0
 22 25  1  0  0  0  0
M  END
> <VConfSearch Rank>
407

> <Conf_Id>
125

> <Delta U+W>
2.314

> <U+W>
-49.315

> <U>
9.740

> <W>
-59.054

> <W(PB)>
-61.488

> <W(SA)>
2.433

> <Valence>
10.506

> <Coulomb>
-1.761

> <VdW>
0.994

> <VdW6>
-9.209

> <VdW12>
10.203

> <Bond>
0.193

> <Angle>
2.979

> <Pdih>
7.334

> <Idih>
0.001

> <Tether>
0.000

$$$$
VeraChem MOL file


 25 24  0  0  0  0  0  0  0  0999 V2000     
   18.9170   16.5124   26.1970 C   0  0  0  0  0  0  0  0  0  0  0  0
   18.0904   17.1116   26.8562 O   0  5  0  0  0  0  0  0  0  0  0  0
   19.3546   15.4195   26.4983 O   0  0  0  0  0  0  0  0  0  0  0  0
   19.4527   17.1792   24.9351 C   0  0  0  0  0  0  0  0  0  0  0  0
   18.6409   17.7754   24.5035 H   0  0  0  0  0  0  0  0  0  0  0  0
   19.6986   16.3918   24.2126 H   0  0  0  0  0  0  0  0  0  0  0  0
   20.6970   18.0642   25.2066 C   0  0  0  0  0  0  0  0  0  0  0  0
   20.4261   18.8767   25.8949 H   0  0  0  0  0  0  0  0  0  0  0  0
   21.4539   17.4588   25.7243 H   0  0  0  0  0  0  0  0  0  0  0  0
   21.3279   18.6547   23.9231 C   0  0  0  0  0  0  0  0  0  0  0  0
   21.6063   17.8395   23.2412 H   0  0  0  0  0  0  0  0  0  0  0  0
   22.2621   19.1636   24.1971 H   0  0  0  0  0  0  0  0  0  0  0  0
   20.4058   19.6556   23.1888 C   0  0  0  0  0  0  0  0  0  0  0  0
   19.4989   19.1398   22.8510 H   0  0  0  0  0  0  0  0  0  0  0  0
   20.0890   20.4426   23.8865 H   0  0  0  0  0  0  0  0  0  0  0  0
   21.1153   20.2979   21.9742 C   0  0  0  0  0  0  0  0  0  0  0  0
   21.3918   19.5174   21.2521 H   0  0  0  0  0  0  0  0  0  0  0  0
   22.0548   20.7575   22.3104 H   0  0  0  0  0  0  0  0  0  0  0  0
   20.2661   21.3797   21.2668 C   0  0  0  0  0  0  0  0  0  0  0  0
   19.9923   22.1648   21.9851 H   0  0  0  0  0  0  0  0  0  0  0  0
   20.8830   21.8645   20.4976 H   0  0  0  0  0  0  0  0  0  0  0  0
   18.9915   20.8181   20.6001 C   0  0  0  0  0  0  0  0  0  0  0  0
   18.2882   20.4268   21.3457 H   0  0  0  0  0  0  0  0  0  0  0  0
   18.4741   21.6056   20.0372 H   0  0  0  0  0  0  0  0  0  0  0  0
   19.2379   20.0089   19.9004 H   0  0  0  0  0  0  0  0  0  0  0  0
  1  2  1  0  0  0  0
  1  3  2  0  0  0  0
  1  4  1  0  0  0  0
  4  5  1  0  0  0  0
  4  6  1  0  0  0  0
  4  7  1  0  0  0  0
  7  8  1  0  0  0  0
  7  9  1  0  0  0  0
  7 10  1  0  0  0  0
 10 11  1  0  0  0  0
 10 12  1  0  0  0  0
 10 13  1  0  0  0  0
 13 14  1  0  0  0  0
 13 15  1  0  0  0  0
 13 16  1  0  0  0  0
 16 17  1  0  0  0  0
 16 18  1  0  0  0  0
 16 19  1  0  0  0  0
 19 20  1  0  0  0  0
 19 21  1  0  0  0  0
 19 22  1  0  0  0  0
 22 23  1  0  0  0  0
 22 24  1  0  0  0  0
 22 25  1  0  0  0  0
M  END
> <VConfSearch Rank>
408

> <Conf_Id>
4

> <Delta U+W>
0.189

> <U+W>
-51.441

> <U>
7.701

> <W>
-59.141

> <W(PB)>
-61.609

> <W(SA)>
2.467

> <Valence>
8.550

> <Coulomb>
-1.988

> <VdW>
1.139

> <VdW6>
-8.988

> <VdW12>
10.127

> <Bond>
0.191

> <Angle>
2.738

> <Pdih>
5.621

> <Idih>
0.001

> <Tether>
0.000

$$$$
VeraChem MOL file


 25 24  0  0  0  0  0  0  0  0999 V2000     
   19.7633   22.6034   25.5656 C   0  0  0  0  0  0  0  0  0  0  0  0
   19.5322   23.4998   24.7784 O   0  5  0  0  0  0  0  0  0  0  0  0
   19.7471   22.7464   26.7723 O   0  0  0  0  0  0  0  0  0  0  0  0
   20.0675   21.2170   25.0093 C   0  0  0  0  0  0  0  0  0  0  0  0
   20.7569   20.7171   25.7001 H   0  0  0  0  0  0  0  0  0  0  0  0
   20.5969   21.3485   24.0590 H   0  0  0  0  0  0  0  0  0  0  0  0
   18.7918   20.3576   24.8107 C   0  0  0  0  0  0  0  0  0  0  0  0
   18.2373   20.3256   25.7589 H   0  0  0  0  0  0  0  0  0  0  0  0
   18.1306   20.8456   24.0813 H   0  0  0  0  0  0  0  0  0  0  0  0
   19.0872   18.9071   24.3602 C   0  0  0  0  0  0  0  0  0  0  0  0
   18.1439   18.3441   24.3598 H   0  0  0  0  0  0  0  0  0  0  0  0
   19.7404   18.4189   25.0965 H   0  0  0  0  0  0  0  0  0  0  0  0
   19.7279   18.8176   22.9557 C   0  0  0  0  0  0  0  0  0  0  0  0
   19.0975   19.3495   22.2302 H   0  0  0  0  0  0  0  0  0  0  0  0
   20.7032   19.3190   22.9642 H   0  0  0  0  0  0  0  0  0  0  0  0
   19.9077   17.3496   22.5044 C   0  0  0  0  0  0  0  0  0  0  0  0
   18.9377   16.8368   22.5594 H   0  0  0  0  0  0  0  0  0  0  0  0
   20.5758   16.8271   23.2028 H   0  0  0  0  0  0  0  0  0  0  0  0
   20.4543   17.2111   21.0643 C   0  0  0  0  0  0  0  0  0  0  0  0
   20.4389   16.1493   20.7823 H   0  0  0  0  0  0  0  0  0  0  0  0
   19.7856   17.7282   20.3623 H   0  0  0  0  0  0  0  0  0  0  0  0
   21.8932   17.7474   20.9016 C   0  0  0  0  0  0  0  0  0  0  0  0
   22.5747   17.2671   21.6159 H   0  0  0  0  0  0  0  0  0  0  0  0
   22.2664   17.5440   19.8895 H   0  0  0  0  0  0  0  0  0  0  0  0
   21.9370   18.8322   21.0595 H   0  0  0  0  0  0  0  0  0  0  0  0
  1  2  1  0  0  0  0
  1  3  2  0  0  0  0
  1  4  1  0  0  0  0
  4  5  1  0  0  0  0
  4  6  1  0  0  0  0
  4  7  1  0  0  0  0
  7  8  1  0  0  0  0
  7  9  1  0  0  0  0
  7 10  1  0  0  0  0
 10 11  1  0  0  0  0
 10 12  1  0  0  0  0
 10 13  1  0  0  0  0
 13 14  1  0  0  0  0
 13 15  1  0  0  0  0
 13 16  1  0  0  0  0
 16 17  1  0  0  0  0
 16 18  1  0  0  0  0
 16 19  1  0  0  0  0
 19 20  1  0  0  0  0
 19 21  1  0  0  0  0
 19 22  1  0  0  0  0
 22 23  1  0  0  0  0
 22 24  1  0  0  0  0
 22 25  1  0  0  0  0
M  END
> <VConfSearch Rank>
409

> <Conf_Id>
17

> <Delta U+W>
0.219

> <U+W>
-51.411

> <U>
7.701

> <W>
-59.111

> <W(PB)>
-61.599

> <W(SA)>
2.488

> <Valence>
8.550

> <Coulomb>
-1.988

> <VdW>
1.139

> <VdW6>
-8.988

> <VdW12>
10.127

> <Bond>
0.191

> <Angle>
2.738

> <Pdih>
5.621

> <Idih>
0.001

> <Tether>
0.000

$$$$
VeraChem MOL file


 25 24  0  0  0  0  0  0  0  0999 V2000     
   23.5167   17.9650   23.3015 C   0  0  0  0  0  0  0  0  0  0  0  0
   24.2562   18.7473   22.7374 O   0  5  0  0  0  0  0  0  0  0  0  0
   23.2663   16.8528   22.8804 O   0  0  0  0  0  0  0  0  0  0  0  0
   22.8815   18.3938   24.6212 C   0  0  0  0  0  0  0  0  0  0  0  0
   23.4618   19.2276   25.0344 H   0  0  0  0  0  0  0  0  0  0  0  0
   22.9847   17.5572   25.3223 H   0  0  0  0  0  0  0  0  0  0  0  0
   21.3864   18.7878   24.5011 C   0  0  0  0  0  0  0  0  0  0  0  0
   20.8307   17.9456   24.0681 H   0  0  0  0  0  0  0  0  0  0  0  0
   20.9792   18.9538   25.5075 H   0  0  0  0  0  0  0  0  0  0  0  0
   21.1769   20.0621   23.6484 C   0  0  0  0  0  0  0  0  0  0  0  0
   21.5169   19.8825   22.6191 H   0  0  0  0  0  0  0  0  0  0  0  0
   21.8102   20.8664   24.0471 H   0  0  0  0  0  0  0  0  0  0  0  0
   19.7107   20.5556   23.6280 C   0  0  0  0  0  0  0  0  0  0  0  0
   19.3713   20.7442   24.6557 H   0  0  0  0  0  0  0  0  0  0  0  0
   19.6765   21.5222   23.1071 H   0  0  0  0  0  0  0  0  0  0  0  0
   18.7404   19.5745   22.9301 C   0  0  0  0  0  0  0  0  0  0  0  0
   18.7046   18.6264   23.4822 H   0  0  0  0  0  0  0  0  0  0  0  0
   19.1124   19.3452   21.9222 H   0  0  0  0  0  0  0  0  0  0  0  0
   17.3140   20.1555   22.8329 C   0  0  0  0  0  0  0  0  0  0  0  0
   16.9396   20.3877   23.8396 H   0  0  0  0  0  0  0  0  0  0  0  0
   17.3360   21.1015   22.2743 H   0  0  0  0  0  0  0  0  0  0  0  0
   16.3468   19.1746   22.1401 C   0  0  0  0  0  0  0  0  0  0  0  0
   16.2803   18.2301   22.6959 H   0  0  0  0  0  0  0  0  0  0  0  0
   15.3382   19.6037   22.0792 H   0  0  0  0  0  0  0  0  0  0  0  0
   16.6812   18.9486   21.1190 H   0  0  0  0  0  0  0  0  0  0  0  0
  1  2  1  0  0  0  0
  1  3  2  0  0  0  0
  1  4  1  0  0  0  0
  4  5  1  0  0  0  0
  4  6  1  0  0  0  0
  4  7  1  0  0  0  0
  7  8  1  0  0  0  0
  7  9  1  0  0  0  0
  7 10  1  0  0  0  0
 10 11  1  0  0  0  0
 10 12  1  0  0  0  0
 10 13  1  0  0  0  0
 13 14  1  0  0  0  0
 13 15  1  0  0  0  0
 13 16  1  0  0  0  0
 16 17  1  0  0  0  0
 16 18  1  0  0  0  0
 16 19  1  0  0  0  0
 19 20  1  0  0  0  0
 19 21  1  0  0  0  0
 19 22  1  0  0  0  0
 22 23  1  0  0  0  0
 22 24  1  0  0  0  0
 22 25  1  0  0  0  0
M  END
> <VConfSearch Rank>
410

> <Conf_Id>
142

> <Delta U+W>
0.593

> <U+W>
-51.037

> <U>
8.903

> <W>
-59.940

> <W(PB)>
-62.418

> <W(SA)>
2.478

> <Valence>
8.305

> <Coulomb>
-0.223

> <VdW>
0.821

> <VdW6>
-9.236

> <VdW12>
10.057

> <Bond>
0.173

> <Angle>
2.663

> <Pdih>
5.469

> <Idih>
0.001

> <Tether>
0.000

$$$$
VeraChem MOL file


 25 24  0  0  0  0  0  0  0  0999 V2000     
   22.3634   16.8037   24.9285 C   0  0  0  0  0  0  0  0  0  0  0  0
   23.3860   16.1943   24.6827 O   0  5  0  0  0  0  0  0  0  0  0  0
   22.1265   17.3115   26.0070 O   0  0  0  0  0  0  0  0  0  0  0  0
   21.3096   16.9116   23.8300 C   0  0  0  0  0  0  0  0  0  0  0  0
   20.3632   17.2315   24.2810 H   0  0  0  0  0  0  0  0  0  0  0  0
   21.1413   15.9015   23.4389 H   0  0  0  0  0  0  0  0  0  0  0  0
   21.7054   17.8560   22.6623 C   0  0  0  0  0  0  0  0  0  0  0  0
   22.6185   17.4680   22.1901 H   0  0  0  0  0  0  0  0  0  0  0  0
   20.9281   17.8194   21.8882 H   0  0  0  0  0  0  0  0  0  0  0  0
   21.9529   19.3275   23.0842 C   0  0  0  0  0  0  0  0  0  0  0  0
   22.2313   19.9075   22.1939 H   0  0  0  0  0  0  0  0  0  0  0  0
   22.8236   19.3659   23.7533 H   0  0  0  0  0  0  0  0  0  0  0  0
   20.7598   20.0250   23.7845 C   0  0  0  0  0  0  0  0  0  0  0  0
   20.5399   19.5228   24.7361 H   0  0  0  0  0  0  0  0  0  0  0  0
   21.0630   21.0480   24.0452 H   0  0  0  0  0  0  0  0  0  0  0  0
   19.4824   20.0855   22.9155 C   0  0  0  0  0  0  0  0  0  0  0  0
   19.1246   19.0689   22.7066 H   0  0  0  0  0  0  0  0  0  0  0  0
   19.7182   20.5488   21.9478 H   0  0  0  0  0  0  0  0  0  0  0  0
   18.3579   20.8829   23.6092 C   0  0  0  0  0  0  0  0  0  0  0  0
   18.1223   20.4225   24.5787 H   0  0  0  0  0  0  0  0  0  0  0  0
   18.7021   21.9056   23.8165 H   0  0  0  0  0  0  0  0  0  0  0  0
   17.0827   20.9371   22.7440 C   0  0  0  0  0  0  0  0  0  0  0  0
   16.6980   19.9277   22.5479 H   0  0  0  0  0  0  0  0  0  0  0  0
   16.2944   21.5076   23.2521 H   0  0  0  0  0  0  0  0  0  0  0  0
   17.2831   21.4211   21.7792 H   0  0  0  0  0  0  0  0  0  0  0  0
  1  2  1  0  0  0  0
  1  3  2  0  0  0  0
  1  4  1  0  0  0  0
  4  5  1  0  0  0  0
  4  6  1  0  0  0  0
  4  7  1  0  0  0  0
  7  8  1  0  0  0  0
  7  9  1  0  0  0  0
  7 10  1  0  0  0  0
 10 11  1  0  0  0  0
 10 12  1  0  0  0  0
 10 13  1  0  0  0  0
 13 14  1  0  0  0  0
 13 15  1  0  0  0  0
 13 16  1  0  0  0  0
 16 17  1  0  0  0  0
 16 18  1  0  0  0  0
 16 19  1  0  0  0  0
 19 20  1  0  0  0  0
 19 21  1  0  0  0  0
 19 22  1  0  0  0  0
 22 23  1  0  0  0  0
 22 24  1  0  0  0  0
 22 25  1  0  0  0  0
M  END
> <VConfSearch Rank>
411

> <Conf_Id>
135

> <Delta U+W>
1.314

> <U+W>
-50.316

> <U>
9.773

> <W>
-60.088

> <W(PB)>
-62.535

> <W(SA)>
2.447

> <Valence>
8.741

> <Coulomb>
0.479

> <VdW>
0.552

> <VdW6>
-10.627

> <VdW12>
11.179

> <Bond>
0.227

> <Angle>
3.155

> <Pdih>
5.358

> <Idih>
0.001

> <Tether>
0.000

$$$$
VeraChem MOL file


 25 24  0  0  0  0  0  0  0  0999 V2000     
   20.5736   15.1068   24.1396 C   0  0  0  0  0  0  0  0  0  0  0  0
   21.1387   14.4841   23.2623 O   0  5  0  0  0  0  0  0  0  0  0  0
   20.4850   14.7211   25.2886 O   0  0  0  0  0  0  0  0  0  0  0  0
   19.9618   16.4573   23.7844 C   0  0  0  0  0  0  0  0  0  0  0  0
   19.0831   16.6104   24.4223 H   0  0  0  0  0  0  0  0  0  0  0  0
   19.6067   16.3991   22.7497 H   0  0  0  0  0  0  0  0  0  0  0  0
   20.9602   17.6315   23.9581 C   0  0  0  0  0  0  0  0  0  0  0  0
   21.3668   17.5971   24.9783 H   0  0  0  0  0  0  0  0  0  0  0  0
   21.8135   17.4931   23.2799 H   0  0  0  0  0  0  0  0  0  0  0  0
   20.3273   19.0247   23.7264 C   0  0  0  0  0  0  0  0  0  0  0  0
   21.0638   19.7821   24.0230 H   0  0  0  0  0  0  0  0  0  0  0  0
   19.4593   19.1510   24.3876 H   0  0  0  0  0  0  0  0  0  0  0  0
   19.9103   19.2760   22.2577 C   0  0  0  0  0  0  0  0  0  0  0  0
   20.7952   19.2060   21.6106 H   0  0  0  0  0  0  0  0  0  0  0  0
   19.2252   18.4844   21.9298 H   0  0  0  0  0  0  0  0  0  0  0  0
   19.2068   20.6365   22.0213 C   0  0  0  0  0  0  0  0  0  0  0  0
   18.2697   20.6795   22.5930 H   0  0  0  0  0  0  0  0  0  0  0  0
   18.9123   20.6763   20.9637 H   0  0  0  0  0  0  0  0  0  0  0  0
   20.0786   21.8805   22.3255 C   0  0  0  0  0  0  0  0  0  0  0  0
   21.1437   21.6383   22.2064 H   0  0  0  0  0  0  0  0  0  0  0  0
   19.8571   22.6561   21.5794 H   0  0  0  0  0  0  0  0  0  0  0  0
   19.8177   22.4774   23.7265 C   0  0  0  0  0  0  0  0  0  0  0  0
   20.0285   21.7553   24.5236 H   0  0  0  0  0  0  0  0  0  0  0  0
   20.4530   23.3568   23.8938 H   0  0  0  0  0  0  0  0  0  0  0  0
   18.7717   22.7952   23.8263 H   0  0  0  0  0  0  0  0  0  0  0  0
  1  2  1  0  0  0  0
  1  3  2  0  0  0  0
  1  4  1  0  0  0  0
  4  5  1  0  0  0  0
  4  6  1  0  0  0  0
  4  7  1  0  0  0  0
  7  8  1  0  0  0  0
  7  9  1  0  0  0  0
  7 10  1  0  0  0  0
 10 11  1  0  0  0  0
 10 12  1  0  0  0  0
 10 13  1  0  0  0  0
 13 14  1  0  0  0  0
 13 15  1  0  0  0  0
 13 16  1  0  0  0  0
 16 17  1  0  0  0  0
 16 18  1  0  0  0  0
 16 19  1  0  0  0  0
 19 20  1  0  0  0  0
 19 21  1  0  0  0  0
 19 22  1  0  0  0  0
 22 23  1  0  0  0  0
 22 24  1  0  0  0  0
 22 25  1  0  0  0  0
M  END
> <VConfSearch Rank>
412

> <Conf_Id>
19

> <Delta U+W>
3.222

> <U+W>
-48.407

> <U>
10.617

> <W>
-59.025

> <W(PB)>
-61.462

> <W(SA)>
2.437

> <Valence>
11.188

> <Coulomb>
-1.778

> <VdW>
1.208

> <VdW6>
-9.786

> <VdW12>
10.993

> <Bond>
0.241

> <Angle>
3.294

> <Pdih>
7.653

> <Idih>
0.001

> <Tether>
0.000

$$$$
VeraChem MOL file


 25 24  0  0  0  0  0  0  0  0999 V2000     
   16.7262   17.6824   21.2296 C   0  0  0  0  0  0  0  0  0  0  0  0
   15.6725   17.9392   21.7779 O   0  5  0  0  0  0  0  0  0  0  0  0
   16.8613   16.7903   20.4155 O   0  0  0  0  0  0  0  0  0  0  0  0
   17.9516   18.5098   21.6007 C   0  0  0  0  0  0  0  0  0  0  0  0
   17.6104   19.5266   21.8243 H   0  0  0  0  0  0  0  0  0  0  0  0
   18.6003   18.5705   20.7187 H   0  0  0  0  0  0  0  0  0  0  0  0
   18.7344   17.9160   22.8008 C   0  0  0  0  0  0  0  0  0  0  0  0
   18.0907   17.9043   23.6912 H   0  0  0  0  0  0  0  0  0  0  0  0
   18.9736   16.8669   22.5780 H   0  0  0  0  0  0  0  0  0  0  0  0
   20.0511   18.6655   23.1160 C   0  0  0  0  0  0  0  0  0  0  0  0
   20.6823   18.6979   22.2175 H   0  0  0  0  0  0  0  0  0  0  0  0
   20.5990   18.0820   23.8666 H   0  0  0  0  0  0  0  0  0  0  0  0
   19.8308   20.0990   23.6555 C   0  0  0  0  0  0  0  0  0  0  0  0
   19.2255   20.6711   22.9415 H   0  0  0  0  0  0  0  0  0  0  0  0
   19.2490   20.0526   24.5860 H   0  0  0  0  0  0  0  0  0  0  0  0
   21.1390   20.8911   23.9060 C   0  0  0  0  0  0  0  0  0  0  0  0
   20.8557   21.9014   24.2316 H   0  0  0  0  0  0  0  0  0  0  0  0
   21.6842   21.0249   22.9616 H   0  0  0  0  0  0  0  0  0  0  0  0
   22.0717   20.2821   24.9827 C   0  0  0  0  0  0  0  0  0  0  0  0
   22.5265   21.1005   25.5577 H   0  0  0  0  0  0  0  0  0  0  0  0
   21.4886   19.6911   25.7024 H   0  0  0  0  0  0  0  0  0  0  0  0
   23.2117   19.4271   24.3855 C   0  0  0  0  0  0  0  0  0  0  0  0
   23.8474   20.0313   23.7252 H   0  0  0  0  0  0  0  0  0  0  0  0
   23.8468   19.0220   25.1839 H   0  0  0  0  0  0  0  0  0  0  0  0
   22.8265   18.5826   23.8028 H   0  0  0  0  0  0  0  0  0  0  0  0
  1  2  1  0  0  0  0
  1  3  2  0  0  0  0
  1  4  1  0  0  0  0
  4  5  1  0  0  0  0
  4  6  1  0  0  0  0
  4  7  1  0  0  0  0
  7  8  1  0  0  0  0
  7  9  1  0  0  0  0
  7 10  1  0  0  0  0
 10 11  1  0  0  0  0
 10 12  1  0  0  0  0
 10 13  1  0  0  0  0
 13 14  1  0  0  0  0
 13 15  1  0  0  0  0
 13 16  1  0  0  0  0
 16 17  1  0  0  0  0
 16 18  1  0  0  0  0
 16 19  1  0  0  0  0
 19 20  1  0  0  0  0
 19 21  1  0  0  0  0
 19 22  1  0  0  0  0
 22 23  1  0  0  0  0
 22 24  1  0  0  0  0
 22 25  1  0  0  0  0
M  END
> <VConfSearch Rank>
413

> <Conf_Id>
20

> <Delta U+W>
3.224

> <U+W>
-48.406

> <U>
10.617

> <W>
-59.023

> <W(PB)>
-61.467

> <W(SA)>
2.444

> <Valence>
11.188

> <Coulomb>
-1.778

> <VdW>
1.208

> <VdW6>
-9.786

> <VdW12>
10.993

> <Bond>
0.241

> <Angle>
3.294

> <Pdih>
7.653

> <Idih>
0.001

> <Tether>
0.000

$$$$
VeraChem MOL file


 25 24  0  0  0  0  0  0  0  0999 V2000     
   17.0985   20.1577   24.8693 C   0  0  0  0  0  0  0  0  0  0  0  0
   17.3209   20.3438   26.0498 O   0  5  0  0  0  0  0  0  0  0  0  0
   16.5539   19.1602   24.4386 O   0  0  0  0  0  0  0  0  0  0  0  0
   17.4619   21.2635   23.8800 C   0  0  0  0  0  0  0  0  0  0  0  0
   16.8476   22.1307   24.1482 H   0  0  0  0  0  0  0  0  0  0  0  0
   17.1510   20.9578   22.8737 H   0  0  0  0  0  0  0  0  0  0  0  0
   18.9583   21.6851   23.8766 C   0  0  0  0  0  0  0  0  0  0  0  0
   19.0274   22.6865   23.4306 H   0  0  0  0  0  0  0  0  0  0  0  0
   19.3205   21.7888   24.9089 H   0  0  0  0  0  0  0  0  0  0  0  0
   19.8958   20.7469   23.0767 C   0  0  0  0  0  0  0  0  0  0  0  0
   20.8850   21.2213   23.0178 H   0  0  0  0  0  0  0  0  0  0  0  0
   19.5348   20.6570   22.0431 H   0  0  0  0  0  0  0  0  0  0  0  0
   20.0562   19.3396   23.6950 C   0  0  0  0  0  0  0  0  0  0  0  0
   20.3160   19.4313   24.7585 H   0  0  0  0  0  0  0  0  0  0  0  0
   19.1031   18.7985   23.6423 H   0  0  0  0  0  0  0  0  0  0  0  0
   21.1402   18.5157   22.9665 C   0  0  0  0  0  0  0  0  0  0  0  0
   22.1020   19.0441   23.0200 H   0  0  0  0  0  0  0  0  0  0  0  0
   20.8812   18.4292   21.9023 H   0  0  0  0  0  0  0  0  0  0  0  0
   21.2932   17.1062   23.5758 C   0  0  0  0  0  0  0  0  0  0  0  0
   21.5531   17.1893   24.6402 H   0  0  0  0  0  0  0  0  0  0  0  0
   20.3333   16.5739   23.5226 H   0  0  0  0  0  0  0  0  0  0  0  0
   22.3758   16.2858   22.8461 C   0  0  0  0  0  0  0  0  0  0  0  0
   23.3538   16.7805   22.9109 H   0  0  0  0  0  0  0  0  0  0  0  0
   22.4708   15.2873   23.2922 H   0  0  0  0  0  0  0  0  0  0  0  0
   22.1246   16.1603   21.7847 H   0  0  0  0  0  0  0  0  0  0  0  0
  1  2  1  0  0  0  0
  1  3  2  0  0  0  0
  1  4  1  0  0  0  0
  4  5  1  0  0  0  0
  4  6  1  0  0  0  0
  4  7  1  0  0  0  0
  7  8  1  0  0  0  0
  7  9  1  0  0  0  0
  7 10  1  0  0  0  0
 10 11  1  0  0  0  0
 10 12  1  0  0  0  0
 10 13  1  0  0  0  0
 13 14  1  0  0  0  0
 13 15  1  0  0  0  0
 13 16  1  0  0  0  0
 16 17  1  0  0  0  0
 16 18  1  0  0  0  0
 16 19  1  0  0  0  0
 19 20  1  0  0  0  0
 19 21  1  0  0  0  0
 19 22  1  0  0  0  0
 22 23  1  0  0  0  0
 22 24  1  0  0  0  0
 22 25  1  0  0  0  0
M  END
> <VConfSearch Rank>
414

> <Conf_Id>
24

> <Delta U+W>
1.784

> <U+W>
-49.846

> <U>
10.904

> <W>
-60.749

> <W(PB)>
-63.220

> <W(SA)>
2.471

> <Valence>
9.445

> <Coulomb>
0.780

> <VdW>
0.679

> <VdW6>
-10.008

> <VdW12>
10.687

> <Bond>
0.201

> <Angle>
3.198

> <Pdih>
6.039

> <Idih>
0.006

> <Tether>
0.000

$$$$
VeraChem MOL file


 25 24  0  0  0  0  0  0  0  0999 V2000     
   17.4754   18.8397   21.8188 C   0  0  0  0  0  0  0  0  0  0  0  0
   17.7438   18.1524   20.8527 O   0  5  0  0  0  0  0  0  0  0  0  0
   16.8449   18.4345   22.7757 O   0  0  0  0  0  0  0  0  0  0  0  0
   17.8937   20.3087   21.8023 C   0  0  0  0  0  0  0  0  0  0  0  0
   17.5327   20.7926   22.7179 H   0  0  0  0  0  0  0  0  0  0  0  0
   17.3546   20.7731   20.9685 H   0  0  0  0  0  0  0  0  0  0  0  0
   19.4171   20.5626   21.6236 C   0  0  0  0  0  0  0  0  0  0  0  0
   19.8148   19.9128   20.8317 H   0  0  0  0  0  0  0  0  0  0  0  0
   19.5494   21.5920   21.2640 H   0  0  0  0  0  0  0  0  0  0  0  0
   20.2583   20.4023   22.9143 C   0  0  0  0  0  0  0  0  0  0  0  0
   19.8630   21.0632   23.6977 H   0  0  0  0  0  0  0  0  0  0  0  0
   21.2786   20.7504   22.7028 H   0  0  0  0  0  0  0  0  0  0  0  0
   20.3283   18.9523   23.4448 C   0  0  0  0  0  0  0  0  0  0  0  0
   19.3358   18.6318   23.7855 H   0  0  0  0  0  0  0  0  0  0  0  0
   20.6236   18.2757   22.6312 H   0  0  0  0  0  0  0  0  0  0  0  0
   21.3262   18.8202   24.6158 C   0  0  0  0  0  0  0  0  0  0  0  0
   21.0322   19.5010   25.4264 H   0  0  0  0  0  0  0  0  0  0  0  0
   22.3264   19.1307   24.2839 H   0  0  0  0  0  0  0  0  0  0  0  0
   21.3884   17.3751   25.1538 C   0  0  0  0  0  0  0  0  0  0  0  0
   20.3898   17.0616   25.4886 H   0  0  0  0  0  0  0  0  0  0  0  0
   21.6830   16.6916   24.3455 H   0  0  0  0  0  0  0  0  0  0  0  0
   22.3852   17.2463   26.3232 C   0  0  0  0  0  0  0  0  0  0  0  0
   22.0963   17.8968   27.1590 H   0  0  0  0  0  0  0  0  0  0  0  0
   22.4164   16.2131   26.6929 H   0  0  0  0  0  0  0  0  0  0  0  0
   23.3993   17.5239   26.0073 H   0  0  0  0  0  0  0  0  0  0  0  0
  1  2  1  0  0  0  0
  1  3  2  0  0  0  0
  1  4  1  0  0  0  0
  4  5  1  0  0  0  0
  4  6  1  0  0  0  0
  4  7  1  0  0  0  0
  7  8  1  0  0  0  0
  7  9  1  0  0  0  0
  7 10  1  0  0  0  0
 10 11  1  0  0  0  0
 10 12  1  0  0  0  0
 10 13  1  0  0  0  0
 13 14  1  0  0  0  0
 13 15  1  0  0  0  0
 13 16  1  0  0  0  0
 16 17  1  0  0  0  0
 16 18  1  0  0  0  0
 16 19  1  0  0  0  0
 19 20  1  0  0  0  0
 19 21  1  0  0  0  0
 19 22  1  0  0  0  0
 22 23  1  0  0  0  0
 22 24  1  0  0  0  0
 22 25  1  0  0  0  0
M  END
> <VConfSearch Rank>
415

> <Conf_Id>
9

> <Delta U+W>
1.764

> <U+W>
-49.865

> <U>
10.902

> <W>
-60.768

> <W(PB)>
-63.223

> <W(SA)>
2.456

> <Valence>
9.445

> <Coulomb>
0.778

> <VdW>
0.679

> <VdW6>
-10.007

> <VdW12>
10.687

> <Bond>
0.201

> <Angle>
3.198

> <Pdih>
6.040

> <Idih>
0.006

> <Tether>
0.000

$$$$
VeraChem MOL file


 25 24  0  0  0  0  0  0  0  0999 V2000     
   18.0926   22.0714   22.1433 C   0  0  0  0  0  0  0  0  0  0  0  0
   17.8279   21.4959   21.1064 O   0  5  0  0  0  0  0  0  0  0  0  0
   17.5208   23.0749   22.5213 O   0  0  0  0  0  0  0  0  0  0  0  0
   19.1888   21.4912   23.0295 C   0  0  0  0  0  0  0  0  0  0  0  0
   19.6896   22.3243   23.5368 H   0  0  0  0  0  0  0  0  0  0  0  0
   19.9321   21.0215   22.3781 H   0  0  0  0  0  0  0  0  0  0  0  0
   18.6434   20.4827   24.0751 C   0  0  0  0  0  0  0  0  0  0  0  0
   17.9107   21.0096   24.7020 H   0  0  0  0  0  0  0  0  0  0  0  0
   18.0912   19.6771   23.5716 H   0  0  0  0  0  0  0  0  0  0  0  0
   19.7425   19.8878   24.9918 C   0  0  0  0  0  0  0  0  0  0  0  0
   19.3117   19.7448   25.9923 H   0  0  0  0  0  0  0  0  0  0  0  0
   20.5626   20.6074   25.1205 H   0  0  0  0  0  0  0  0  0  0  0  0
   20.3016   18.5196   24.5268 C   0  0  0  0  0  0  0  0  0  0  0  0
   21.0048   18.1575   25.2889 H   0  0  0  0  0  0  0  0  0  0  0  0
   19.4812   17.7908   24.4919 H   0  0  0  0  0  0  0  0  0  0  0  0
   21.0218   18.5597   23.1583 C   0  0  0  0  0  0  0  0  0  0  0  0
   21.7356   19.3945   23.1519 H   0  0  0  0  0  0  0  0  0  0  0  0
   20.2932   18.7570   22.3611 H   0  0  0  0  0  0  0  0  0  0  0  0
   21.7854   17.2555   22.8305 C   0  0  0  0  0  0  0  0  0  0  0  0
   22.3461   17.3999   21.8967 H   0  0  0  0  0  0  0  0  0  0  0  0
   22.5312   17.0554   23.6122 H   0  0  0  0  0  0  0  0  0  0  0  0
   20.8589   16.0305   22.6711 C   0  0  0  0  0  0  0  0  0  0  0  0
   20.0885   16.2171   21.9116 H   0  0  0  0  0  0  0  0  0  0  0  0
   21.4358   15.1505   22.3587 H   0  0  0  0  0  0  0  0  0  0  0  0
   20.3584   15.7821   23.6154 H   0  0  0  0  0  0  0  0  0  0  0  0
  1  2  1  0  0  0  0
  1  3  2  0  0  0  0
  1  4  1  0  0  0  0
  4  5  1  0  0  0  0
  4  6  1  0  0  0  0
  4  7  1  0  0  0  0
  7  8  1  0  0  0  0
  7  9  1  0  0  0  0
  7 10  1  0  0  0  0
 10 11  1  0  0  0  0
 10 12  1  0  0  0  0
 10 13  1  0  0  0  0
 13 14  1  0  0  0  0
 13 15  1  0  0  0  0
 13 16  1  0  0  0  0
 16 17  1  0  0  0  0
 16 18  1  0  0  0  0
 16 19  1  0  0  0  0
 19 20  1  0  0  0  0
 19 21  1  0  0  0  0
 19 22  1  0  0  0  0
 22 23  1  0  0  0  0
 22 24  1  0  0  0  0
 22 25  1  0  0  0  0
M  END
> <VConfSearch Rank>
416

> <Conf_Id>
89

> <Delta U+W>
2.903

> <U+W>
-48.726

> <U>
10.996

> <W>
-59.723

> <W(PB)>
-62.151

> <W(SA)>
2.428

> <Valence>
10.985

> <Coulomb>
-0.995

> <VdW>
1.006

> <VdW6>
-10.062

> <VdW12>
11.069

> <Bond>
0.238

> <Angle>
3.202

> <Pdih>
7.544

> <Idih>
0.001

> <Tether>
0.000

$$$$
VeraChem MOL file


 25 24  0  0  0  0  0  0  0  0999 V2000     
   19.4234   19.0590   26.8838 C   0  0  0  0  0  0  0  0  0  0  0  0
   19.7497   17.9184   27.1483 O   0  5  0  0  0  0  0  0  0  0  0  0
   19.9965   20.0385   27.3194 O   0  0  0  0  0  0  0  0  0  0  0  0
   18.1885   19.2700   26.0098 C   0  0  0  0  0  0  0  0  0  0  0  0
   17.4473   19.7730   26.6416 H   0  0  0  0  0  0  0  0  0  0  0  0
   17.7655   18.2928   25.7476 H   0  0  0  0  0  0  0  0  0  0  0  0
   18.4194   20.1193   24.7280 C   0  0  0  0  0  0  0  0  0  0  0  0
   17.4474   20.5185   24.4080 H   0  0  0  0  0  0  0  0  0  0  0  0
   19.0414   20.9939   24.9641 H   0  0  0  0  0  0  0  0  0  0  0  0
   19.0255   19.3437   23.5318 C   0  0  0  0  0  0  0  0  0  0  0  0
   18.9781   19.9987   22.6530 H   0  0  0  0  0  0  0  0  0  0  0  0
   18.3988   18.4716   23.3013 H   0  0  0  0  0  0  0  0  0  0  0  0
   20.4887   18.8888   23.7523 C   0  0  0  0  0  0  0  0  0  0  0  0
   21.1076   19.7486   24.0429 H   0  0  0  0  0  0  0  0  0  0  0  0
   20.5247   18.1814   24.5896 H   0  0  0  0  0  0  0  0  0  0  0  0
   21.1118   18.1915   22.5190 C   0  0  0  0  0  0  0  0  0  0  0  0
   20.4747   17.3518   22.2095 H   0  0  0  0  0  0  0  0  0  0  0  0
   22.0748   17.7558   22.8185 H   0  0  0  0  0  0  0  0  0  0  0  0
   21.3459   19.1405   21.3214 C   0  0  0  0  0  0  0  0  0  0  0  0
   20.3882   19.5264   20.9490 H   0  0  0  0  0  0  0  0  0  0  0  0
   21.9367   20.0080   21.6463 H   0  0  0  0  0  0  0  0  0  0  0  0
   22.0787   18.4251   20.1685 C   0  0  0  0  0  0  0  0  0  0  0  0
   21.4966   17.5679   19.8056 H   0  0  0  0  0  0  0  0  0  0  0  0
   22.2347   19.1103   19.3252 H   0  0  0  0  0  0  0  0  0  0  0  0
   23.0614   18.0593   20.4939 H   0  0  0  0  0  0  0  0  0  0  0  0
  1  2  1  0  0  0  0
  1  3  2  0  0  0  0
  1  4  1  0  0  0  0
  4  5  1  0  0  0  0
  4  6  1  0  0  0  0
  4  7  1  0  0  0  0
  7  8  1  0  0  0  0
  7  9  1  0  0  0  0
  7 10  1  0  0  0  0
 10 11  1  0  0  0  0
 10 12  1  0  0  0  0
 10 13  1  0  0  0  0
 13 14  1  0  0  0  0
 13 15  1  0  0  0  0
 13 16  1  0  0  0  0
 16 17  1  0  0  0  0
 16 18  1  0  0  0  0
 16 19  1  0  0  0  0
 19 20  1  0  0  0  0
 19 21  1  0  0  0  0
 19 22  1  0  0  0  0
 22 23  1  0  0  0  0
 22 24  1  0  0  0  0
 22 25  1  0  0  0  0
M  END
> <VConfSearch Rank>
417

> <Conf_Id>
114

> <Delta U+W>
2.758

> <U+W>
-48.871

> <U>
11.422

> <W>
-60.293

> <W(PB)>
-62.719

> <W(SA)>
2.425

> <Valence>
10.135

> <Coulomb>
0.369

> <VdW>
0.918

> <VdW6>
-10.482

> <VdW12>
11.400

> <Bond>
0.245

> <Angle>
3.539

> <Pdih>
6.346

> <Idih>
0.006

> <Tether>
0.000

$$$$
VeraChem MOL file


 25 24  0  0  0  0  0  0  0  0999 V2000     
   22.9398   21.4141   22.0751 C   0  0  0  0  0  0  0  0  0  0  0  0
   23.9555   21.0889   22.6580 O   0  5  0  0  0  0  0  0  0  0  0  0
   22.8067   21.3503   20.8687 O   0  0  0  0  0  0  0  0  0  0  0  0
   21.7735   21.9517   22.8994 C   0  0  0  0  0  0  0  0  0  0  0  0
   21.3956   22.8457   22.3896 H   0  0  0  0  0  0  0  0  0  0  0  0
   22.1554   22.2797   23.8738 H   0  0  0  0  0  0  0  0  0  0  0  0
   20.6171   20.9362   23.0903 C   0  0  0  0  0  0  0  0  0  0  0  0
   19.7736   21.4436   23.5774 H   0  0  0  0  0  0  0  0  0  0  0  0
   20.2649   20.6102   22.1029 H   0  0  0  0  0  0  0  0  0  0  0  0
   21.0379   19.7134   23.9405 C   0  0  0  0  0  0  0  0  0  0  0  0
   21.4735   20.0695   24.8841 H   0  0  0  0  0  0  0  0  0  0  0  0
   21.8319   19.1553   23.4254 H   0  0  0  0  0  0  0  0  0  0  0  0
   19.8673   18.7571   24.2718 C   0  0  0  0  0  0  0  0  0  0  0  0
   20.2315   18.0125   24.9910 H   0  0  0  0  0  0  0  0  0  0  0  0
   19.0682   19.3149   24.7786 H   0  0  0  0  0  0  0  0  0  0  0  0
   19.2928   18.0327   23.0293 C   0  0  0  0  0  0  0  0  0  0  0  0
   20.0931   17.4780   22.5208 H   0  0  0  0  0  0  0  0  0  0  0  0
   18.9241   18.7759   22.3111 H   0  0  0  0  0  0  0  0  0  0  0  0
   18.1278   17.0713   23.3625 C   0  0  0  0  0  0  0  0  0  0  0  0
   17.3302   17.6204   23.8817 H   0  0  0  0  0  0  0  0  0  0  0  0
   17.6921   16.7082   22.4215 H   0  0  0  0  0  0  0  0  0  0  0  0
   18.5587   15.8543   24.2100 C   0  0  0  0  0  0  0  0  0  0  0  0
   17.7194   15.1581   24.3356 H   0  0  0  0  0  0  0  0  0  0  0  0
   19.3798   15.3094   23.7262 H   0  0  0  0  0  0  0  0  0  0  0  0
   18.8892   16.1583   25.2109 H   0  0  0  0  0  0  0  0  0  0  0  0
  1  2  1  0  0  0  0
  1  3  2  0  0  0  0
  1  4  1  0  0  0  0
  4  5  1  0  0  0  0
  4  6  1  0  0  0  0
  4  7  1  0  0  0  0
  7  8  1  0  0  0  0
  7  9  1  0  0  0  0
  7 10  1  0  0  0  0
 10 11  1  0  0  0  0
 10 12  1  0  0  0  0
 10 13  1  0  0  0  0
 13 14  1  0  0  0  0
 13 15  1  0  0  0  0
 13 16  1  0  0  0  0
 16 17  1  0  0  0  0
 16 18  1  0  0  0  0
 16 19  1  0  0  0  0
 19 20  1  0  0  0  0
 19 21  1  0  0  0  0
 19 22  1  0  0  0  0
 22 23  1  0  0  0  0
 22 24  1  0  0  0  0
 22 25  1  0  0  0  0
M  END
> <VConfSearch Rank>
418

> <Conf_Id>
87

> <Delta U+W>
1.453

> <U+W>
-50.176

> <U>
9.763

> <W>
-59.940

> <W(PB)>
-62.392

> <W(SA)>
2.452

> <Valence>
8.883

> <Coulomb>
-0.122

> <VdW>
1.003

> <VdW6>
-9.782

> <VdW12>
10.785

> <Bond>
0.212

> <Angle>
2.940

> <Pdih>
5.730

> <Idih>
0.001

> <Tether>
0.000

$$$$
VeraChem MOL file


 25 24  0  0  0  0  0  0  0  0999 V2000     
   21.3263   15.6412   24.7980 C   0  0  0  0  0  0  0  0  0  0  0  0
   22.3288   15.4417   24.1409 O   0  5  0  0  0  0  0  0  0  0  0  0
   21.1920   15.2758   25.9492 O   0  0  0  0  0  0  0  0  0  0  0  0
   20.1804   16.4085   24.1482 C   0  0  0  0  0  0  0  0  0  0  0  0
   19.2385   16.0304   24.5635 H   0  0  0  0  0  0  0  0  0  0  0  0
   20.1791   16.1759   23.0765 H   0  0  0  0  0  0  0  0  0  0  0  0
   20.2837   17.9387   24.3620 C   0  0  0  0  0  0  0  0  0  0  0  0
   20.2925   18.1556   25.4390 H   0  0  0  0  0  0  0  0  0  0  0  0
   21.2418   18.2899   23.9564 H   0  0  0  0  0  0  0  0  0  0  0  0
   19.1143   18.6925   23.6875 C   0  0  0  0  0  0  0  0  0  0  0  0
   18.1646   18.2799   24.0540 H   0  0  0  0  0  0  0  0  0  0  0  0
   19.1286   18.5085   22.6052 H   0  0  0  0  0  0  0  0  0  0  0  0
   19.1227   20.2170   23.9633 C   0  0  0  0  0  0  0  0  0  0  0  0
   18.2330   20.6655   23.5022 H   0  0  0  0  0  0  0  0  0  0  0  0
   19.0120   20.3819   25.0436 H   0  0  0  0  0  0  0  0  0  0  0  0
   20.3872   20.9720   23.4747 C   0  0  0  0  0  0  0  0  0  0  0  0
   21.2571   20.6376   24.0549 H   0  0  0  0  0  0  0  0  0  0  0  0
   20.2689   22.0391   23.7069 H   0  0  0  0  0  0  0  0  0  0  0  0
   20.7027   20.8225   21.9660 C   0  0  0  0  0  0  0  0  0  0  0  0
   21.6261   21.3751   21.7448 H   0  0  0  0  0  0  0  0  0  0  0  0
   20.9130   19.7716   21.7263 H   0  0  0  0  0  0  0  0  0  0  0  0
   19.5761   21.3506   21.0517 C   0  0  0  0  0  0  0  0  0  0  0  0
   19.3383   22.3964   21.2857 H   0  0  0  0  0  0  0  0  0  0  0  0
   19.8804   21.2999   19.9983 H   0  0  0  0  0  0  0  0  0  0  0  0
   18.6609   20.7557   21.1629 H   0  0  0  0  0  0  0  0  0  0  0  0
  1  2  1  0  0  0  0
  1  3  2  0  0  0  0
  1  4  1  0  0  0  0
  4  5  1  0  0  0  0
  4  6  1  0  0  0  0
  4  7  1  0  0  0  0
  7  8  1  0  0  0  0
  7  9  1  0  0  0  0
  7 10  1  0  0  0  0
 10 11  1  0  0  0  0
 10 12  1  0  0  0  0
 10 13  1  0  0  0  0
 13 14  1  0  0  0  0
 13 15  1  0  0  0  0
 13 16  1  0  0  0  0
 16 17  1  0  0  0  0
 16 18  1  0  0  0  0
 16 19  1  0  0  0  0
 19 20  1  0  0  0  0
 19 21  1  0  0  0  0
 19 22  1  0  0  0  0
 22 23  1  0  0  0  0
 22 24  1  0  0  0  0
 22 25  1  0  0  0  0
M  END
> <VConfSearch Rank>
419

> <Conf_Id>
29

> <Delta U+W>
0.850

> <U+W>
-50.780

> <U>
8.646

> <W>
-59.426

> <W(PB)>
-61.868

> <W(SA)>
2.442

> <Valence>
8.924

> <Coulomb>
-1.171

> <VdW>
0.894

> <VdW6>
-10.223

> <VdW12>
11.117

> <Bond>
0.231

> <Angle>
3.232

> <Pdih>
5.461

> <Idih>
0.001

> <Tether>
0.000

$$$$
VeraChem MOL file


 25 24  0  0  0  0  0  0  0  0999 V2000     
   20.6563   15.9509   21.1355 C   0  0  0  0  0  0  0  0  0  0  0  0
   21.8617   15.9918   20.9871 O   0  5  0  0  0  0  0  0  0  0  0  0
   19.8909   15.4989   20.3068 O   0  0  0  0  0  0  0  0  0  0  0  0
   20.0701   16.5154   22.4246 C   0  0  0  0  0  0  0  0  0  0  0  0
   20.7963   16.3512   23.2297 H   0  0  0  0  0  0  0  0  0  0  0  0
   19.1731   15.9356   22.6733 H   0  0  0  0  0  0  0  0  0  0  0  0
   19.7223   18.0206   22.3185 C   0  0  0  0  0  0  0  0  0  0  0  0
   20.6302   18.5767   22.0496 H   0  0  0  0  0  0  0  0  0  0  0  0
   19.0010   18.1707   21.5034 H   0  0  0  0  0  0  0  0  0  0  0  0
   19.1370   18.5687   23.6405 C   0  0  0  0  0  0  0  0  0  0  0  0
   19.8726   18.4557   24.4477 H   0  0  0  0  0  0  0  0  0  0  0  0
   18.2717   17.9566   23.9291 H   0  0  0  0  0  0  0  0  0  0  0  0
   18.6798   20.0461   23.5468 C   0  0  0  0  0  0  0  0  0  0  0  0
   17.8770   20.1216   22.8010 H   0  0  0  0  0  0  0  0  0  0  0  0
   18.2251   20.3377   24.5025 H   0  0  0  0  0  0  0  0  0  0  0  0
   19.7934   21.0624   23.1795 C   0  0  0  0  0  0  0  0  0  0  0  0
   19.3558   22.0697   23.1629 H   0  0  0  0  0  0  0  0  0  0  0  0
   20.1357   20.8716   22.1540 H   0  0  0  0  0  0  0  0  0  0  0  0
   21.0197   21.0674   24.1251 C   0  0  0  0  0  0  0  0  0  0  0  0
   21.5276   20.0944   24.0903 H   0  0  0  0  0  0  0  0  0  0  0  0
   21.7461   21.8027   23.7529 H   0  0  0  0  0  0  0  0  0  0  0  0
   20.6623   21.4171   25.5860 C   0  0  0  0  0  0  0  0  0  0  0  0
   20.0201   20.6486   26.0340 H   0  0  0  0  0  0  0  0  0  0  0  0
   21.5711   21.4896   26.1972 H   0  0  0  0  0  0  0  0  0  0  0  0
   20.1384   22.3801   25.6423 H   0  0  0  0  0  0  0  0  0  0  0  0
  1  2  1  0  0  0  0
  1  3  2  0  0  0  0
  1  4  1  0  0  0  0
  4  5  1  0  0  0  0
  4  6  1  0  0  0  0
  4  7  1  0  0  0  0
  7  8  1  0  0  0  0
  7  9  1  0  0  0  0
  7 10  1  0  0  0  0
 10 11  1  0  0  0  0
 10 12  1  0  0  0  0
 10 13  1  0  0  0  0
 13 14  1  0  0  0  0
 13 15  1  0  0  0  0
 13 16  1  0  0  0  0
 16 17  1  0  0  0  0
 16 18  1  0  0  0  0
 16 19  1  0  0  0  0
 19 20  1  0  0  0  0
 19 21  1  0  0  0  0
 19 22  1  0  0  0  0
 22 23  1  0  0  0  0
 22 24  1  0  0  0  0
 22 25  1  0  0  0  0
M  END
> <VConfSearch Rank>
420

> <Conf_Id>
30

> <Delta U+W>
0.843

> <U+W>
-50.787

> <U>
8.647

> <W>
-59.434

> <W(PB)>
-61.861

> <W(SA)>
2.428

> <Valence>
8.924

> <Coulomb>
-1.170

> <VdW>
0.894

> <VdW6>
-10.224

> <VdW12>
11.118

> <Bond>
0.231

> <Angle>
3.232

> <Pdih>
5.460

> <Idih>
0.000

> <Tether>
0.000

$$$$
VeraChem MOL file


 25 24  0  0  0  0  0  0  0  0999 V2000     
   16.3667   16.9402   21.2853 C   0  0  0  0  0  0  0  0  0  0  0  0
   16.6215   15.8924   21.8471 O   0  5  0  0  0  0  0  0  0  0  0  0
   15.4109   17.0834   20.5491 O   0  0  0  0  0  0  0  0  0  0  0  0
   17.2740   18.1536   21.4950 C   0  0  0  0  0  0  0  0  0  0  0  0
   16.6486   18.9662   21.8828 H   0  0  0  0  0  0  0  0  0  0  0  0
   17.6330   18.4678   20.5080 H   0  0  0  0  0  0  0  0  0  0  0  0
   18.4807   17.9221   22.4430 C   0  0  0  0  0  0  0  0  0  0  0  0
   18.1141   17.6014   23.4280 H   0  0  0  0  0  0  0  0  0  0  0  0
   19.0995   17.1026   22.0520 H   0  0  0  0  0  0  0  0  0  0  0  0
   19.3416   19.1947   22.5982 C   0  0  0  0  0  0  0  0  0  0  0  0
   18.7210   20.0126   22.9892 H   0  0  0  0  0  0  0  0  0  0  0  0
   19.7070   19.5135   21.6122 H   0  0  0  0  0  0  0  0  0  0  0  0
   20.5414   18.9622   23.5416 C   0  0  0  0  0  0  0  0  0  0  0  0
   20.1763   18.6435   24.5276 H   0  0  0  0  0  0  0  0  0  0  0  0
   21.1623   18.1443   23.1508 H   0  0  0  0  0  0  0  0  0  0  0  0
   21.4026   20.2342   23.6972 C   0  0  0  0  0  0  0  0  0  0  0  0
   20.7819   21.0522   24.0880 H   0  0  0  0  0  0  0  0  0  0  0  0
   21.7678   20.5531   22.7112 H   0  0  0  0  0  0  0  0  0  0  0  0
   22.6018   20.0020   24.6402 C   0  0  0  0  0  0  0  0  0  0  0  0
   22.2402   19.6847   25.6281 H   0  0  0  0  0  0  0  0  0  0  0  0
   23.2261   19.1855   24.2514 H   0  0  0  0  0  0  0  0  0  0  0  0
   23.4593   21.2744   24.7929 C   0  0  0  0  0  0  0  0  0  0  0  0
   22.8671   22.0994   25.2101 H   0  0  0  0  0  0  0  0  0  0  0  0
   24.3067   21.0913   25.4662 H   0  0  0  0  0  0  0  0  0  0  0  0
   23.8604   21.5965   23.8230 H   0  0  0  0  0  0  0  0  0  0  0  0
  1  2  1  0  0  0  0
  1  3  2  0  0  0  0
  1  4  1  0  0  0  0
  4  5  1  0  0  0  0
  4  6  1  0  0  0  0
  4  7  1  0  0  0  0
  7  8  1  0  0  0  0
  7  9  1  0  0  0  0
  7 10  1  0  0  0  0
 10 11  1  0  0  0  0
 10 12  1  0  0  0  0
 10 13  1  0  0  0  0
 13 14  1  0  0  0  0
 13 15  1  0  0  0  0
 13 16  1  0  0  0  0
 16 17  1  0  0  0  0
 16 18  1  0  0  0  0
 16 19  1  0  0  0  0
 19 20  1  0  0  0  0
 19 21  1  0  0  0  0
 19 22  1  0  0  0  0
 22 23  1  0  0  0  0
 22 24  1  0  0  0  0
 22 25  1  0  0  0  0
M  END
> <VConfSearch Rank>
421

> <Conf_Id>
0

> <Delta U+W>
0.000

> <U+W>
-51.629

> <U>
6.586

> <W>
-58.216

> <W(PB)>
-60.757

> <W(SA)>
2.541

> <Valence>
8.027

> <Coulomb>
-2.892

> <VdW>
1.451

> <VdW6>
-7.931

> <VdW12>
9.383

> <Bond>
0.149

> <Angle>
2.726

> <Pdih>
5.152

> <Idih>
0.000

> <Tether>
0.000

$$$$
VeraChem MOL file


 25 24  0  0  0  0  0  0  0  0999 V2000     
   16.5710   17.4126   20.6436 C   0  0  0  0  0  0  0  0  0  0  0  0
   15.7326   16.8289   21.3017 O   0  5  0  0  0  0  0  0  0  0  0  0
   16.3193   18.0324   19.6292 O   0  0  0  0  0  0  0  0  0  0  0  0
   18.0154   17.3847   21.1303 C   0  0  0  0  0  0  0  0  0  0  0  0
   18.6714   17.4161   20.2521 H   0  0  0  0  0  0  0  0  0  0  0  0
   18.1880   16.4239   21.6299 H   0  0  0  0  0  0  0  0  0  0  0  0
   18.3494   18.5537   22.0894 C   0  0  0  0  0  0  0  0  0  0  0  0
   18.1588   19.5079   21.5787 H   0  0  0  0  0  0  0  0  0  0  0  0
   17.6753   18.5158   22.9564 H   0  0  0  0  0  0  0  0  0  0  0  0
   19.8165   18.5034   22.5681 C   0  0  0  0  0  0  0  0  0  0  0  0
   20.4878   18.5405   21.6991 H   0  0  0  0  0  0  0  0  0  0  0  0
   20.0042   17.5479   23.0769 H   0  0  0  0  0  0  0  0  0  0  0  0
   20.1465   19.6699   23.5241 C   0  0  0  0  0  0  0  0  0  0  0  0
   19.9589   20.6255   23.0155 H   0  0  0  0  0  0  0  0  0  0  0  0
   19.4753   19.6330   24.3932 H   0  0  0  0  0  0  0  0  0  0  0  0
   21.6134   19.6202   24.0033 C   0  0  0  0  0  0  0  0  0  0  0  0
   22.2848   19.6571   23.1344 H   0  0  0  0  0  0  0  0  0  0  0  0
   21.8012   18.6647   24.5120 H   0  0  0  0  0  0  0  0  0  0  0  0
   21.9434   20.7860   24.9590 C   0  0  0  0  0  0  0  0  0  0  0  0
   21.7584   21.7437   24.4529 H   0  0  0  0  0  0  0  0  0  0  0  0
   21.2749   20.7512   25.8304 H   0  0  0  0  0  0  0  0  0  0  0  0
   23.4090   20.7329   25.4352 C   0  0  0  0  0  0  0  0  0  0  0  0
   23.6260   21.5684   26.1133 H   0  0  0  0  0  0  0  0  0  0  0  0
   23.6136   19.7979   25.9731 H   0  0  0  0  0  0  0  0  0  0  0  0
   24.1008   20.7978   24.5851 H   0  0  0  0  0  0  0  0  0  0  0  0
  1  2  1  0  0  0  0
  1  3  2  0  0  0  0
  1  4  1  0  0  0  0
  4  5  1  0  0  0  0
  4  6  1  0  0  0  0
  4  7  1  0  0  0  0
  7  8  1  0  0  0  0
  7  9  1  0  0  0  0
  7 10  1  0  0  0  0
 10 11  1  0  0  0  0
 10 12  1  0  0  0  0
 10 13  1  0  0  0  0
 13 14  1  0  0  0  0
 13 15  1  0  0  0  0
 13 16  1  0  0  0  0
 16 17  1  0  0  0  0
 16 18  1  0  0  0  0
 16 19  1  0  0  0  0
 19 20  1  0  0  0  0
 19 21  1  0  0  0  0
 19 22  1  0  0  0  0
 22 23  1  0  0  0  0
 22 24  1  0  0  0  0
 22 25  1  0  0  0  0
M  END
> <VConfSearch Rank>
422

> <Conf_Id>
27

> <Delta U+W>
-1.297

> <U+W>
-52.926

> <U>
5.617

> <W>
-58.543

> <W(PB)>
-61.065

> <W(SA)>
2.522

> <Valence>
7.531

> <Coulomb>
-2.818

> <VdW>
0.904

> <VdW6>
-7.640

> <VdW12>
8.544

> <Bond>
0.115

> <Angle>
2.271

> <Pdih>
5.144

> <Idih>
0.001

> <Tether>
0.000

$$$$
VeraChem MOL file


 25 24  0  0  0  0  0  0  0  0999 V2000     
   22.4160   17.7638   20.2317 C   0  0  0  0  0  0  0  0  0  0  0  0
   22.0776   18.2320   19.1624 O   0  5  0  0  0  0  0  0  0  0  0  0
   23.4864   17.9949   20.7588 O   0  0  0  0  0  0  0  0  0  0  0  0
   21.4488   16.8208   20.9417 C   0  0  0  0  0  0  0  0  0  0  0  0
   22.0101   16.2329   21.6780 H   0  0  0  0  0  0  0  0  0  0  0  0
   21.0707   16.1145   20.1932 H   0  0  0  0  0  0  0  0  0  0  0  0
   20.2564   17.5386   21.6257 C   0  0  0  0  0  0  0  0  0  0  0  0
   19.7210   18.1447   20.8816 H   0  0  0  0  0  0  0  0  0  0  0  0
   19.5461   16.7833   21.9883 H   0  0  0  0  0  0  0  0  0  0  0  0
   20.6986   18.4310   22.8072 C   0  0  0  0  0  0  0  0  0  0  0  0
   21.3962   19.2006   22.4491 H   0  0  0  0  0  0  0  0  0  0  0  0
   21.2449   17.8234   23.5417 H   0  0  0  0  0  0  0  0  0  0  0  0
   19.4936   19.1102   23.4930 C   0  0  0  0  0  0  0  0  0  0  0  0
   18.9480   19.7175   22.7578 H   0  0  0  0  0  0  0  0  0  0  0  0
   18.7960   18.3423   23.8547 H   0  0  0  0  0  0  0  0  0  0  0  0
   19.9347   20.0026   24.6732 C   0  0  0  0  0  0  0  0  0  0  0  0
   20.6324   20.7705   24.3117 H   0  0  0  0  0  0  0  0  0  0  0  0
   20.4807   19.3955   25.4083 H   0  0  0  0  0  0  0  0  0  0  0  0
   18.7307   20.6822   25.3586 C   0  0  0  0  0  0  0  0  0  0  0  0
   18.1832   21.2919   24.6265 H   0  0  0  0  0  0  0  0  0  0  0  0
   18.0315   19.9168   25.7232 H   0  0  0  0  0  0  0  0  0  0  0  0
   19.1755   21.5725   26.5364 C   0  0  0  0  0  0  0  0  0  0  0  0
   19.8516   22.3671   26.1946 H   0  0  0  0  0  0  0  0  0  0  0  0
   18.3074   22.0474   27.0118 H   0  0  0  0  0  0  0  0  0  0  0  0
   19.6988   20.9818   27.2996 H   0  0  0  0  0  0  0  0  0  0  0  0
  1  2  1  0  0  0  0
  1  3  2  0  0  0  0
  1  4  1  0  0  0  0
  4  5  1  0  0  0  0
  4  6  1  0  0  0  0
  4  7  1  0  0  0  0
  7  8  1  0  0  0  0
  7  9  1  0  0  0  0
  7 10  1  0  0  0  0
 10 11  1  0  0  0  0
 10 12  1  0  0  0  0
 10 13  1  0  0  0  0
 13 14  1  0  0  0  0
 13 15  1  0  0  0  0
 13 16  1  0  0  0  0
 16 17  1  0  0  0  0
 16 18  1  0  0  0  0
 16 19  1  0  0  0  0
 19 20  1  0  0  0  0
 19 21  1  0  0  0  0
 19 22  1  0  0  0  0
 22 23  1  0  0  0  0
 22 24  1  0  0  0  0
 22 25  1  0  0  0  0
M  END
> <VConfSearch Rank>
423

> <Conf_Id>
37

> <Delta U+W>
-0.230

> <U+W>
-51.860

> <U>
7.816

> <W>
-59.675

> <W(PB)>
-62.180

> <W(SA)>
2.505

> <Valence>
7.785

> <Coulomb>
-0.713

> <VdW>
0.744

> <VdW6>
-8.514

> <VdW12>
9.259

> <Bond>
0.136

> <Angle>
2.433

> <Pdih>
5.216

> <Idih>
0.000

> <Tether>
0.000

$$$$
VeraChem MOL file


 25 24  0  0  0  0  0  0  0  0999 V2000     
   17.2601   16.4698   24.0842 C   0  0  0  0  0  0  0  0  0  0  0  0
   16.1919   16.9036   24.4687 O   0  5  0  0  0  0  0  0  0  0  0  0
   18.0040   15.8032   24.7764 O   0  0  0  0  0  0  0  0  0  0  0  0
   17.6809   16.7660   22.6475 C   0  0  0  0  0  0  0  0  0  0  0  0
   16.8129   16.5747   22.0056 H   0  0  0  0  0  0  0  0  0  0  0  0
   18.4567   16.0481   22.3549 H   0  0  0  0  0  0  0  0  0  0  0  0
   18.1814   18.2167   22.4236 C   0  0  0  0  0  0  0  0  0  0  0  0
   18.3296   18.3805   21.3476 H   0  0  0  0  0  0  0  0  0  0  0  0
   17.4046   18.9236   22.7471 H   0  0  0  0  0  0  0  0  0  0  0  0
   19.5015   18.5118   23.1705 C   0  0  0  0  0  0  0  0  0  0  0  0
   20.2708   17.7942   22.8536 H   0  0  0  0  0  0  0  0  0  0  0  0
   19.3565   18.3668   24.2500 H   0  0  0  0  0  0  0  0  0  0  0  0
   19.9976   19.9501   22.9082 C   0  0  0  0  0  0  0  0  0  0  0  0
   20.1461   20.0964   21.8295 H   0  0  0  0  0  0  0  0  0  0  0  0
   19.2278   20.6669   23.2255 H   0  0  0  0  0  0  0  0  0  0  0  0
   21.3163   20.2459   23.6548 C   0  0  0  0  0  0  0  0  0  0  0  0
   22.0863   19.5291   23.3378 H   0  0  0  0  0  0  0  0  0  0  0  0
   21.1681   20.0995   24.7335 H   0  0  0  0  0  0  0  0  0  0  0  0
   21.8123   21.6837   23.3934 C   0  0  0  0  0  0  0  0  0  0  0  0
   21.9635   21.8332   22.3153 H   0  0  0  0  0  0  0  0  0  0  0  0
   21.0453   22.4036   23.7111 H   0  0  0  0  0  0  0  0  0  0  0  0
   23.1293   21.9750   24.1407 C   0  0  0  0  0  0  0  0  0  0  0  0
   23.9236   21.2889   23.8187 H   0  0  0  0  0  0  0  0  0  0  0  0
   23.4671   23.0007   23.9438 H   0  0  0  0  0  0  0  0  0  0  0  0
   22.9986   21.8635   25.2250 H   0  0  0  0  0  0  0  0  0  0  0  0
  1  2  1  0  0  0  0
  1  3  2  0  0  0  0
  1  4  1  0  0  0  0
  4  5  1  0  0  0  0
  4  6  1  0  0  0  0
  4  7  1  0  0  0  0
  7  8  1  0  0  0  0
  7  9  1  0  0  0  0
  7 10  1  0  0  0  0
 10 11  1  0  0  0  0
 10 12  1  0  0  0  0
 10 13  1  0  0  0  0
 13 14  1  0  0  0  0
 13 15  1  0  0  0  0
 13 16  1  0  0  0  0
 16 17  1  0  0  0  0
 16 18  1  0  0  0  0
 16 19  1  0  0  0  0
 19 20  1  0  0  0  0
 19 21  1  0  0  0  0
 19 22  1  0  0  0  0
 22 23  1  0  0  0  0
 22 24  1  0  0  0  0
 22 25  1  0  0  0  0
M  END
> <VConfSearch Rank>
424

> <Conf_Id>
54

> <Delta U+W>
-0.224

> <U+W>
-51.854

> <U>
7.816

> <W>
-59.670

> <W(PB)>
-62.157

> <W(SA)>
2.487

> <Valence>
7.785

> <Coulomb>
-0.713

> <VdW>
0.744

> <VdW6>
-8.515

> <VdW12>
9.259

> <Bond>
0.136

> <Angle>
2.433

> <Pdih>
5.215

> <Idih>
0.000

> <Tether>
0.000

$$$$
VeraChem MOL file


 25 24  0  0  0  0  0  0  0  0999 V2000     
   20.2374   15.0683   23.2221 C   0  0  0  0  0  0  0  0  0  0  0  0
   21.2148   14.7969   22.5529 O   0  5  0  0  0  0  0  0  0  0  0  0
   20.0138   14.5830   24.3137 O   0  0  0  0  0  0  0  0  0  0  0  0
   19.2243   16.0586   22.6545 C   0  0  0  0  0  0  0  0  0  0  0  0
   18.2272   15.6285   22.8053 H   0  0  0  0  0  0  0  0  0  0  0  0
   19.3770   16.1340   21.5710 H   0  0  0  0  0  0  0  0  0  0  0  0
   19.2843   17.4663   23.3029 C   0  0  0  0  0  0  0  0  0  0  0  0
   18.4264   18.0493   22.9451 H   0  0  0  0  0  0  0  0  0  0  0  0
   19.1712   17.3702   24.3917 H   0  0  0  0  0  0  0  0  0  0  0  0
   20.5988   18.2152   22.9758 C   0  0  0  0  0  0  0  0  0  0  0  0
   20.6885   18.3510   21.8894 H   0  0  0  0  0  0  0  0  0  0  0  0
   21.4517   17.5932   23.2804 H   0  0  0  0  0  0  0  0  0  0  0  0
   20.7231   19.5865   23.6821 C   0  0  0  0  0  0  0  0  0  0  0  0
   20.6146   19.4526   24.7669 H   0  0  0  0  0  0  0  0  0  0  0  0
   21.7409   19.9614   23.5155 H   0  0  0  0  0  0  0  0  0  0  0  0
   19.7013   20.6363   23.1794 C   0  0  0  0  0  0  0  0  0  0  0  0
   18.6826   20.2669   23.3517 H   0  0  0  0  0  0  0  0  0  0  0  0
   19.8070   20.7661   22.0938 H   0  0  0  0  0  0  0  0  0  0  0  0
   19.8359   22.0089   23.8797 C   0  0  0  0  0  0  0  0  0  0  0  0
   18.9955   22.6451   23.5697 H   0  0  0  0  0  0  0  0  0  0  0  0
   19.7432   21.8814   24.9672 H   0  0  0  0  0  0  0  0  0  0  0  0
   21.1564   22.7394   23.5518 C   0  0  0  0  0  0  0  0  0  0  0  0
   22.0240   22.2003   23.9518 H   0  0  0  0  0  0  0  0  0  0  0  0
   21.2870   22.8471   22.4671 H   0  0  0  0  0  0  0  0  0  0  0  0
   21.1584   23.7443   23.9935 H   0  0  0  0  0  0  0  0  0  0  0  0
  1  2  1  0  0  0  0
  1  3  2  0  0  0  0
  1  4  1  0  0  0  0
  4  5  1  0  0  0  0
  4  6  1  0  0  0  0
  4  7  1  0  0  0  0
  7  8  1  0  0  0  0
  7  9  1  0  0  0  0
  7 10  1  0  0  0  0
 10 11  1  0  0  0  0
 10 12  1  0  0  0  0
 10 13  1  0  0  0  0
 13 14  1  0  0  0  0
 13 15  1  0  0  0  0
 13 16  1  0  0  0  0
 16 17  1  0  0  0  0
 16 18  1  0  0  0  0
 16 19  1  0  0  0  0
 19 20  1  0  0  0  0
 19 21  1  0  0  0  0
 19 22  1  0  0  0  0
 22 23  1  0  0  0  0
 22 24  1  0  0  0  0
 22 25  1  0  0  0  0
M  END
> <VConfSearch Rank>
425

> <Conf_Id>
101

> <Delta U+W>
1.534

> <U+W>
-50.095

> <U>
9.416

> <W>
-59.512

> <W(PB)>
-61.988

> <W(SA)>
2.476

> <Valence>
8.939

> <Coulomb>
-0.615

> <VdW>
1.092

> <VdW6>
-9.710

> <VdW12>
10.802

> <Bond>
0.216

> <Angle>
2.979

> <Pdih>
5.743

> <Idih>
0.000

> <Tether>
0.000

$$$$
VeraChem MOL file


 25 24  0  0  0  0  0  0  0  0999 V2000     
   16.7377   16.8797   24.2419 C   0  0  0  0  0  0  0  0  0  0  0  0
   16.5947   16.9340   25.4475 O   0  5  0  0  0  0  0  0  0  0  0  0
   15.8493   16.5719   23.4720 O   0  0  0  0  0  0  0  0  0  0  0  0
   18.1006   17.2395   23.6614 C   0  0  0  0  0  0  0  0  0  0  0  0
   18.2496   16.6467   22.7511 H   0  0  0  0  0  0  0  0  0  0  0  0
   18.8626   16.9252   24.3832 H   0  0  0  0  0  0  0  0  0  0  0  0
   18.2362   18.7516   23.3436 C   0  0  0  0  0  0  0  0  0  0  0  0
   17.3996   19.0506   22.6970 H   0  0  0  0  0  0  0  0  0  0  0  0
   18.1343   19.3328   24.2705 H   0  0  0  0  0  0  0  0  0  0  0  0
   19.5627   19.1215   22.6376 C   0  0  0  0  0  0  0  0  0  0  0  0
   19.5006   20.1732   22.3303 H   0  0  0  0  0  0  0  0  0  0  0  0
   19.6670   18.5322   21.7165 H   0  0  0  0  0  0  0  0  0  0  0  0
   20.8118   18.9223   23.5309 C   0  0  0  0  0  0  0  0  0  0  0  0
   20.7079   19.5118   24.4510 H   0  0  0  0  0  0  0  0  0  0  0  0
   20.8716   17.8732   23.8465 H   0  0  0  0  0  0  0  0  0  0  0  0
   22.1429   19.2790   22.8213 C   0  0  0  0  0  0  0  0  0  0  0  0
   22.2703   18.6190   21.9525 H   0  0  0  0  0  0  0  0  0  0  0  0
   22.9747   19.0484   23.5007 H   0  0  0  0  0  0  0  0  0  0  0  0
   22.2761   20.7498   22.3539 C   0  0  0  0  0  0  0  0  0  0  0  0
   23.2530   20.8737   21.8667 H   0  0  0  0  0  0  0  0  0  0  0  0
   21.5250   20.9737   21.5852 H   0  0  0  0  0  0  0  0  0  0  0  0
   22.1634   21.7714   23.5061 C   0  0  0  0  0  0  0  0  0  0  0  0
   22.8903   21.5518   24.2987 H   0  0  0  0  0  0  0  0  0  0  0  0
   22.3586   22.7874   23.1393 H   0  0  0  0  0  0  0  0  0  0  0  0
   21.1588   21.7647   23.9475 H   0  0  0  0  0  0  0  0  0  0  0  0
  1  2  1  0  0  0  0
  1  3  2  0  0  0  0
  1  4  1  0  0  0  0
  4  5  1  0  0  0  0
  4  6  1  0  0  0  0
  4  7  1  0  0  0  0
  7  8  1  0  0  0  0
  7  9  1  0  0  0  0
  7 10  1  0  0  0  0
 10 11  1  0  0  0  0
 10 12  1  0  0  0  0
 10 13  1  0  0  0  0
 13 14  1  0  0  0  0
 13 15  1  0  0  0  0
 13 16  1  0  0  0  0
 16 17  1  0  0  0  0
 16 18  1  0  0  0  0
 16 19  1  0  0  0  0
 19 20  1  0  0  0  0
 19 21  1  0  0  0  0
 19 22  1  0  0  0  0
 22 23  1  0  0  0  0
 22 24  1  0  0  0  0
 22 25  1  0  0  0  0
M  END
> <VConfSearch Rank>
426

> <Conf_Id>
75

> <Delta U+W>
1.014

> <U+W>
-50.615

> <U>
8.474

> <W>
-59.089

> <W(PB)>
-61.530

> <W(SA)>
2.441

> <Valence>
9.080

> <Coulomb>
-1.772

> <VdW>
1.165

> <VdW6>
-9.830

> <VdW12>
10.996

> <Bond>
0.240

> <Angle>
3.225

> <Pdih>
5.615

> <Idih>
0.001

> <Tether>
0.000

$$$$
VeraChem MOL file


 25 24  0  0  0  0  0  0  0  0999 V2000     
   22.7061   18.7695   19.9752 C   0  0  0  0  0  0  0  0  0  0  0  0
   23.5548   19.6357   20.0530 O   0  5  0  0  0  0  0  0  0  0  0  0
   22.8725   17.7138   19.3970 O   0  0  0  0  0  0  0  0  0  0  0  0
   21.3653   19.0120   20.6590 C   0  0  0  0  0  0  0  0  0  0  0  0
   20.5883   18.5042   20.0752 H   0  0  0  0  0  0  0  0  0  0  0  0
   21.1515   20.0868   20.6181 H   0  0  0  0  0  0  0  0  0  0  0  0
   21.3404   18.5176   22.1264 C   0  0  0  0  0  0  0  0  0  0  0  0
   21.5690   17.4430   22.1514 H   0  0  0  0  0  0  0  0  0  0  0  0
   22.1325   19.0257   22.6938 H   0  0  0  0  0  0  0  0  0  0  0  0
   19.9737   18.7757   22.7969 C   0  0  0  0  0  0  0  0  0  0  0  0
   19.1852   18.2664   22.2262 H   0  0  0  0  0  0  0  0  0  0  0  0
   19.7475   19.8478   22.7578 H   0  0  0  0  0  0  0  0  0  0  0  0
   19.9520   18.2747   24.2602 C   0  0  0  0  0  0  0  0  0  0  0  0
   20.1508   17.1943   24.2547 H   0  0  0  0  0  0  0  0  0  0  0  0
   20.7690   18.7334   24.8338 H   0  0  0  0  0  0  0  0  0  0  0  0
   18.5983   18.5212   24.9739 C   0  0  0  0  0  0  0  0  0  0  0  0
   18.4049   17.6708   25.6419 H   0  0  0  0  0  0  0  0  0  0  0  0
   17.7770   18.5203   24.2444 H   0  0  0  0  0  0  0  0  0  0  0  0
   18.5453   19.8090   25.8329 C   0  0  0  0  0  0  0  0  0  0  0  0
   17.5782   19.8410   26.3534 H   0  0  0  0  0  0  0  0  0  0  0  0
   19.3142   19.7608   26.6163 H   0  0  0  0  0  0  0  0  0  0  0  0
   18.7163   21.1139   25.0277 C   0  0  0  0  0  0  0  0  0  0  0  0
   18.0030   21.1594   24.1946 H   0  0  0  0  0  0  0  0  0  0  0  0
   18.5432   21.9868   25.6701 H   0  0  0  0  0  0  0  0  0  0  0  0
   19.7324   21.1983   24.6227 H   0  0  0  0  0  0  0  0  0  0  0  0
  1  2  1  0  0  0  0
  1  3  2  0  0  0  0
  1  4  1  0  0  0  0
  4  5  1  0  0  0  0
  4  6  1  0  0  0  0
  4  7  1  0  0  0  0
  7  8  1  0  0  0  0
  7  9  1  0  0  0  0
  7 10  1  0  0  0  0
 10 11  1  0  0  0  0
 10 12  1  0  0  0  0
 10 13  1  0  0  0  0
 13 14  1  0  0  0  0
 13 15  1  0  0  0  0
 13 16  1  0  0  0  0
 16 17  1  0  0  0  0
 16 18  1  0  0  0  0
 16 19  1  0  0  0  0
 19 20  1  0  0  0  0
 19 21  1  0  0  0  0
 19 22  1  0  0  0  0
 22 23  1  0  0  0  0
 22 24  1  0  0  0  0
 22 25  1  0  0  0  0
M  END
> <VConfSearch Rank>
427

> <Conf_Id>
125

> <Delta U+W>
2.314

> <U+W>
-49.315

> <U>
9.740

> <W>
-59.054

> <W(PB)>
-61.488

> <W(SA)>
2.433

> <Valence>
10.506

> <Coulomb>
-1.761

> <VdW>
0.994

> <VdW6>
-9.209

> <VdW12>
10.203

> <Bond>
0.193

> <Angle>
2.979

> <Pdih>
7.334

> <Idih>
0.001

> <Tether>
0.000

$$$$
VeraChem MOL file


 25 24  0  0  0  0  0  0  0  0999 V2000     
   24.0254   19.1922   24.4576 C   0  0  0  0  0  0  0  0  0  0  0  0
   24.4586   18.0922   24.1766 O   0  5  0  0  0  0  0  0  0  0  0  0
   24.6507   20.0205   25.0898 O   0  0  0  0  0  0  0  0  0  0  0  0
   22.6101   19.5439   24.0134 C   0  0  0  0  0  0  0  0  0  0  0  0
   22.4261   19.0393   23.0583 H   0  0  0  0  0  0  0  0  0  0  0  0
   22.5712   20.6233   23.8246 H   0  0  0  0  0  0  0  0  0  0  0  0
   21.5368   19.1443   25.0592 C   0  0  0  0  0  0  0  0  0  0  0  0
   21.5540   18.0554   25.2048 H   0  0  0  0  0  0  0  0  0  0  0  0
   21.8043   19.5908   26.0270 H   0  0  0  0  0  0  0  0  0  0  0  0
   20.1067   19.5989   24.6822 C   0  0  0  0  0  0  0  0  0  0  0  0
   20.0907   20.6891   24.5468 H   0  0  0  0  0  0  0  0  0  0  0  0
   19.4384   19.3808   25.5265 H   0  0  0  0  0  0  0  0  0  0  0  0
   19.5562   18.9085   23.4128 C   0  0  0  0  0  0  0  0  0  0  0  0
   20.1785   19.1757   22.5502 H   0  0  0  0  0  0  0  0  0  0  0  0
   19.6195   17.8183   23.5313 H   0  0  0  0  0  0  0  0  0  0  0  0
   18.0899   19.3131   23.1349 C   0  0  0  0  0  0  0  0  0  0  0  0
   18.0305   20.3976   22.9693 H   0  0  0  0  0  0  0  0  0  0  0  0
   17.4848   19.1011   24.0270 H   0  0  0  0  0  0  0  0  0  0  0  0
   17.4644   18.5710   21.9308 C   0  0  0  0  0  0  0  0  0  0  0  0
   17.5173   17.4859   22.0956 H   0  0  0  0  0  0  0  0  0  0  0  0
   16.3968   18.8248   21.8765 H   0  0  0  0  0  0  0  0  0  0  0  0
   18.1281   18.9245   20.5820 C   0  0  0  0  0  0  0  0  0  0  0  0
   19.1697   18.5818   20.5458 H   0  0  0  0  0  0  0  0  0  0  0  0
   17.5919   18.4447   19.7531 H   0  0  0  0  0  0  0  0  0  0  0  0
   18.1155   20.0087   20.4101 H   0  0  0  0  0  0  0  0  0  0  0  0
  1  2  1  0  0  0  0
  1  3  2  0  0  0  0
  1  4  1  0  0  0  0
  4  5  1  0  0  0  0
  4  6  1  0  0  0  0
  4  7  1  0  0  0  0
  7  8  1  0  0  0  0
  7  9  1  0  0  0  0
  7 10  1  0  0  0  0
 10 11  1  0  0  0  0
 10 12  1  0  0  0  0
 10 13  1  0  0  0  0
 13 14  1  0  0  0  0
 13 15  1  0  0  0  0
 13 16  1  0  0  0  0
 16 17  1  0  0  0  0
 16 18  1  0  0  0  0
 16 19  1  0  0  0  0
 19 20  1  0  0  0  0
 19 21  1  0  0  0  0
 19 22  1  0  0  0  0
 22 23  1  0  0  0  0
 22 24  1  0  0  0  0
 22 25  1  0  0  0  0
M  END
> <VConfSearch Rank>
428

> <Conf_Id>
4

> <Delta U+W>
0.189

> <U+W>
-51.441

> <U>
7.701

> <W>
-59.141

> <W(PB)>
-61.609

> <W(SA)>
2.467

> <Valence>
8.550

> <Coulomb>
-1.988

> <VdW>
1.139

> <VdW6>
-8.988

> <VdW12>
10.127

> <Bond>
0.191

> <Angle>
2.738

> <Pdih>
5.621

> <Idih>
0.001

> <Tether>
0.000

$$$$
VeraChem MOL file


 25 24  0  0  0  0  0  0  0  0999 V2000     
   19.6456   18.6834   19.2624 C   0  0  0  0  0  0  0  0  0  0  0  0
   20.6804   18.1560   18.9051 O   0  5  0  0  0  0  0  0  0  0  0  0
   18.6856   18.8436   18.5348 O   0  0  0  0  0  0  0  0  0  0  0  0
   19.5369   19.1485   20.7101 C   0  0  0  0  0  0  0  0  0  0  0  0
   18.8813   20.0270   20.7368 H   0  0  0  0  0  0  0  0  0  0  0  0
   20.5326   19.4753   21.0303 H   0  0  0  0  0  0  0  0  0  0  0  0
   18.9928   18.0456   21.6550 C   0  0  0  0  0  0  0  0  0  0  0  0
   18.0398   17.6752   21.2524 H   0  0  0  0  0  0  0  0  0  0  0  0
   19.6824   17.1901   21.6557 H   0  0  0  0  0  0  0  0  0  0  0  0
   18.7621   18.5324   23.1055 C   0  0  0  0  0  0  0  0  0  0  0  0
   18.2696   17.7277   23.6683 H   0  0  0  0  0  0  0  0  0  0  0  0
   18.0646   19.3813   23.1023 H   0  0  0  0  0  0  0  0  0  0  0  0
   20.0656   18.9324   23.8348 C   0  0  0  0  0  0  0  0  0  0  0  0
   20.7800   18.0990   23.7932 H   0  0  0  0  0  0  0  0  0  0  0  0
   20.5298   19.7812   23.3183 H   0  0  0  0  0  0  0  0  0  0  0  0
   19.7994   19.3107   25.3103 C   0  0  0  0  0  0  0  0  0  0  0  0
   19.2773   18.4798   25.8042 H   0  0  0  0  0  0  0  0  0  0  0  0
   19.1216   20.1741   25.3543 H   0  0  0  0  0  0  0  0  0  0  0  0
   21.0874   19.6231   26.1074 C   0  0  0  0  0  0  0  0  0  0  0  0
   20.8222   19.7634   27.1644 H   0  0  0  0  0  0  0  0  0  0  0  0
   21.7656   18.7594   26.0699 H   0  0  0  0  0  0  0  0  0  0  0  0
   21.8250   20.8847   25.6087 C   0  0  0  0  0  0  0  0  0  0  0  0
   21.1568   21.7558   25.6072 H   0  0  0  0  0  0  0  0  0  0  0  0
   22.6775   21.1139   26.2610 H   0  0  0  0  0  0  0  0  0  0  0  0
   22.2132   20.7465   24.5919 H   0  0  0  0  0  0  0  0  0  0  0  0
  1  2  1  0  0  0  0
  1  3  2  0  0  0  0
  1  4  1  0  0  0  0
  4  5  1  0  0  0  0
  4  6  1  0  0  0  0
  4  7  1  0  0  0  0
  7  8  1  0  0  0  0
  7  9  1  0  0  0  0
  7 10  1  0  0  0  0
 10 11  1  0  0  0  0
 10 12  1  0  0  0  0
 10 13  1  0  0  0  0
 13 14  1  0  0  0  0
 13 15  1  0  0  0  0
 13 16  1  0  0  0  0
 16 17  1  0  0  0  0
 16 18  1  0  0  0  0
 16 19  1  0  0  0  0
 19 20  1  0  0  0  0
 19 21  1  0  0  0  0
 19 22  1  0  0  0  0
 22 23  1  0  0  0  0
 22 24  1  0  0  0  0
 22 25  1  0  0  0  0
M  END
> <VConfSearch Rank>
429

> <Conf_Id>
17

> <Delta U+W>
0.219

> <U+W>
-51.411

> <U>
7.701

> <W>
-59.111

> <W(PB)>
-61.599

> <W(SA)>
2.488

> <Valence>
8.550

> <Coulomb>
-1.988

> <VdW>
1.139

> <VdW6>
-8.988

> <VdW12>
10.127

> <Bond>
0.191

> <Angle>
2.738

> <Pdih>
5.621

> <Idih>
0.001

> <Tether>
0.000

$$$$
VeraChem MOL file


 25 24  0  0  0  0  0  0  0  0999 V2000     
   21.7998   16.1975   24.5159 C   0  0  0  0  0  0  0  0  0  0  0  0
   21.5337   15.9450   25.6746 O   0  5  0  0  0  0  0  0  0  0  0  0
   22.9143   16.4909   24.1301 O   0  0  0  0  0  0  0  0  0  0  0  0
   20.6781   16.1240   23.4838 C   0  0  0  0  0  0  0  0  0  0  0  0
   19.8616   15.5193   23.8967 H   0  0  0  0  0  0  0  0  0  0  0  0
   21.0669   15.5808   22.6144 H   0  0  0  0  0  0  0  0  0  0  0  0
   20.1456   17.5092   23.0336 C   0  0  0  0  0  0  0  0  0  0  0  0
   20.9831   18.1019   22.6426 H   0  0  0  0  0  0  0  0  0  0  0  0
   19.4409   17.3679   22.2032 H   0  0  0  0  0  0  0  0  0  0  0  0
   19.4388   18.2724   24.1794 C   0  0  0  0  0  0  0  0  0  0  0  0
   20.1549   18.4811   24.9862 H   0  0  0  0  0  0  0  0  0  0  0  0
   18.6637   17.6263   24.6137 H   0  0  0  0  0  0  0  0  0  0  0  0
   18.7774   19.5944   23.7228 C   0  0  0  0  0  0  0  0  0  0  0  0
   18.0544   19.3871   22.9221 H   0  0  0  0  0  0  0  0  0  0  0  0
   18.2007   20.0031   24.5639 H   0  0  0  0  0  0  0  0  0  0  0  0
   19.7929   20.6586   23.2461 C   0  0  0  0  0  0  0  0  0  0  0  0
   20.3265   20.2961   22.3579 H   0  0  0  0  0  0  0  0  0  0  0  0
   20.5465   20.8232   24.0284 H   0  0  0  0  0  0  0  0  0  0  0  0
   19.1010   21.9960   22.9079 C   0  0  0  0  0  0  0  0  0  0  0  0
   18.3452   21.8344   22.1268 H   0  0  0  0  0  0  0  0  0  0  0  0
   18.5701   22.3732   23.7929 H   0  0  0  0  0  0  0  0  0  0  0  0
   20.1145   23.0550   22.4291 C   0  0  0  0  0  0  0  0  0  0  0  0
   20.6379   22.7173   21.5250 H   0  0  0  0  0  0  0  0  0  0  0  0
   19.6057   23.9988   22.1936 H   0  0  0  0  0  0  0  0  0  0  0  0
   20.8652   23.2586   23.2039 H   0  0  0  0  0  0  0  0  0  0  0  0
  1  2  1  0  0  0  0
  1  3  2  0  0  0  0
  1  4  1  0  0  0  0
  4  5  1  0  0  0  0
  4  6  1  0  0  0  0
  4  7  1  0  0  0  0
  7  8  1  0  0  0  0
  7  9  1  0  0  0  0
  7 10  1  0  0  0  0
 10 11  1  0  0  0  0
 10 12  1  0  0  0  0
 10 13  1  0  0  0  0
 13 14  1  0  0  0  0
 13 15  1  0  0  0  0
 13 16  1  0  0  0  0
 16 17  1  0  0  0  0
 16 18  1  0  0  0  0
 16 19  1  0  0  0  0
 19 20  1  0  0  0  0
 19 21  1  0  0  0  0
 19 22  1  0  0  0  0
 22 23  1  0  0  0  0
 22 24  1  0  0  0  0
 22 25  1  0  0  0  0
M  END
> <VConfSearch Rank>
430

> <Conf_Id>
142

> <Delta U+W>
0.593

> <U+W>
-51.037

> <U>
8.903

> <W>
-59.940

> <W(PB)>
-62.418

> <W(SA)>
2.478

> <Valence>
8.305

> <Coulomb>
-0.223

> <VdW>
0.821

> <VdW6>
-9.236

> <VdW12>
10.057

> <Bond>
0.173

> <Angle>
2.663

> <Pdih>
5.469

> <Idih>
0.001

> <Tether>
0.000

$$$$
VeraChem MOL file


 25 24  0  0  0  0  0  0  0  0999 V2000     
   21.4167   18.6863   26.7004 C   0  0  0  0  0  0  0  0  0  0  0  0
   21.0498   18.8709   27.8445 O   0  5  0  0  0  0  0  0  0  0  0  0
   21.9724   17.6715   26.3284 O   0  0  0  0  0  0  0  0  0  0  0  0
   21.1906   19.8025   25.6845 C   0  0  0  0  0  0  0  0  0  0  0  0
   21.8091   19.6046   24.8016 H   0  0  0  0  0  0  0  0  0  0  0  0
   21.5708   20.7297   26.1285 H   0  0  0  0  0  0  0  0  0  0  0  0
   19.7045   19.9983   25.2781 C   0  0  0  0  0  0  0  0  0  0  0  0
   19.1264   20.2623   26.1744 H   0  0  0  0  0  0  0  0  0  0  0  0
   19.6245   20.8612   24.6044 H   0  0  0  0  0  0  0  0  0  0  0  0
   19.0524   18.7569   24.6160 C   0  0  0  0  0  0  0  0  0  0  0  0
   18.0076   18.9944   24.3739 H   0  0  0  0  0  0  0  0  0  0  0  0
   19.0134   17.9397   25.3493 H   0  0  0  0  0  0  0  0  0  0  0  0
   19.7588   18.2409   23.3373 C   0  0  0  0  0  0  0  0  0  0  0  0
   20.7709   17.8933   23.5843 H   0  0  0  0  0  0  0  0  0  0  0  0
   19.2153   17.3576   22.9756 H   0  0  0  0  0  0  0  0  0  0  0  0
   19.8263   19.2890   22.2026 C   0  0  0  0  0  0  0  0  0  0  0  0
   20.4289   20.1485   22.5238 H   0  0  0  0  0  0  0  0  0  0  0  0
   18.8165   19.6655   21.9900 H   0  0  0  0  0  0  0  0  0  0  0  0
   20.4382   18.6973   20.9154 C   0  0  0  0  0  0  0  0  0  0  0  0
   21.4475   18.3177   21.1266 H   0  0  0  0  0  0  0  0  0  0  0  0
   19.8383   17.8401   20.5796 H   0  0  0  0  0  0  0  0  0  0  0  0
   20.5104   19.7454   19.7866 C   0  0  0  0  0  0  0  0  0  0  0  0
   21.1317   20.6004   20.0838 H   0  0  0  0  0  0  0  0  0  0  0  0
   20.9475   19.3078   18.8797 H   0  0  0  0  0  0  0  0  0  0  0  0
   19.5098   20.1200   19.5341 H   0  0  0  0  0  0  0  0  0  0  0  0
  1  2  1  0  0  0  0
  1  3  2  0  0  0  0
  1  4  1  0  0  0  0
  4  5  1  0  0  0  0
  4  6  1  0  0  0  0
  4  7  1  0  0  0  0
  7  8  1  0  0  0  0
  7  9  1  0  0  0  0
  7 10  1  0  0  0  0
 10 11  1  0  0  0  0
 10 12  1  0  0  0  0
 10 13  1  0  0  0  0
 13 14  1  0  0  0  0
 13 15  1  0  0  0  0
 13 16  1  0  0  0  0
 16 17  1  0  0  0  0
 16 18  1  0  0  0  0
 16 19  1  0  0  0  0
 19 20  1  0  0  0  0
 19 21  1  0  0  0  0
 19 22  1  0  0  0  0
 22 23  1  0  0  0  0
 22 24  1  0  0  0  0
 22 25  1  0  0  0  0
M  END
> <VConfSearch Rank>
431

> <Conf_Id>
135

> <Delta U+W>
1.314

> <U+W>
-50.316

> <U>
9.773

> <W>
-60.088

> <W(PB)>
-62.535

> <W(SA)>
2.447

> <Valence>
8.741

> <Coulomb>
0.479

> <VdW>
0.552

> <VdW6>
-10.627

> <VdW12>
11.179

> <Bond>
0.227

> <Angle>
3.155

> <Pdih>
5.358

> <Idih>
0.001

> <Tether>
0.000

$$$$
VeraChem MOL file


 25 24  0  0  0  0  0  0  0  0999 V2000     
   17.4064   19.8630   20.0804 C   0  0  0  0  0  0  0  0  0  0  0  0
   16.8727   20.9542   20.1152 O   0  5  0  0  0  0  0  0  0  0  0  0
   17.4737   19.1784   19.0786 O   0  0  0  0  0  0  0  0  0  0  0  0
   18.0470   19.3335   21.3584 C   0  0  0  0  0  0  0  0  0  0  0  0
   17.9679   18.2398   21.3501 H   0  0  0  0  0  0  0  0  0  0  0  0
   17.4515   19.6965   22.2033 H   0  0  0  0  0  0  0  0  0  0  0  0
   19.5304   19.7615   21.5068 C   0  0  0  0  0  0  0  0  0  0  0  0
   20.0726   19.4658   20.5980 H   0  0  0  0  0  0  0  0  0  0  0  0
   19.5941   20.8570   21.5625 H   0  0  0  0  0  0  0  0  0  0  0  0
   20.2393   19.1326   22.7303 C   0  0  0  0  0  0  0  0  0  0  0  0
   21.3084   19.3685   22.6576 H   0  0  0  0  0  0  0  0  0  0  0  0
   20.1527   18.0385   22.6857 H   0  0  0  0  0  0  0  0  0  0  0  0
   19.7013   19.6476   24.0867 C   0  0  0  0  0  0  0  0  0  0  0  0
   19.8460   20.7348   24.1469 H   0  0  0  0  0  0  0  0  0  0  0  0
   18.6190   19.4770   24.1411 H   0  0  0  0  0  0  0  0  0  0  0  0
   20.3479   18.9736   25.3233 C   0  0  0  0  0  0  0  0  0  0  0  0
   20.1289   17.8970   25.3223 H   0  0  0  0  0  0  0  0  0  0  0  0
   19.8515   19.3774   26.2163 H   0  0  0  0  0  0  0  0  0  0  0  0
   21.8717   19.2112   25.4707 C   0  0  0  0  0  0  0  0  0  0  0  0
   22.1598   20.1531   24.9838 H   0  0  0  0  0  0  0  0  0  0  0  0
   22.1069   19.3346   26.5369 H   0  0  0  0  0  0  0  0  0  0  0  0
   22.7241   18.0434   24.9258 C   0  0  0  0  0  0  0  0  0  0  0  0
   22.5444   17.8700   23.8587 H   0  0  0  0  0  0  0  0  0  0  0  0
   23.7933   18.2548   25.0561 H   0  0  0  0  0  0  0  0  0  0  0  0
   22.4983   17.1125   25.4621 H   0  0  0  0  0  0  0  0  0  0  0  0
  1  2  1  0  0  0  0
  1  3  2  0  0  0  0
  1  4  1  0  0  0  0
  4  5  1  0  0  0  0
  4  6  1  0  0  0  0
  4  7  1  0  0  0  0
  7  8  1  0  0  0  0
  7  9  1  0  0  0  0
  7 10  1  0  0  0  0
 10 11  1  0  0  0  0
 10 12  1  0  0  0  0
 10 13  1  0  0  0  0
 13 14  1  0  0  0  0
 13 15  1  0  0  0  0
 13 16  1  0  0  0  0
 16 17  1  0  0  0  0
 16 18  1  0  0  0  0
 16 19  1  0  0  0  0
 19 20  1  0  0  0  0
 19 21  1  0  0  0  0
 19 22  1  0  0  0  0
 22 23  1  0  0  0  0
 22 24  1  0  0  0  0
 22 25  1  0  0  0  0
M  END
> <VConfSearch Rank>
432

> <Conf_Id>
19

> <Delta U+W>
3.222

> <U+W>
-48.407

> <U>
10.617

> <W>
-59.025

> <W(PB)>
-61.462

> <W(SA)>
2.437

> <Valence>
11.188

> <Coulomb>
-1.778

> <VdW>
1.208

> <VdW6>
-9.786

> <VdW12>
10.993

> <Bond>
0.241

> <Angle>
3.294

> <Pdih>
7.653

> <Idih>
0.001

> <Tether>
0.000

$$$$
VeraChem MOL file


 25 24  0  0  0  0  0  0  0  0999 V2000     
   18.1638   20.7756   26.6549 C   0  0  0  0  0  0  0  0  0  0  0  0
   17.6728   21.8716   26.4692 O   0  5  0  0  0  0  0  0  0  0  0  0
   18.4176   20.3297   27.7565 O   0  0  0  0  0  0  0  0  0  0  0  0
   18.5016   19.9222   25.4376 C   0  0  0  0  0  0  0  0  0  0  0  0
   17.7542   20.1347   24.6654 H   0  0  0  0  0  0  0  0  0  0  0  0
   18.3885   18.8686   25.7194 H   0  0  0  0  0  0  0  0  0  0  0  0
   19.9342   20.1821   24.9027 C   0  0  0  0  0  0  0  0  0  0  0  0
   20.0223   21.2282   24.5784 H   0  0  0  0  0  0  0  0  0  0  0  0
   20.6454   20.0537   25.7305 H   0  0  0  0  0  0  0  0  0  0  0  0
   20.3468   19.2388   23.7474 C   0  0  0  0  0  0  0  0  0  0  0  0
   20.2339   18.1934   24.0654 H   0  0  0  0  0  0  0  0  0  0  0  0
   21.4147   19.3958   23.5501 H   0  0  0  0  0  0  0  0  0  0  0  0
   19.5529   19.4794   22.4412 C   0  0  0  0  0  0  0  0  0  0  0  0
   18.4782   19.3910   22.6432 H   0  0  0  0  0  0  0  0  0  0  0  0
   19.7189   20.5098   22.0986 H   0  0  0  0  0  0  0  0  0  0  0  0
   19.9004   18.4945   21.2964 C   0  0  0  0  0  0  0  0  0  0  0  0
   19.2410   18.7277   20.4492 H   0  0  0  0  0  0  0  0  0  0  0  0
   19.6495   17.4675   21.5949 H   0  0  0  0  0  0  0  0  0  0  0  0
   21.3661   18.5663   20.7997 C   0  0  0  0  0  0  0  0  0  0  0  0
   21.3753   18.4281   19.7097 H   0  0  0  0  0  0  0  0  0  0  0  0
   21.7827   19.5662   20.9837 H   0  0  0  0  0  0  0  0  0  0  0  0
   22.2734   17.4838   21.4260 C   0  0  0  0  0  0  0  0  0  0  0  0
   21.9076   16.4784   21.1799 H   0  0  0  0  0  0  0  0  0  0  0  0
   23.2977   17.5716   21.0413 H   0  0  0  0  0  0  0  0  0  0  0  0
   22.3169   17.5692   22.5177 H   0  0  0  0  0  0  0  0  0  0  0  0
  1  2  1  0  0  0  0
  1  3  2  0  0  0  0
  1  4  1  0  0  0  0
  4  5  1  0  0  0  0
  4  6  1  0  0  0  0
  4  7  1  0  0  0  0
  7  8  1  0  0  0  0
  7  9  1  0  0  0  0
  7 10  1  0  0  0  0
 10 11  1  0  0  0  0
 10 12  1  0  0  0  0
 10 13  1  0  0  0  0
 13 14  1  0  0  0  0
 13 15  1  0  0  0  0
 13 16  1  0  0  0  0
 16 17  1  0  0  0  0
 16 18  1  0  0  0  0
 16 19  1  0  0  0  0
 19 20  1  0  0  0  0
 19 21  1  0  0  0  0
 19 22  1  0  0  0  0
 22 23  1  0  0  0  0
 22 24  1  0  0  0  0
 22 25  1  0  0  0  0
M  END
> <VConfSearch Rank>
433

> <Conf_Id>
20

> <Delta U+W>
3.224

> <U+W>
-48.406

> <U>
10.617

> <W>
-59.023

> <W(PB)>
-61.467

> <W(SA)>
2.444

> <Valence>
11.188

> <Coulomb>
-1.778

> <VdW>
1.208

> <VdW6>
-9.786

> <VdW12>
10.993

> <Bond>
0.241

> <Angle>
3.294

> <Pdih>
7.653

> <Idih>
0.001

> <Tether>
0.000

$$$$
VeraChem MOL file


 25 24  0  0  0  0  0  0  0  0999 V2000     
   18.4713   17.2131   25.5732 C   0  0  0  0  0  0  0  0  0  0  0  0
   17.4890   16.7953   24.9917 O   0  5  0  0  0  0  0  0  0  0  0  0
   18.4255   18.0597   26.4441 O   0  0  0  0  0  0  0  0  0  0  0  0
   19.8282   16.5960   25.2400 C   0  0  0  0  0  0  0  0  0  0  0  0
   19.7634   15.5388   25.5223 H   0  0  0  0  0  0  0  0  0  0  0  0
   20.5927   17.0465   25.8845 H   0  0  0  0  0  0  0  0  0  0  0  0
   20.2542   16.6960   23.7481 C   0  0  0  0  0  0  0  0  0  0  0  0
   21.0203   15.9312   23.5623 H   0  0  0  0  0  0  0  0  0  0  0  0
   19.4062   16.4380   23.0985 H   0  0  0  0  0  0  0  0  0  0  0  0
   20.8447   18.0659   23.3316 C   0  0  0  0  0  0  0  0  0  0  0  0
   21.2454   17.9701   22.3131 H   0  0  0  0  0  0  0  0  0  0  0  0
   21.6988   18.3121   23.9772 H   0  0  0  0  0  0  0  0  0  0  0  0
   19.8238   19.2260   23.3562 C   0  0  0  0  0  0  0  0  0  0  0  0
   18.9239   18.9375   22.7958 H   0  0  0  0  0  0  0  0  0  0  0  0
   19.5099   19.4244   24.3887 H   0  0  0  0  0  0  0  0  0  0  0  0
   20.4150   20.5200   22.7556 C   0  0  0  0  0  0  0  0  0  0  0  0
   20.7255   20.3357   21.7180 H   0  0  0  0  0  0  0  0  0  0  0  0
   21.3173   20.8042   23.3141 H   0  0  0  0  0  0  0  0  0  0  0  0
   19.4002   21.6821   22.7902 C   0  0  0  0  0  0  0  0  0  0  0  0
   18.4966   21.4012   22.2315 H   0  0  0  0  0  0  0  0  0  0  0  0
   19.0885   21.8705   23.8269 H   0  0  0  0  0  0  0  0  0  0  0  0
   19.9934   22.9729   22.1904 C   0  0  0  0  0  0  0  0  0  0  0  0
   20.2849   22.8213   21.1428 H   0  0  0  0  0  0  0  0  0  0  0  0
   19.2587   23.7879   22.2232 H   0  0  0  0  0  0  0  0  0  0  0  0
   20.8814   23.2942   22.7504 H   0  0  0  0  0  0  0  0  0  0  0  0
  1  2  1  0  0  0  0
  1  3  2  0  0  0  0
  1  4  1  0  0  0  0
  4  5  1  0  0  0  0
  4  6  1  0  0  0  0
  4  7  1  0  0  0  0
  7  8  1  0  0  0  0
  7  9  1  0  0  0  0
  7 10  1  0  0  0  0
 10 11  1  0  0  0  0
 10 12  1  0  0  0  0
 10 13  1  0  0  0  0
 13 14  1  0  0  0  0
 13 15  1  0  0  0  0
 13 16  1  0  0  0  0
 16 17  1  0  0  0  0
 16 18  1  0  0  0  0
 16 19  1  0  0  0  0
 19 20  1  0  0  0  0
 19 21  1  0  0  0  0
 19 22  1  0  0  0  0
 22 23  1  0  0  0  0
 22 24  1  0  0  0  0
 22 25  1  0  0  0  0
M  END
> <VConfSearch Rank>
434

> <Conf_Id>
24

> <Delta U+W>
1.784

> <U+W>
-49.846

> <U>
10.904

> <W>
-60.749

> <W(PB)>
-63.220

> <W(SA)>
2.471

> <Valence>
9.445

> <Coulomb>
0.780

> <VdW>
0.679

> <VdW6>
-10.008

> <VdW12>
10.687

> <Bond>
0.201

> <Angle>
3.198

> <Pdih>
6.039

> <Idih>
0.006

> <Tether>
0.000

$$$$
VeraChem MOL file


 25 24  0  0  0  0  0  0  0  0999 V2000     
   22.8457   20.1057   24.9000 C   0  0  0  0  0  0  0  0  0  0  0  0
   23.7595   19.5298   24.3424 O   0  5  0  0  0  0  0  0  0  0  0  0
   22.5234   21.2509   24.6509 O   0  0  0  0  0  0  0  0  0  0  0  0
   22.1050   19.3768   26.0195 C   0  0  0  0  0  0  0  0  0  0  0  0
   21.3519   20.0503   26.4463 H   0  0  0  0  0  0  0  0  0  0  0  0
   22.8435   19.1921   26.8082 H   0  0  0  0  0  0  0  0  0  0  0  0
   21.4510   18.0263   25.6126 C   0  0  0  0  0  0  0  0  0  0  0  0
   22.1515   17.4399   25.0019 H   0  0  0  0  0  0  0  0  0  0  0  0
   21.2848   17.4409   26.5270 H   0  0  0  0  0  0  0  0  0  0  0  0
   20.0911   18.1569   24.8827 C   0  0  0  0  0  0  0  0  0  0  0  0
   19.3921   18.7336   25.5036 H   0  0  0  0  0  0  0  0  0  0  0  0
   19.6585   17.1519   24.7833 H   0  0  0  0  0  0  0  0  0  0  0  0
   20.1881   18.7966   23.4791 C   0  0  0  0  0  0  0  0  0  0  0  0
   20.4937   19.8467   23.5684 H   0  0  0  0  0  0  0  0  0  0  0  0
   20.9633   18.2844   22.8929 H   0  0  0  0  0  0  0  0  0  0  0  0
   18.8413   18.7297   22.7266 C   0  0  0  0  0  0  0  0  0  0  0  0
   18.0664   19.2382   23.3165 H   0  0  0  0  0  0  0  0  0  0  0  0
   18.5290   17.6815   22.6236 H   0  0  0  0  0  0  0  0  0  0  0  0
   18.9340   19.3785   21.3295 C   0  0  0  0  0  0  0  0  0  0  0  0
   19.2445   20.4279   21.4287 H   0  0  0  0  0  0  0  0  0  0  0  0
   19.7080   18.8716   20.7366 H   0  0  0  0  0  0  0  0  0  0  0  0
   17.5878   19.3106   20.5806 C   0  0  0  0  0  0  0  0  0  0  0  0
   16.8018   19.8377   21.1371 H   0  0  0  0  0  0  0  0  0  0  0  0
   17.6722   19.7762   19.5901 H   0  0  0  0  0  0  0  0  0  0  0  0
   17.2688   18.2695   20.4397 H   0  0  0  0  0  0  0  0  0  0  0  0
  1  2  1  0  0  0  0
  1  3  2  0  0  0  0
  1  4  1  0  0  0  0
  4  5  1  0  0  0  0
  4  6  1  0  0  0  0
  4  7  1  0  0  0  0
  7  8  1  0  0  0  0
  7  9  1  0  0  0  0
  7 10  1  0  0  0  0
 10 11  1  0  0  0  0
 10 12  1  0  0  0  0
 10 13  1  0  0  0  0
 13 14  1  0  0  0  0
 13 15  1  0  0  0  0
 13 16  1  0  0  0  0
 16 17  1  0  0  0  0
 16 18  1  0  0  0  0
 16 19  1  0  0  0  0
 19 20  1  0  0  0  0
 19 21  1  0  0  0  0
 19 22  1  0  0  0  0
 22 23  1  0  0  0  0
 22 24  1  0  0  0  0
 22 25  1  0  0  0  0
M  END
> <VConfSearch Rank>
435

> <Conf_Id>
9

> <Delta U+W>
1.764

> <U+W>
-49.865

> <U>
10.902

> <W>
-60.768

> <W(PB)>
-63.223

> <W(SA)>
2.456

> <Valence>
9.445

> <Coulomb>
0.778

> <VdW>
0.679

> <VdW6>
-10.007

> <VdW12>
10.687

> <Bond>
0.201

> <Angle>
3.198

> <Pdih>
6.040

> <Idih>
0.006

> <Tether>
0.000

$$$$
VeraChem MOL file


 25 24  0  0  0  0  0  0  0  0999 V2000     
   19.4836   17.0817   20.3848 C   0  0  0  0  0  0  0  0  0  0  0  0
   20.1342   16.1714   20.8589 O   0  5  0  0  0  0  0  0  0  0  0  0
   18.7514   16.9564   19.4231 O   0  0  0  0  0  0  0  0  0  0  0  0
   19.5752   18.4525   21.0454 C   0  0  0  0  0  0  0  0  0  0  0  0
   19.4590   19.2127   20.2638 H   0  0  0  0  0  0  0  0  0  0  0  0
   20.5863   18.5624   21.4493 H   0  0  0  0  0  0  0  0  0  0  0  0
   18.5054   18.6582   22.1503 C   0  0  0  0  0  0  0  0  0  0  0  0
   17.5155   18.5439   21.6871 H   0  0  0  0  0  0  0  0  0  0  0  0
   18.5830   17.8632   22.9049 H   0  0  0  0  0  0  0  0  0  0  0  0
   18.5769   20.0502   22.8283 C   0  0  0  0  0  0  0  0  0  0  0  0
   17.5522   20.3663   23.0672 H   0  0  0  0  0  0  0  0  0  0  0  0
   18.9630   20.7987   22.1230 H   0  0  0  0  0  0  0  0  0  0  0  0
   19.3932   20.0869   24.1447 C   0  0  0  0  0  0  0  0  0  0  0  0
   19.3054   21.0928   24.5770 H   0  0  0  0  0  0  0  0  0  0  0  0
   18.9370   19.3985   24.8682 H   0  0  0  0  0  0  0  0  0  0  0  0
   20.8919   19.7440   23.9726 C   0  0  0  0  0  0  0  0  0  0  0  0
   21.3017   20.3313   23.1398 H   0  0  0  0  0  0  0  0  0  0  0  0
   21.0017   18.6859   23.7011 H   0  0  0  0  0  0  0  0  0  0  0  0
   21.7338   20.0288   25.2381 C   0  0  0  0  0  0  0  0  0  0  0  0
   22.7930   19.8544   25.0039 H   0  0  0  0  0  0  0  0  0  0  0  0
   21.6471   21.0896   25.5108 H   0  0  0  0  0  0  0  0  0  0  0  0
   21.3385   19.1487   26.4438 C   0  0  0  0  0  0  0  0  0  0  0  0
   21.3934   18.0829   26.1866 H   0  0  0  0  0  0  0  0  0  0  0  0
   22.0156   19.3281   27.2888 H   0  0  0  0  0  0  0  0  0  0  0  0
   20.3184   19.3691   26.7823 H   0  0  0  0  0  0  0  0  0  0  0  0
  1  2  1  0  0  0  0
  1  3  2  0  0  0  0
  1  4  1  0  0  0  0
  4  5  1  0  0  0  0
  4  6  1  0  0  0  0
  4  7  1  0  0  0  0
  7  8  1  0  0  0  0
  7  9  1  0  0  0  0
  7 10  1  0  0  0  0
 10 11  1  0  0  0  0
 10 12  1  0  0  0  0
 10 13  1  0  0  0  0
 13 14  1  0  0  0  0
 13 15  1  0  0  0  0
 13 16  1  0  0  0  0
 16 17  1  0  0  0  0
 16 18  1  0  0  0  0
 16 19  1  0  0  0  0
 19 20  1  0  0  0  0
 19 21  1  0  0  0  0
 19 22  1  0  0  0  0
 22 23  1  0  0  0  0
 22 24  1  0  0  0  0
 22 25  1  0  0  0  0
M  END
> <VConfSearch Rank>
436

> <Conf_Id>
89

> <Delta U+W>
2.903

> <U+W>
-48.726

> <U>
10.996

> <W>
-59.723

> <W(PB)>
-62.151

> <W(SA)>
2.428

> <Valence>
10.985

> <Coulomb>
-0.995

> <VdW>
1.006

> <VdW6>
-10.062

> <VdW12>
11.069

> <Bond>
0.238

> <Angle>
3.202

> <Pdih>
7.544

> <Idih>
0.001

> <Tether>
0.000

$$$$
VeraChem MOL file


 25 24  0  0  0  0  0  0  0  0999 V2000     
   21.5156   20.4552   26.3016 C   0  0  0  0  0  0  0  0  0  0  0  0
   22.6730   20.1399   26.1060 O   0  5  0  0  0  0  0  0  0  0  0  0
   21.1278   21.6071   26.3165 O   0  0  0  0  0  0  0  0  0  0  0  0
   20.5098   19.3473   26.6084 C   0  0  0  0  0  0  0  0  0  0  0  0
   20.1696   19.5173   27.6365 H   0  0  0  0  0  0  0  0  0  0  0  0
   21.0302   18.3819   26.6060 H   0  0  0  0  0  0  0  0  0  0  0  0
   19.2720   19.2951   25.6688 C   0  0  0  0  0  0  0  0  0  0  0  0
   18.4728   18.7541   26.1932 H   0  0  0  0  0  0  0  0  0  0  0  0
   18.8872   20.3101   25.4982 H   0  0  0  0  0  0  0  0  0  0  0  0
   19.5109   18.5828   24.3140 C   0  0  0  0  0  0  0  0  0  0  0  0
   18.5358   18.4620   23.8260 H   0  0  0  0  0  0  0  0  0  0  0  0
   19.8949   17.5692   24.4922 H   0  0  0  0  0  0  0  0  0  0  0  0
   20.4682   19.3419   23.3633 C   0  0  0  0  0  0  0  0  0  0  0  0
   20.1210   20.3756   23.2305 H   0  0  0  0  0  0  0  0  0  0  0  0
   21.4614   19.4033   23.8243 H   0  0  0  0  0  0  0  0  0  0  0  0
   20.6312   18.6654   21.9808 C   0  0  0  0  0  0  0  0  0  0  0  0
   20.9470   17.6220   22.1161 H   0  0  0  0  0  0  0  0  0  0  0  0
   21.4469   19.1689   21.4441 H   0  0  0  0  0  0  0  0  0  0  0  0
   19.3554   18.7178   21.1096 C   0  0  0  0  0  0  0  0  0  0  0  0
   18.5459   18.1499   21.5860 H   0  0  0  0  0  0  0  0  0  0  0  0
   19.0095   19.7569   21.0213 H   0  0  0  0  0  0  0  0  0  0  0  0
   19.6087   18.1415   19.7017 C   0  0  0  0  0  0  0  0  0  0  0  0
   19.9304   17.0934   19.7588 H   0  0  0  0  0  0  0  0  0  0  0  0
   18.6937   18.1828   19.0966 H   0  0  0  0  0  0  0  0  0  0  0  0
   20.3872   18.7113   19.1777 H   0  0  0  0  0  0  0  0  0  0  0  0
  1  2  1  0  0  0  0
  1  3  2  0  0  0  0
  1  4  1  0  0  0  0
  4  5  1  0  0  0  0
  4  6  1  0  0  0  0
  4  7  1  0  0  0  0
  7  8  1  0  0  0  0
  7  9  1  0  0  0  0
  7 10  1  0  0  0  0
 10 11  1  0  0  0  0
 10 12  1  0  0  0  0
 10 13  1  0  0  0  0
 13 14  1  0  0  0  0
 13 15  1  0  0  0  0
 13 16  1  0  0  0  0
 16 17  1  0  0  0  0
 16 18  1  0  0  0  0
 16 19  1  0  0  0  0
 19 20  1  0  0  0  0
 19 21  1  0  0  0  0
 19 22  1  0  0  0  0
 22 23  1  0  0  0  0
 22 24  1  0  0  0  0
 22 25  1  0  0  0  0
M  END
> <VConfSearch Rank>
437

> <Conf_Id>
114

> <Delta U+W>
2.758

> <U+W>
-48.871

> <U>
11.422

> <W>
-60.293

> <W(PB)>
-62.719

> <W(SA)>
2.425

> <Valence>
10.135

> <Coulomb>
0.369

> <VdW>
0.918

> <VdW6>
-10.482

> <VdW12>
11.400

> <Bond>
0.245

> <Angle>
3.539

> <Pdih>
6.346

> <Idih>
0.006

> <Tether>
0.000

$$$$
VeraChem MOL file


 25 24  0  0  0  0  0  0  0  0999 V2000     
   17.8609   16.5369   25.0152 C   0  0  0  0  0  0  0  0  0  0  0  0
   17.9552   15.5304   24.3404 O   0  5  0  0  0  0  0  0  0  0  0  0
   18.1592   16.5881   26.1922 O   0  0  0  0  0  0  0  0  0  0  0  0
   17.3190   17.8017   24.3553 C   0  0  0  0  0  0  0  0  0  0  0  0
   16.5828   18.2395   25.0396 H   0  0  0  0  0  0  0  0  0  0  0  0
   16.7767   17.5170   23.4456 H   0  0  0  0  0  0  0  0  0  0  0  0
   18.4084   18.8544   24.0236 C   0  0  0  0  0  0  0  0  0  0  0  0
   17.9206   19.7749   23.6757 H   0  0  0  0  0  0  0  0  0  0  0  0
   18.9478   19.1091   24.9453 H   0  0  0  0  0  0  0  0  0  0  0  0
   19.3985   18.3604   22.9415 C   0  0  0  0  0  0  0  0  0  0  0  0
   18.8281   18.0236   22.0651 H   0  0  0  0  0  0  0  0  0  0  0  0
   19.9465   17.4819   23.3093 H   0  0  0  0  0  0  0  0  0  0  0  0
   20.4060   19.4421   22.4838 C   0  0  0  0  0  0  0  0  0  0  0  0
   20.9595   19.0465   21.6228 H   0  0  0  0  0  0  0  0  0  0  0  0
   19.8604   20.3250   22.1243 H   0  0  0  0  0  0  0  0  0  0  0  0
   21.4065   19.8598   23.5897 C   0  0  0  0  0  0  0  0  0  0  0  0
   21.9493   18.9759   23.9513 H   0  0  0  0  0  0  0  0  0  0  0  0
   20.8547   20.2598   24.4496 H   0  0  0  0  0  0  0  0  0  0  0  0
   22.4180   20.9354   23.1288 C   0  0  0  0  0  0  0  0  0  0  0  0
   21.8784   21.8168   22.7555 H   0  0  0  0  0  0  0  0  0  0  0  0
   22.9948   21.2719   24.0014 H   0  0  0  0  0  0  0  0  0  0  0  0
   23.4018   20.4318   22.0501 C   0  0  0  0  0  0  0  0  0  0  0  0
   24.1549   21.1994   21.8297 H   0  0  0  0  0  0  0  0  0  0  0  0
   23.9280   19.5298   22.3885 H   0  0  0  0  0  0  0  0  0  0  0  0
   22.8838   20.1973   21.1119 H   0  0  0  0  0  0  0  0  0  0  0  0
  1  2  1  0  0  0  0
  1  3  2  0  0  0  0
  1  4  1  0  0  0  0
  4  5  1  0  0  0  0
  4  6  1  0  0  0  0
  4  7  1  0  0  0  0
  7  8  1  0  0  0  0
  7  9  1  0  0  0  0
  7 10  1  0  0  0  0
 10 11  1  0  0  0  0
 10 12  1  0  0  0  0
 10 13  1  0  0  0  0
 13 14  1  0  0  0  0
 13 15  1  0  0  0  0
 13 16  1  0  0  0  0
 16 17  1  0  0  0  0
 16 18  1  0  0  0  0
 16 19  1  0  0  0  0
 19 20  1  0  0  0  0
 19 21  1  0  0  0  0
 19 22  1  0  0  0  0
 22 23  1  0  0  0  0
 22 24  1  0  0  0  0
 22 25  1  0  0  0  0
M  END
> <VConfSearch Rank>
438

> <Conf_Id>
87

> <Delta U+W>
1.453

> <U+W>
-50.176

> <U>
9.763

> <W>
-59.940

> <W(PB)>
-62.392

> <W(SA)>
2.452

> <Valence>
8.883

> <Coulomb>
-0.122

> <VdW>
1.003

> <VdW6>
-9.782

> <VdW12>
10.785

> <Bond>
0.212

> <Angle>
2.940

> <Pdih>
5.730

> <Idih>
0.001

> <Tether>
0.000

$$$$
VeraChem MOL file


 25 24  0  0  0  0  0  0  0  0999 V2000     
   20.8816   20.6243   19.7744 C   0  0  0  0  0  0  0  0  0  0  0  0
   21.0083   19.6236   19.0966 O   0  5  0  0  0  0  0  0  0  0  0  0
   20.4501   21.6768   19.3469 O   0  0  0  0  0  0  0  0  0  0  0  0
   21.2681   20.5500   21.2472 C   0  0  0  0  0  0  0  0  0  0  0  0
   21.6463   21.5337   21.5501 H   0  0  0  0  0  0  0  0  0  0  0  0
   22.0969   19.8388   21.3465 H   0  0  0  0  0  0  0  0  0  0  0  0
   20.0893   20.1260   22.1575 C   0  0  0  0  0  0  0  0  0  0  0  0
   19.2642   20.8420   22.0412 H   0  0  0  0  0  0  0  0  0  0  0  0
   19.7157   19.1492   21.8228 H   0  0  0  0  0  0  0  0  0  0  0  0
   20.5100   20.0517   23.6435 C   0  0  0  0  0  0  0  0  0  0  0  0
   20.9448   21.0158   23.9404 H   0  0  0  0  0  0  0  0  0  0  0  0
   21.3073   19.3072   23.7673 H   0  0  0  0  0  0  0  0  0  0  0  0
   19.3355   19.7308   24.6015 C   0  0  0  0  0  0  0  0  0  0  0  0
   19.7044   19.7553   25.6353 H   0  0  0  0  0  0  0  0  0  0  0  0
   18.5921   20.5365   24.5326 H   0  0  0  0  0  0  0  0  0  0  0  0
   18.6223   18.3767   24.3455 C   0  0  0  0  0  0  0  0  0  0  0  0
   18.1119   18.4127   23.3742 H   0  0  0  0  0  0  0  0  0  0  0  0
   17.8274   18.2532   25.0933 H   0  0  0  0  0  0  0  0  0  0  0  0
   19.5405   17.1302   24.3839 C   0  0  0  0  0  0  0  0  0  0  0  0
   18.9333   16.2411   24.1655 H   0  0  0  0  0  0  0  0  0  0  0  0
   20.2911   17.1891   23.5846 H   0  0  0  0  0  0  0  0  0  0  0  0
   20.2421   16.9309   25.7448 C   0  0  0  0  0  0  0  0  0  0  0  0
   19.5099   16.8857   26.5613 H   0  0  0  0  0  0  0  0  0  0  0  0
   20.8130   15.9935   25.7493 H   0  0  0  0  0  0  0  0  0  0  0  0
   20.9429   17.7486   25.9553 H   0  0  0  0  0  0  0  0  0  0  0  0
  1  2  1  0  0  0  0
  1  3  2  0  0  0  0
  1  4  1  0  0  0  0
  4  5  1  0  0  0  0
  4  6  1  0  0  0  0
  4  7  1  0  0  0  0
  7  8  1  0  0  0  0
  7  9  1  0  0  0  0
  7 10  1  0  0  0  0
 10 11  1  0  0  0  0
 10 12  1  0  0  0  0
 10 13  1  0  0  0  0
 13 14  1  0  0  0  0
 13 15  1  0  0  0  0
 13 16  1  0  0  0  0
 16 17  1  0  0  0  0
 16 18  1  0  0  0  0
 16 19  1  0  0  0  0
 19 20  1  0  0  0  0
 19 21  1  0  0  0  0
 19 22  1  0  0  0  0
 22 23  1  0  0  0  0
 22 24  1  0  0  0  0
 22 25  1  0  0  0  0
M  END
> <VConfSearch Rank>
439

> <Conf_Id>
29

> <Delta U+W>
0.850

> <U+W>
-50.780

> <U>
8.646

> <W>
-59.426

> <W(PB)>
-61.868

> <W(SA)>
2.442

> <Valence>
8.924

> <Coulomb>
-1.171

> <VdW>
0.894

> <VdW6>
-10.223

> <VdW12>
11.117

> <Bond>
0.231

> <Angle>
3.232

> <Pdih>
5.461

> <Idih>
0.001

> <Tether>
0.000

$$$$
VeraChem MOL file


 25 24  0  0  0  0  0  0  0  0999 V2000     
   21.5515   15.5584   22.9227 C   0  0  0  0  0  0  0  0  0  0  0  0
   21.6249   15.1832   24.0762 O   0  5  0  0  0  0  0  0  0  0  0  0
   22.3375   15.2291   22.0564 O   0  0  0  0  0  0  0  0  0  0  0  0
   20.4218   16.5100   22.5456 C   0  0  0  0  0  0  0  0  0  0  0  0
   19.5543   16.2749   23.1740 H   0  0  0  0  0  0  0  0  0  0  0  0
   20.1357   16.3045   21.5072 H   0  0  0  0  0  0  0  0  0  0  0  0
   20.8108   17.9999   22.7090 C   0  0  0  0  0  0  0  0  0  0  0  0
   21.1118   18.1762   23.7502 H   0  0  0  0  0  0  0  0  0  0  0  0
   21.6853   18.2185   22.0809 H   0  0  0  0  0  0  0  0  0  0  0  0
   19.6458   18.9422   22.3273 C   0  0  0  0  0  0  0  0  0  0  0  0
   18.7846   18.7521   22.9811 H   0  0  0  0  0  0  0  0  0  0  0  0
   19.3128   18.7039   21.3080 H   0  0  0  0  0  0  0  0  0  0  0  0
   20.0251   20.4435   22.3781 C   0  0  0  0  0  0  0  0  0  0  0  0
   20.8240   20.6317   21.6482 H   0  0  0  0  0  0  0  0  0  0  0  0
   19.1668   21.0376   22.0382 H   0  0  0  0  0  0  0  0  0  0  0  0
   20.4894   20.9633   23.7645 C   0  0  0  0  0  0  0  0  0  0  0  0
   20.7098   22.0360   23.6799 H   0  0  0  0  0  0  0  0  0  0  0  0
   21.4412   20.4858   24.0315 H   0  0  0  0  0  0  0  0  0  0  0  0
   19.4802   20.7516   24.9199 C   0  0  0  0  0  0  0  0  0  0  0  0
   19.3117   19.6787   25.0825 H   0  0  0  0  0  0  0  0  0  0  0  0
   19.9260   21.1332   25.8486 H   0  0  0  0  0  0  0  0  0  0  0  0
   18.1293   21.4625   24.6881 C   0  0  0  0  0  0  0  0  0  0  0  0
   17.5978   21.0372   23.8276 H   0  0  0  0  0  0  0  0  0  0  0  0
   17.4814   21.3528   25.5673 H   0  0  0  0  0  0  0  0  0  0  0  0
   18.2760   22.5351   24.5070 H   0  0  0  0  0  0  0  0  0  0  0  0
  1  2  1  0  0  0  0
  1  3  2  0  0  0  0
  1  4  1  0  0  0  0
  4  5  1  0  0  0  0
  4  6  1  0  0  0  0
  4  7  1  0  0  0  0
  7  8  1  0  0  0  0
  7  9  1  0  0  0  0
  7 10  1  0  0  0  0
 10 11  1  0  0  0  0
 10 12  1  0  0  0  0
 10 13  1  0  0  0  0
 13 14  1  0  0  0  0
 13 15  1  0  0  0  0
 13 16  1  0  0  0  0
 16 17  1  0  0  0  0
 16 18  1  0  0  0  0
 16 19  1  0  0  0  0
 19 20  1  0  0  0  0
 19 21  1  0  0  0  0
 19 22  1  0  0  0  0
 22 23  1  0  0  0  0
 22 24  1  0  0  0  0
 22 25  1  0  0  0  0
M  END
> <VConfSearch Rank>
440

> <Conf_Id>
30

> <Delta U+W>
0.843

> <U+W>
-50.787

> <U>
8.647

> <W>
-59.434

> <W(PB)>
-61.861

> <W(SA)>
2.428

> <Valence>
8.924

> <Coulomb>
-1.170

> <VdW>
0.894

> <VdW6>
-10.224

> <VdW12>
11.118

> <Bond>
0.231

> <Angle>
3.232

> <Pdih>
5.460

> <Idih>
0.000

> <Tether>
0.000

$$$$
VeraChem MOL file


 25 24  0  0  0  0  0  0  0  0999 V2000     
   16.3028   17.8742   25.6232 C   0  0  0  0  0  0  0  0  0  0  0  0
   15.7252   18.9294   25.4455 O   0  5  0  0  0  0  0  0  0  0  0  0
   15.8316   16.9603   26.2704 O   0  0  0  0  0  0  0  0  0  0  0  0
   17.6898   17.6571   25.0162 C   0  0  0  0  0  0  0  0  0  0  0  0
   17.6321   16.7667   24.3792 H   0  0  0  0  0  0  0  0  0  0  0  0
   18.3733   17.4190   25.8396 H   0  0  0  0  0  0  0  0  0  0  0  0
   18.2492   18.8517   24.1986 C   0  0  0  0  0  0  0  0  0  0  0  0
   17.5564   19.0889   23.3793 H   0  0  0  0  0  0  0  0  0  0  0  0
   18.2984   19.7418   24.8411 H   0  0  0  0  0  0  0  0  0  0  0  0
   19.6498   18.5482   23.6233 C   0  0  0  0  0  0  0  0  0  0  0  0
   19.5982   17.6580   22.9815 H   0  0  0  0  0  0  0  0  0  0  0  0
   20.3406   18.3113   24.4441 H   0  0  0  0  0  0  0  0  0  0  0  0
   20.2043   19.7378   22.8104 C   0  0  0  0  0  0  0  0  0  0  0  0
   19.5137   19.9750   21.9895 H   0  0  0  0  0  0  0  0  0  0  0  0
   20.2561   20.6282   23.4520 H   0  0  0  0  0  0  0  0  0  0  0  0
   21.6047   19.4351   22.2348 C   0  0  0  0  0  0  0  0  0  0  0  0
   21.5532   18.5448   21.5932 H   0  0  0  0  0  0  0  0  0  0  0  0
   22.2955   19.1981   23.0556 H   0  0  0  0  0  0  0  0  0  0  0  0
   22.1591   20.6241   21.4222 C   0  0  0  0  0  0  0  0  0  0  0  0
   21.4715   20.8629   20.5990 H   0  0  0  0  0  0  0  0  0  0  0  0
   22.2138   21.5162   22.0615 H   0  0  0  0  0  0  0  0  0  0  0  0
   23.5574   20.3179   20.8492 C   0  0  0  0  0  0  0  0  0  0  0  0
   23.5260   19.4478   20.1803 H   0  0  0  0  0  0  0  0  0  0  0  0
   23.9360   21.1734   20.2748 H   0  0  0  0  0  0  0  0  0  0  0  0
   24.2739   20.1061   21.6537 H   0  0  0  0  0  0  0  0  0  0  0  0
  1  2  1  0  0  0  0
  1  3  2  0  0  0  0
  1  4  1  0  0  0  0
  4  5  1  0  0  0  0
  4  6  1  0  0  0  0
  4  7  1  0  0  0  0
  7  8  1  0  0  0  0
  7  9  1  0  0  0  0
  7 10  1  0  0  0  0
 10 11  1  0  0  0  0
 10 12  1  0  0  0  0
 10 13  1  0  0  0  0
 13 14  1  0  0  0  0
 13 15  1  0  0  0  0
 13 16  1  0  0  0  0
 16 17  1  0  0  0  0
 16 18  1  0  0  0  0
 16 19  1  0  0  0  0
 19 20  1  0  0  0  0
 19 21  1  0  0  0  0
 19 22  1  0  0  0  0
 22 23  1  0  0  0  0
 22 24  1  0  0  0  0
 22 25  1  0  0  0  0
M  END
> <VConfSearch Rank>
441

> <Conf_Id>
0

> <Delta U+W>
0.000

> <U+W>
-51.629

> <U>
6.586

> <W>
-58.216

> <W(PB)>
-60.757

> <W(SA)>
2.541

> <Valence>
8.027

> <Coulomb>
-2.892

> <VdW>
1.451

> <VdW6>
-7.931

> <VdW12>
9.383

> <Bond>
0.149

> <Angle>
2.726

> <Pdih>
5.152

> <Idih>
0.000

> <Tether>
0.000

$$$$
VeraChem MOL file


 25 24  0  0  0  0  0  0  0  0999 V2000     
   17.2422   22.6033   24.4130 C   0  0  0  0  0  0  0  0  0  0  0  0
   17.6578   23.2933   25.3228 O   0  5  0  0  0  0  0  0  0  0  0  0
   16.5339   23.0227   23.5191 O   0  0  0  0  0  0  0  0  0  0  0  0
   17.6509   21.1351   24.3785 C   0  0  0  0  0  0  0  0  0  0  0  0
   16.8313   20.5638   23.9263 H   0  0  0  0  0  0  0  0  0  0  0  0
   17.7569   20.7867   25.4129 H   0  0  0  0  0  0  0  0  0  0  0  0
   18.9655   20.8951   23.5960 C   0  0  0  0  0  0  0  0  0  0  0  0
   18.8471   21.2612   22.5667 H   0  0  0  0  0  0  0  0  0  0  0  0
   19.7727   21.4842   24.0532 H   0  0  0  0  0  0  0  0  0  0  0  0
   19.3580   19.4019   23.5756 C   0  0  0  0  0  0  0  0  0  0  0  0
   18.5486   18.8157   23.1190 H   0  0  0  0  0  0  0  0  0  0  0  0
   19.4742   19.0386   24.6060 H   0  0  0  0  0  0  0  0  0  0  0  0
   20.6689   19.1657   22.7950 C   0  0  0  0  0  0  0  0  0  0  0  0
   20.5528   19.5288   21.7646 H   0  0  0  0  0  0  0  0  0  0  0  0
   21.4783   19.7518   23.2514 H   0  0  0  0  0  0  0  0  0  0  0  0
   21.0620   17.6728   22.7742 C   0  0  0  0  0  0  0  0  0  0  0  0
   20.2527   17.0864   22.3178 H   0  0  0  0  0  0  0  0  0  0  0  0
   21.1781   17.3094   23.8046 H   0  0  0  0  0  0  0  0  0  0  0  0
   22.3723   17.4366   21.9941 C   0  0  0  0  0  0  0  0  0  0  0  0
   22.2593   17.7972   20.9623 H   0  0  0  0  0  0  0  0  0  0  0  0
   23.1847   18.0201   22.4491 H   0  0  0  0  0  0  0  0  0  0  0  0
   22.7615   15.9447   21.9756 C   0  0  0  0  0  0  0  0  0  0  0  0
   23.6947   15.7951   21.4172 H   0  0  0  0  0  0  0  0  0  0  0  0
   22.9119   15.5653   22.9949 H   0  0  0  0  0  0  0  0  0  0  0  0
   21.9796   15.3406   21.4969 H   0  0  0  0  0  0  0  0  0  0  0  0
  1  2  1  0  0  0  0
  1  3  2  0  0  0  0
  1  4  1  0  0  0  0
  4  5  1  0  0  0  0
  4  6  1  0  0  0  0
  4  7  1  0  0  0  0
  7  8  1  0  0  0  0
  7  9  1  0  0  0  0
  7 10  1  0  0  0  0
 10 11  1  0  0  0  0
 10 12  1  0  0  0  0
 10 13  1  0  0  0  0
 13 14  1  0  0  0  0
 13 15  1  0  0  0  0
 13 16  1  0  0  0  0
 16 17  1  0  0  0  0
 16 18  1  0  0  0  0
 16 19  1  0  0  0  0
 19 20  1  0  0  0  0
 19 21  1  0  0  0  0
 19 22  1  0  0  0  0
 22 23  1  0  0  0  0
 22 24  1  0  0  0  0
 22 25  1  0  0  0  0
M  END
> <VConfSearch Rank>
442

> <Conf_Id>
27

> <Delta U+W>
-1.297

> <U+W>
-52.926

> <U>
5.617

> <W>
-58.543

> <W(PB)>
-61.065

> <W(SA)>
2.522

> <Valence>
7.531

> <Coulomb>
-2.818

> <VdW>
0.904

> <VdW6>
-7.640

> <VdW12>
8.544

> <Bond>
0.115

> <Angle>
2.271

> <Pdih>
5.144

> <Idih>
0.001

> <Tether>
0.000

$$$$
VeraChem MOL file


 25 24  0  0  0  0  0  0  0  0999 V2000     
   21.4867   17.2335   19.9963 C   0  0  0  0  0  0  0  0  0  0  0  0
   22.5169   17.6925   19.5434 O   0  5  0  0  0  0  0  0  0  0  0  0
   21.3968   16.1154   20.4641 O   0  0  0  0  0  0  0  0  0  0  0  0
   20.2344   18.1048   19.9592 C   0  0  0  0  0  0  0  0  0  0  0  0
   19.3550   17.4588   20.0699 H   0  0  0  0  0  0  0  0  0  0  0  0
   20.1758   18.5523   18.9601 H   0  0  0  0  0  0  0  0  0  0  0  0
   20.2142   19.2255   21.0310 C   0  0  0  0  0  0  0  0  0  0  0  0
   21.1144   19.8468   20.9248 H   0  0  0  0  0  0  0  0  0  0  0  0
   19.3534   19.8817   20.8443 H   0  0  0  0  0  0  0  0  0  0  0  0
   20.1285   18.6698   22.4703 C   0  0  0  0  0  0  0  0  0  0  0  0
   20.9960   18.0258   22.6708 H   0  0  0  0  0  0  0  0  0  0  0  0
   19.2345   18.0387   22.5675 H   0  0  0  0  0  0  0  0  0  0  0  0
   20.0775   19.8023   23.5184 C   0  0  0  0  0  0  0  0  0  0  0  0
   20.9719   20.4329   23.4205 H   0  0  0  0  0  0  0  0  0  0  0  0
   19.2090   20.4459   23.3217 H   0  0  0  0  0  0  0  0  0  0  0  0
   19.9927   19.2478   24.9568 C   0  0  0  0  0  0  0  0  0  0  0  0
   20.8611   18.6041   25.1537 H   0  0  0  0  0  0  0  0  0  0  0  0
   19.0986   18.6169   25.0549 H   0  0  0  0  0  0  0  0  0  0  0  0
   19.9422   20.3794   26.0048 C   0  0  0  0  0  0  0  0  0  0  0  0
   20.8361   21.0115   25.9109 H   0  0  0  0  0  0  0  0  0  0  0  0
   19.0736   21.0242   25.8121 H   0  0  0  0  0  0  0  0  0  0  0  0
   19.8578   19.8215   27.4398 C   0  0  0  0  0  0  0  0  0  0  0  0
   20.7311   19.1974   27.6706 H   0  0  0  0  0  0  0  0  0  0  0  0
   19.8227   20.6391   28.1714 H   0  0  0  0  0  0  0  0  0  0  0  0
   18.9553   19.2102   27.5712 H   0  0  0  0  0  0  0  0  0  0  0  0
  1  2  1  0  0  0  0
  1  3  2  0  0  0  0
  1  4  1  0  0  0  0
  4  5  1  0  0  0  0
  4  6  1  0  0  0  0
  4  7  1  0  0  0  0
  7  8  1  0  0  0  0
  7  9  1  0  0  0  0
  7 10  1  0  0  0  0
 10 11  1  0  0  0  0
 10 12  1  0  0  0  0
 10 13  1  0  0  0  0
 13 14  1  0  0  0  0
 13 15  1  0  0  0  0
 13 16  1  0  0  0  0
 16 17  1  0  0  0  0
 16 18  1  0  0  0  0
 16 19  1  0  0  0  0
 19 20  1  0  0  0  0
 19 21  1  0  0  0  0
 19 22  1  0  0  0  0
 22 23  1  0  0  0  0
 22 24  1  0  0  0  0
 22 25  1  0  0  0  0
M  END
> <VConfSearch Rank>
443

> <Conf_Id>
37

> <Delta U+W>
-0.230

> <U+W>
-51.860

> <U>
7.816

> <W>
-59.675

> <W(PB)>
-62.180

> <W(SA)>
2.505

> <Valence>
7.785

> <Coulomb>
-0.713

> <VdW>
0.744

> <VdW6>
-8.514

> <VdW12>
9.259

> <Bond>
0.136

> <Angle>
2.433

> <Pdih>
5.216

> <Idih>
0.000

> <Tether>
0.000

$$$$
VeraChem MOL file


 25 24  0  0  0  0  0  0  0  0999 V2000     
   20.6545   21.8499   20.2587 C   0  0  0  0  0  0  0  0  0  0  0  0
   19.9147   21.6669   19.3120 O   0  5  0  0  0  0  0  0  0  0  0  0
   21.8527   21.6499   20.2247 O   0  0  0  0  0  0  0  0  0  0  0  0
   20.0454   22.3751   21.5557 C   0  0  0  0  0  0  0  0  0  0  0  0
   19.3722   23.1991   21.2917 H   0  0  0  0  0  0  0  0  0  0  0  0
   20.8464   22.8038   22.1701 H   0  0  0  0  0  0  0  0  0  0  0  0
   19.2644   21.3062   22.3634 C   0  0  0  0  0  0  0  0  0  0  0  0
   18.7494   21.7976   23.2000 H   0  0  0  0  0  0  0  0  0  0  0  0
   18.4843   20.8667   21.7262 H   0  0  0  0  0  0  0  0  0  0  0  0
   20.1807   20.1904   22.9139 C   0  0  0  0  0  0  0  0  0  0  0  0
   20.9665   20.6360   23.5392 H   0  0  0  0  0  0  0  0  0  0  0  0
   20.6865   19.6822   22.0813 H   0  0  0  0  0  0  0  0  0  0  0  0
   19.3878   19.1553   23.7407 C   0  0  0  0  0  0  0  0  0  0  0  0
   18.8835   19.6608   24.5757 H   0  0  0  0  0  0  0  0  0  0  0  0
   18.6023   18.7102   23.1146 H   0  0  0  0  0  0  0  0  0  0  0  0
   20.3026   18.0397   24.2905 C   0  0  0  0  0  0  0  0  0  0  0  0
   21.0884   18.4846   24.9165 H   0  0  0  0  0  0  0  0  0  0  0  0
   20.8072   17.5342   23.4556 H   0  0  0  0  0  0  0  0  0  0  0  0
   19.5104   17.0045   25.1165 C   0  0  0  0  0  0  0  0  0  0  0  0
   19.0058   17.5064   25.9537 H   0  0  0  0  0  0  0  0  0  0  0  0
   18.7247   16.5559   24.4928 H   0  0  0  0  0  0  0  0  0  0  0  0
   20.4276   15.8923   25.6636 C   0  0  0  0  0  0  0  0  0  0  0  0
   21.2047   16.3100   26.3170 H   0  0  0  0  0  0  0  0  0  0  0  0
   19.8483   15.1655   26.2478 H   0  0  0  0  0  0  0  0  0  0  0  0
   20.9216   15.3524   24.8451 H   0  0  0  0  0  0  0  0  0  0  0  0
  1  2  1  0  0  0  0
  1  3  2  0  0  0  0
  1  4  1  0  0  0  0
  4  5  1  0  0  0  0
  4  6  1  0  0  0  0
  4  7  1  0  0  0  0
  7  8  1  0  0  0  0
  7  9  1  0  0  0  0
  7 10  1  0  0  0  0
 10 11  1  0  0  0  0
 10 12  1  0  0  0  0
 10 13  1  0  0  0  0
 13 14  1  0  0  0  0
 13 15  1  0  0  0  0
 13 16  1  0  0  0  0
 16 17  1  0  0  0  0
 16 18  1  0  0  0  0
 16 19  1  0  0  0  0
 19 20  1  0  0  0  0
 19 21  1  0  0  0  0
 19 22  1  0  0  0  0
 22 23  1  0  0  0  0
 22 24  1  0  0  0  0
 22 25  1  0  0  0  0
M  END
> <VConfSearch Rank>
444

> <Conf_Id>
54

> <Delta U+W>
-0.224

> <U+W>
-51.854

> <U>
7.816

> <W>
-59.670

> <W(PB)>
-62.157

> <W(SA)>
2.487

> <Valence>
7.785

> <Coulomb>
-0.713

> <VdW>
0.744

> <VdW6>
-8.515

> <VdW12>
9.259

> <Bond>
0.136

> <Angle>
2.433

> <Pdih>
5.215

> <Idih>
0.000

> <Tether>
0.000

$$$$
VeraChem MOL file


 25 24  0  0  0  0  0  0  0  0999 V2000     
   18.4431   18.0095   26.8293 C   0  0  0  0  0  0  0  0  0  0  0  0
   17.3389   17.6013   26.5274 O   0  5  0  0  0  0  0  0  0  0  0  0
   19.2193   17.3925   27.5322 O   0  0  0  0  0  0  0  0  0  0  0  0
   18.8735   19.3799   26.3137 C   0  0  0  0  0  0  0  0  0  0  0  0
   19.3093   19.9250   27.1593 H   0  0  0  0  0  0  0  0  0  0  0  0
   17.9794   19.9350   26.0050 H   0  0  0  0  0  0  0  0  0  0  0  0
   19.8979   19.3248   25.1504 C   0  0  0  0  0  0  0  0  0  0  0  0
   20.2597   20.3428   24.9589 H   0  0  0  0  0  0  0  0  0  0  0  0
   20.7689   18.7311   25.4607 H   0  0  0  0  0  0  0  0  0  0  0  0
   19.2934   18.7321   23.8545 C   0  0  0  0  0  0  0  0  0  0  0  0
   18.4509   19.3527   23.5200 H   0  0  0  0  0  0  0  0  0  0  0  0
   18.8771   17.7394   24.0740 H   0  0  0  0  0  0  0  0  0  0  0  0
   20.3177   18.5841   22.7040 C   0  0  0  0  0  0  0  0  0  0  0  0
   21.1688   17.9792   23.0451 H   0  0  0  0  0  0  0  0  0  0  0  0
   19.8382   18.0180   21.8954 H   0  0  0  0  0  0  0  0  0  0  0  0
   20.8264   19.9382   22.1504 C   0  0  0  0  0  0  0  0  0  0  0  0
   21.3129   20.5030   22.9554 H   0  0  0  0  0  0  0  0  0  0  0  0
   19.9744   20.5446   21.8142 H   0  0  0  0  0  0  0  0  0  0  0  0
   21.8415   19.7863   20.9933 C   0  0  0  0  0  0  0  0  0  0  0  0
   22.2530   20.7768   20.7548 H   0  0  0  0  0  0  0  0  0  0  0  0
   22.6895   19.1696   21.3219 H   0  0  0  0  0  0  0  0  0  0  0  0
   21.2264   19.1847   19.7109 C   0  0  0  0  0  0  0  0  0  0  0  0
   20.9098   18.1458   19.8660 H   0  0  0  0  0  0  0  0  0  0  0  0
   20.3545   19.7657   19.3832 H   0  0  0  0  0  0  0  0  0  0  0  0
   21.9608   19.1887   18.8951 H   0  0  0  0  0  0  0  0  0  0  0  0
  1  2  1  0  0  0  0
  1  3  2  0  0  0  0
  1  4  1  0  0  0  0
  4  5  1  0  0  0  0
  4  6  1  0  0  0  0
  4  7  1  0  0  0  0
  7  8  1  0  0  0  0
  7  9  1  0  0  0  0
  7 10  1  0  0  0  0
 10 11  1  0  0  0  0
 10 12  1  0  0  0  0
 10 13  1  0  0  0  0
 13 14  1  0  0  0  0
 13 15  1  0  0  0  0
 13 16  1  0  0  0  0
 16 17  1  0  0  0  0
 16 18  1  0  0  0  0
 16 19  1  0  0  0  0
 19 20  1  0  0  0  0
 19 21  1  0  0  0  0
 19 22  1  0  0  0  0
 22 23  1  0  0  0  0
 22 24  1  0  0  0  0
 22 25  1  0  0  0  0
M  END
> <VConfSearch Rank>
445

> <Conf_Id>
101

> <Delta U+W>
1.534

> <U+W>
-50.095

> <U>
9.416

> <W>
-59.512

> <W(PB)>
-61.988

> <W(SA)>
2.476

> <Valence>
8.939

> <Coulomb>
-0.615

> <VdW>
1.092

> <VdW6>
-9.710

> <VdW12>
10.802

> <Bond>
0.216

> <Angle>
2.979

> <Pdih>
5.743

> <Idih>
0.000

> <Tether>
0.000

$$$$
VeraChem MOL file


 25 24  0  0  0  0  0  0  0  0999 V2000     
   16.0454   18.1463   22.9825 C   0  0  0  0  0  0  0  0  0  0  0  0
   15.6807   17.7958   24.0875 O   0  5  0  0  0  0  0  0  0  0  0  0
   15.2854   18.5109   22.1072 O   0  0  0  0  0  0  0  0  0  0  0  0
   17.5406   18.1502   22.6852 C   0  0  0  0  0  0  0  0  0  0  0  0
   17.6757   17.9323   21.6191 H   0  0  0  0  0  0  0  0  0  0  0  0
   17.9931   17.3251   23.2462 H   0  0  0  0  0  0  0  0  0  0  0  0
   18.2198   19.4970   23.0464 C   0  0  0  0  0  0  0  0  0  0  0  0
   17.6779   20.3094   22.5427 H   0  0  0  0  0  0  0  0  0  0  0  0
   18.1209   19.6811   24.1251 H   0  0  0  0  0  0  0  0  0  0  0  0
   19.7106   19.5703   22.6379 C   0  0  0  0  0  0  0  0  0  0  0  0
   20.0564   20.5987   22.8026 H   0  0  0  0  0  0  0  0  0  0  0  0
   19.8079   19.3763   21.5611 H   0  0  0  0  0  0  0  0  0  0  0  0
   20.6145   18.5935   23.4296 C   0  0  0  0  0  0  0  0  0  0  0  0
   20.5178   18.7878   24.5057 H   0  0  0  0  0  0  0  0  0  0  0  0
   20.2656   17.5651   23.2735 H   0  0  0  0  0  0  0  0  0  0  0  0
   22.1060   18.6551   23.0126 C   0  0  0  0  0  0  0  0  0  0  0  0
   22.1910   18.3730   21.9543 H   0  0  0  0  0  0  0  0  0  0  0  0
   22.6588   17.8902   23.5747 H   0  0  0  0  0  0  0  0  0  0  0  0
   22.8007   20.0238   23.2209 C   0  0  0  0  0  0  0  0  0  0  0  0
   23.8440   19.9399   22.8867 H   0  0  0  0  0  0  0  0  0  0  0  0
   22.3389   20.7859   22.5796 H   0  0  0  0  0  0  0  0  0  0  0  0
   22.7872   20.5005   24.6894 C   0  0  0  0  0  0  0  0  0  0  0  0
   23.2232   19.7423   25.3528 H   0  0  0  0  0  0  0  0  0  0  0  0
   23.3715   21.4232   24.7994 H   0  0  0  0  0  0  0  0  0  0  0  0
   21.7658   20.7113   25.0305 H   0  0  0  0  0  0  0  0  0  0  0  0
  1  2  1  0  0  0  0
  1  3  2  0  0  0  0
  1  4  1  0  0  0  0
  4  5  1  0  0  0  0
  4  6  1  0  0  0  0
  4  7  1  0  0  0  0
  7  8  1  0  0  0  0
  7  9  1  0  0  0  0
  7 10  1  0  0  0  0
 10 11  1  0  0  0  0
 10 12  1  0  0  0  0
 10 13  1  0  0  0  0
 13 14  1  0  0  0  0
 13 15  1  0  0  0  0
 13 16  1  0  0  0  0
 16 17  1  0  0  0  0
 16 18  1  0  0  0  0
 16 19  1  0  0  0  0
 19 20  1  0  0  0  0
 19 21  1  0  0  0  0
 19 22  1  0  0  0  0
 22 23  1  0  0  0  0
 22 24  1  0  0  0  0
 22 25  1  0  0  0  0
M  END
> <VConfSearch Rank>
446

> <Conf_Id>
75

> <Delta U+W>
1.014

> <U+W>
-50.615

> <U>
8.474

> <W>
-59.089

> <W(PB)>
-61.530

> <W(SA)>
2.441

> <Valence>
9.080

> <Coulomb>
-1.772

> <VdW>
1.165

> <VdW6>
-9.830

> <VdW12>
10.996

> <Bond>
0.240

> <Angle>
3.225

> <Pdih>
5.615

> <Idih>
0.001

> <Tether>
0.000

$$$$
VeraChem MOL file


 25 24  0  0  0  0  0  0  0  0999 V2000     
   20.4075   15.8155   25.8420 C   0  0  0  0  0  0  0  0  0  0  0  0
   20.3594   14.8114   25.1592 O   0  5  0  0  0  0  0  0  0  0  0  0
   20.9535   15.8669   26.9264 O   0  0  0  0  0  0  0  0  0  0  0  0
   19.7655   17.0869   25.2984 C   0  0  0  0  0  0  0  0  0  0  0  0
   19.3866   17.6674   26.1482 H   0  0  0  0  0  0  0  0  0  0  0  0
   18.8995   16.7983   24.6908 H   0  0  0  0  0  0  0  0  0  0  0  0
   20.7451   17.9442   24.4597 C   0  0  0  0  0  0  0  0  0  0  0  0
   21.6125   18.2140   25.0780 H   0  0  0  0  0  0  0  0  0  0  0  0
   21.1252   17.3444   23.6210 H   0  0  0  0  0  0  0  0  0  0  0  0
   20.0714   19.2242   23.9196 C   0  0  0  0  0  0  0  0  0  0  0  0
   19.6927   19.8202   24.7612 H   0  0  0  0  0  0  0  0  0  0  0  0
   19.2007   18.9474   23.3134 H   0  0  0  0  0  0  0  0  0  0  0  0
   21.0555   20.0799   23.0877 C   0  0  0  0  0  0  0  0  0  0  0  0
   21.8955   20.3628   23.7367 H   0  0  0  0  0  0  0  0  0  0  0  0
   21.4863   19.4832   22.2721 H   0  0  0  0  0  0  0  0  0  0  0  0
   20.4167   21.3729   22.5197 C   0  0  0  0  0  0  0  0  0  0  0  0
   21.1757   22.1668   22.5420 H   0  0  0  0  0  0  0  0  0  0  0  0
   19.6056   21.7173   23.1756 H   0  0  0  0  0  0  0  0  0  0  0  0
   19.9082   21.2562   21.0613 C   0  0  0  0  0  0  0  0  0  0  0  0
   19.5534   22.2438   20.7359 H   0  0  0  0  0  0  0  0  0  0  0  0
   20.7458   20.9973   20.3990 H   0  0  0  0  0  0  0  0  0  0  0  0
   18.7688   20.2339   20.8686 C   0  0  0  0  0  0  0  0  0  0  0  0
   17.9432   20.4278   21.5656 H   0  0  0  0  0  0  0  0  0  0  0  0
   18.3707   20.2908   19.8474 H   0  0  0  0  0  0  0  0  0  0  0  0
   19.1264   19.2088   21.0269 H   0  0  0  0  0  0  0  0  0  0  0  0
  1  2  1  0  0  0  0
  1  3  2  0  0  0  0
  1  4  1  0  0  0  0
  4  5  1  0  0  0  0
  4  6  1  0  0  0  0
  4  7  1  0  0  0  0
  7  8  1  0  0  0  0
  7  9  1  0  0  0  0
  7 10  1  0  0  0  0
 10 11  1  0  0  0  0
 10 12  1  0  0  0  0
 10 13  1  0  0  0  0
 13 14  1  0  0  0  0
 13 15  1  0  0  0  0
 13 16  1  0  0  0  0
 16 17  1  0  0  0  0
 16 18  1  0  0  0  0
 16 19  1  0  0  0  0
 19 20  1  0  0  0  0
 19 21  1  0  0  0  0
 19 22  1  0  0  0  0
 22 23  1  0  0  0  0
 22 24  1  0  0  0  0
 22 25  1  0  0  0  0
M  END
> <VConfSearch Rank>
447

> <Conf_Id>
125

> <Delta U+W>
2.314

> <U+W>
-49.315

> <U>
9.740

> <W>
-59.054

> <W(PB)>
-61.488

> <W(SA)>
2.433

> <Valence>
10.506

> <Coulomb>
-1.761

> <VdW>
0.994

> <VdW6>
-9.209

> <VdW12>
10.203

> <Bond>
0.193

> <Angle>
2.979

> <Pdih>
7.334

> <Idih>
0.001

> <Tether>
0.000

$$$$
VeraChem MOL file


 25 24  0  0  0  0  0  0  0  0999 V2000     
   16.0791   19.8140   23.5416 C   0  0  0  0  0  0  0  0  0  0  0  0
   15.6014   19.2622   22.5700 O   0  5  0  0  0  0  0  0  0  0  0  0
   15.4419   20.5257   24.2926 O   0  0  0  0  0  0  0  0  0  0  0  0
   17.5656   19.6223   23.8201 C   0  0  0  0  0  0  0  0  0  0  0  0
   17.8376   18.6119   23.4947 H   0  0  0  0  0  0  0  0  0  0  0  0
   17.7168   19.6671   24.9052 H   0  0  0  0  0  0  0  0  0  0  0  0
   18.4497   20.6819   23.1123 C   0  0  0  0  0  0  0  0  0  0  0  0
   18.3251   20.5958   22.0240 H   0  0  0  0  0  0  0  0  0  0  0  0
   18.0889   21.6826   23.3875 H   0  0  0  0  0  0  0  0  0  0  0  0
   19.9500   20.5786   23.4766 C   0  0  0  0  0  0  0  0  0  0  0  0
   20.0721   20.6746   24.5642 H   0  0  0  0  0  0  0  0  0  0  0  0
   20.4764   21.4322   23.0281 H   0  0  0  0  0  0  0  0  0  0  0  0
   20.6118   19.2677   22.9921 C   0  0  0  0  0  0  0  0  0  0  0  0
   20.1373   18.4118   23.4871 H   0  0  0  0  0  0  0  0  0  0  0  0
   20.4453   19.1496   21.9128 H   0  0  0  0  0  0  0  0  0  0  0  0
   22.1302   19.2545   23.2845 C   0  0  0  0  0  0  0  0  0  0  0  0
   22.2989   19.3252   24.3678 H   0  0  0  0  0  0  0  0  0  0  0  0
   22.5882   20.1484   22.8394 H   0  0  0  0  0  0  0  0  0  0  0  0
   22.8530   18.0052   22.7289 C   0  0  0  0  0  0  0  0  0  0  0  0
   22.6908   17.9344   21.6445 H   0  0  0  0  0  0  0  0  0  0  0  0
   23.9349   18.1310   22.8731 H   0  0  0  0  0  0  0  0  0  0  0  0
   22.4111   16.6902   23.4073 C   0  0  0  0  0  0  0  0  0  0  0  0
   21.3601   16.4612   23.1912 H   0  0  0  0  0  0  0  0  0  0  0  0
   23.0154   15.8491   23.0438 H   0  0  0  0  0  0  0  0  0  0  0  0
   22.5344   16.7492   24.4965 H   0  0  0  0  0  0  0  0  0  0  0  0
  1  2  1  0  0  0  0
  1  3  2  0  0  0  0
  1  4  1  0  0  0  0
  4  5  1  0  0  0  0
  4  6  1  0  0  0  0
  4  7  1  0  0  0  0
  7  8  1  0  0  0  0
  7  9  1  0  0  0  0
  7 10  1  0  0  0  0
 10 11  1  0  0  0  0
 10 12  1  0  0  0  0
 10 13  1  0  0  0  0
 13 14  1  0  0  0  0
 13 15  1  0  0  0  0
 13 16  1  0  0  0  0
 16 17  1  0  0  0  0
 16 18  1  0  0  0  0
 16 19  1  0  0  0  0
 19 20  1  0  0  0  0
 19 21  1  0  0  0  0
 19 22  1  0  0  0  0
 22 23  1  0  0  0  0
 22 24  1  0  0  0  0
 22 25  1  0  0  0  0
M  END
> <VConfSearch Rank>
448

> <Conf_Id>
4

> <Delta U+W>
0.189

> <U+W>
-51.441

> <U>
7.701

> <W>
-59.141

> <W(PB)>
-61.609

> <W(SA)>
2.467

> <Valence>
8.550

> <Coulomb>
-1.988

> <VdW>
1.139

> <VdW6>
-8.988

> <VdW12>
10.127

> <Bond>
0.191

> <Angle>
2.738

> <Pdih>
5.621

> <Idih>
0.001

> <Tether>
0.000

$$$$
VeraChem MOL file


 25 24  0  0  0  0  0  0  0  0999 V2000     
   20.5209   22.7011   21.2218 C   0  0  0  0  0  0  0  0  0  0  0  0
   20.9816   23.4909   22.0222 O   0  5  0  0  0  0  0  0  0  0  0  0
   20.4047   22.9359   20.0352 O   0  0  0  0  0  0  0  0  0  0  0  0
   20.0864   21.3312   21.7303 C   0  0  0  0  0  0  0  0  0  0  0  0
   19.2479   20.9892   21.1121 H   0  0  0  0  0  0  0  0  0  0  0  0
   19.7078   21.4597   22.7506 H   0  0  0  0  0  0  0  0  0  0  0  0
   21.2342   20.2887   21.6997 C   0  0  0  0  0  0  0  0  0  0  0  0
   21.6525   20.2547   20.6842 H   0  0  0  0  0  0  0  0  0  0  0  0
   22.0482   20.6197   22.3593 H   0  0  0  0  0  0  0  0  0  0  0  0
   20.7851   18.8627   22.0986 C   0  0  0  0  0  0  0  0  0  0  0  0
   21.6261   18.1748   21.9355 H   0  0  0  0  0  0  0  0  0  0  0  0
   19.9781   18.5307   21.4312 H   0  0  0  0  0  0  0  0  0  0  0  0
   20.3223   18.7525   23.5699 C   0  0  0  0  0  0  0  0  0  0  0  0
   21.1121   19.1315   24.2325 H   0  0  0  0  0  0  0  0  0  0  0  0
   19.4398   19.3846   23.7257 H   0  0  0  0  0  0  0  0  0  0  0  0
   19.9841   17.2929   23.9526 C   0  0  0  0  0  0  0  0  0  0  0  0
   20.8516   16.6554   23.7342 H   0  0  0  0  0  0  0  0  0  0  0  0
   19.1621   16.9263   23.3226 H   0  0  0  0  0  0  0  0  0  0  0  0
   19.6107   17.1184   25.4433 C   0  0  0  0  0  0  0  0  0  0  0  0
   19.5031   16.0459   25.6562 H   0  0  0  0  0  0  0  0  0  0  0  0
   20.4330   17.4793   26.0764 H   0  0  0  0  0  0  0  0  0  0  0  0
   18.3005   17.8363   25.8341 C   0  0  0  0  0  0  0  0  0  0  0  0
   17.4697   17.5145   25.1928 H   0  0  0  0  0  0  0  0  0  0  0  0
   18.0330   17.6074   26.8738 H   0  0  0  0  0  0  0  0  0  0  0  0
   18.3996   18.9256   25.7492 H   0  0  0  0  0  0  0  0  0  0  0  0
  1  2  1  0  0  0  0
  1  3  2  0  0  0  0
  1  4  1  0  0  0  0
  4  5  1  0  0  0  0
  4  6  1  0  0  0  0
  4  7  1  0  0  0  0
  7  8  1  0  0  0  0
  7  9  1  0  0  0  0
  7 10  1  0  0  0  0
 10 11  1  0  0  0  0
 10 12  1  0  0  0  0
 10 13  1  0  0  0  0
 13 14  1  0  0  0  0
 13 15  1  0  0  0  0
 13 16  1  0  0  0  0
 16 17  1  0  0  0  0
 16 18  1  0  0  0  0
 16 19  1  0  0  0  0
 19 20  1  0  0  0  0
 19 21  1  0  0  0  0
 19 22  1  0  0  0  0
 22 23  1  0  0  0  0
 22 24  1  0  0  0  0
 22 25  1  0  0  0  0
M  END
> <VConfSearch Rank>
449

> <Conf_Id>
17

> <Delta U+W>
0.219

> <U+W>
-51.411

> <U>
7.701

> <W>
-59.111

> <W(PB)>
-61.599

> <W(SA)>
2.488

> <Valence>
8.550

> <Coulomb>
-1.988

> <VdW>
1.139

> <VdW6>
-8.988

> <VdW12>
10.127

> <Bond>
0.191

> <Angle>
2.738

> <Pdih>
5.621

> <Idih>
0.001

> <Tether>
0.000

$$$$
VeraChem MOL file


 25 24  0  0  0  0  0  0  0  0999 V2000     
   21.0893   22.8470   22.5379 C   0  0  0  0  0  0  0  0  0  0  0  0
   20.7574   23.6209   23.4142 O   0  5  0  0  0  0  0  0  0  0  0  0
   20.6618   22.8942   21.4012 O   0  0  0  0  0  0  0  0  0  0  0  0
   22.1138   21.7677   22.8761 C   0  0  0  0  0  0  0  0  0  0  0  0
   22.6527   22.0685   23.7827 H   0  0  0  0  0  0  0  0  0  0  0  0
   22.8486   21.7459   22.0628 H   0  0  0  0  0  0  0  0  0  0  0  0
   21.5016   20.3547   23.0595 C   0  0  0  0  0  0  0  0  0  0  0  0
   20.9523   20.0844   22.1480 H   0  0  0  0  0  0  0  0  0  0  0  0
   22.3151   19.6248   23.1687 H   0  0  0  0  0  0  0  0  0  0  0  0
   20.5692   20.2689   24.2915 C   0  0  0  0  0  0  0  0  0  0  0  0
   19.7132   20.9449   24.1595 H   0  0  0  0  0  0  0  0  0  0  0  0
   21.1128   20.6278   25.1762 H   0  0  0  0  0  0  0  0  0  0  0  0
   20.0561   18.8376   24.5774 C   0  0  0  0  0  0  0  0  0  0  0  0
   20.9104   18.1615   24.7186 H   0  0  0  0  0  0  0  0  0  0  0  0
   19.5080   18.8485   25.5294 H   0  0  0  0  0  0  0  0  0  0  0  0
   19.1294   18.2831   23.4708 C   0  0  0  0  0  0  0  0  0  0  0  0
   19.6837   18.1940   22.5275 H   0  0  0  0  0  0  0  0  0  0  0  0
   18.3061   18.9886   23.2939 H   0  0  0  0  0  0  0  0  0  0  0  0
   18.5524   16.9025   23.8488 C   0  0  0  0  0  0  0  0  0  0  0  0
   19.3736   16.1948   24.0282 H   0  0  0  0  0  0  0  0  0  0  0  0
   17.9876   16.9811   24.7881 H   0  0  0  0  0  0  0  0  0  0  0  0
   17.6314   16.3493   22.7427 C   0  0  0  0  0  0  0  0  0  0  0  0
   18.1792   16.2298   21.7988 H   0  0  0  0  0  0  0  0  0  0  0  0
   17.2301   15.3682   23.0281 H   0  0  0  0  0  0  0  0  0  0  0  0
   16.7835   17.0234   22.5640 H   0  0  0  0  0  0  0  0  0  0  0  0
  1  2  1  0  0  0  0
  1  3  2  0  0  0  0
  1  4  1  0  0  0  0
  4  5  1  0  0  0  0
  4  6  1  0  0  0  0
  4  7  1  0  0  0  0
  7  8  1  0  0  0  0
  7  9  1  0  0  0  0
  7 10  1  0  0  0  0
 10 11  1  0  0  0  0
 10 12  1  0  0  0  0
 10 13  1  0  0  0  0
 13 14  1  0  0  0  0
 13 15  1  0  0  0  0
 13 16  1  0  0  0  0
 16 17  1  0  0  0  0
 16 18  1  0  0  0  0
 16 19  1  0  0  0  0
 19 20  1  0  0  0  0
 19 21  1  0  0  0  0
 19 22  1  0  0  0  0
 22 23  1  0  0  0  0
 22 24  1  0  0  0  0
 22 25  1  0  0  0  0
M  END
> <VConfSearch Rank>
450

> <Conf_Id>
142

> <Delta U+W>
0.593

> <U+W>
-51.037

> <U>
8.903

> <W>
-59.940

> <W(PB)>
-62.418

> <W(SA)>
2.478

> <Valence>
8.305

> <Coulomb>
-0.223

> <VdW>
0.821

> <VdW6>
-9.236

> <VdW12>
10.057

> <Bond>
0.173

> <Angle>
2.663

> <Pdih>
5.469

> <Idih>
0.001

> <Tether>
0.000

$$$$
VeraChem MOL file


 25 24  0  0  0  0  0  0  0  0999 V2000     
   21.7168   16.0855   22.5901 C   0  0  0  0  0  0  0  0  0  0  0  0
   22.2163   15.1268   23.1459 O   0  5  0  0  0  0  0  0  0  0  0  0
   20.9470   15.9938   21.6541 O   0  0  0  0  0  0  0  0  0  0  0  0
   22.1006   17.4795   23.0784 C   0  0  0  0  0  0  0  0  0  0  0  0
   21.8007   18.2123   22.3206 H   0  0  0  0  0  0  0  0  0  0  0  0
   23.1949   17.5171   23.1309 H   0  0  0  0  0  0  0  0  0  0  0  0
   21.5062   17.8517   24.4642 C   0  0  0  0  0  0  0  0  0  0  0  0
   21.8814   17.1385   25.2110 H   0  0  0  0  0  0  0  0  0  0  0  0
   21.8878   18.8346   24.7692 H   0  0  0  0  0  0  0  0  0  0  0  0
   19.9564   17.8543   24.5167 C   0  0  0  0  0  0  0  0  0  0  0  0
   19.6385   18.1216   25.5336 H   0  0  0  0  0  0  0  0  0  0  0  0
   19.5912   16.8323   24.3457 H   0  0  0  0  0  0  0  0  0  0  0  0
   19.2614   18.8031   23.5081 C   0  0  0  0  0  0  0  0  0  0  0  0
   19.4790   18.4805   22.4811 H   0  0  0  0  0  0  0  0  0  0  0  0
   18.1747   18.7030   23.6329 H   0  0  0  0  0  0  0  0  0  0  0  0
   19.6531   20.2883   23.6858 C   0  0  0  0  0  0  0  0  0  0  0  0
   20.7260   20.4170   23.4925 H   0  0  0  0  0  0  0  0  0  0  0  0
   19.4746   20.5931   24.7259 H   0  0  0  0  0  0  0  0  0  0  0  0
   18.8560   21.2059   22.7349 C   0  0  0  0  0  0  0  0  0  0  0  0
   19.0311   20.9009   21.6939 H   0  0  0  0  0  0  0  0  0  0  0  0
   17.7798   21.0914   22.9247 H   0  0  0  0  0  0  0  0  0  0  0  0
   19.2521   22.6860   22.9090 C   0  0  0  0  0  0  0  0  0  0  0  0
   20.3183   22.8351   22.6937 H   0  0  0  0  0  0  0  0  0  0  0  0
   18.6759   23.3236   22.2260 H   0  0  0  0  0  0  0  0  0  0  0  0
   19.0585   23.0262   23.9348 H   0  0  0  0  0  0  0  0  0  0  0  0
  1  2  1  0  0  0  0
  1  3  2  0  0  0  0
  1  4  1  0  0  0  0
  4  5  1  0  0  0  0
  4  6  1  0  0  0  0
  4  7  1  0  0  0  0
  7  8  1  0  0  0  0
  7  9  1  0  0  0  0
  7 10  1  0  0  0  0
 10 11  1  0  0  0  0
 10 12  1  0  0  0  0
 10 13  1  0  0  0  0
 13 14  1  0  0  0  0
 13 15  1  0  0  0  0
 13 16  1  0  0  0  0
 16 17  1  0  0  0  0
 16 18  1  0  0  0  0
 16 19  1  0  0  0  0
 19 20  1  0  0  0  0
 19 21  1  0  0  0  0
 19 22  1  0  0  0  0
 22 23  1  0  0  0  0
 22 24  1  0  0  0  0
 22 25  1  0  0  0  0
M  END
> <VConfSearch Rank>
451

> <Conf_Id>
135

> <Delta U+W>
1.314

> <U+W>
-50.316

> <U>
9.773

> <W>
-60.088

> <W(PB)>
-62.535

> <W(SA)>
2.447

> <Valence>
8.741

> <Coulomb>
0.479

> <VdW>
0.552

> <VdW6>
-10.627

> <VdW12>
11.179

> <Bond>
0.227

> <Angle>
3.155

> <Pdih>
5.358

> <Idih>
0.001

> <Tether>
0.000

$$$$
VeraChem MOL file


 25 24  0  0  0  0  0  0  0  0999 V2000     
   19.8270   15.4968   25.2526 C   0  0  0  0  0  0  0  0  0  0  0  0
   20.8115   14.7982   25.1133 O   0  5  0  0  0  0  0  0  0  0  0  0
   19.0171   15.3479   26.1463 O   0  0  0  0  0  0  0  0  0  0  0  0
   19.6076   16.6372   24.2650 C   0  0  0  0  0  0  0  0  0  0  0  0
   18.5270   16.7852   24.1516 H   0  0  0  0  0  0  0  0  0  0  0  0
   19.9957   16.3139   23.2929 H   0  0  0  0  0  0  0  0  0  0  0  0
   20.2841   17.9583   24.7155 C   0  0  0  0  0  0  0  0  0  0  0  0
   19.9433   18.1968   25.7326 H   0  0  0  0  0  0  0  0  0  0  0  0
   21.3713   17.8123   24.7796 H   0  0  0  0  0  0  0  0  0  0  0  0
   19.9704   19.1624   23.7955 C   0  0  0  0  0  0  0  0  0  0  0  0
   20.3598   20.0665   24.2802 H   0  0  0  0  0  0  0  0  0  0  0  0
   18.8826   19.2909   23.7127 H   0  0  0  0  0  0  0  0  0  0  0  0
   20.5940   19.0394   22.3846 C   0  0  0  0  0  0  0  0  0  0  0  0
   21.6866   18.9708   22.4740 H   0  0  0  0  0  0  0  0  0  0  0  0
   20.2635   18.1035   21.9174 H   0  0  0  0  0  0  0  0  0  0  0  0
   20.2284   20.2004   21.4255 C   0  0  0  0  0  0  0  0  0  0  0  0
   19.1433   20.2195   21.2547 H   0  0  0  0  0  0  0  0  0  0  0  0
   20.6794   19.9762   20.4492 H   0  0  0  0  0  0  0  0  0  0  0  0
   20.7254   21.5968   21.8761 C   0  0  0  0  0  0  0  0  0  0  0  0
   21.6157   21.4979   22.5123 H   0  0  0  0  0  0  0  0  0  0  0  0
   21.0460   22.1593   20.9883 H   0  0  0  0  0  0  0  0  0  0  0  0
   19.6390   22.4242   22.5989 C   0  0  0  0  0  0  0  0  0  0  0  0
   19.2785   21.9224   23.5041 H   0  0  0  0  0  0  0  0  0  0  0  0
   20.0355   23.4043   22.8939 H   0  0  0  0  0  0  0  0  0  0  0  0
   18.7770   22.5952   21.9411 H   0  0  0  0  0  0  0  0  0  0  0  0
  1  2  1  0  0  0  0
  1  3  2  0  0  0  0
  1  4  1  0  0  0  0
  4  5  1  0  0  0  0
  4  6  1  0  0  0  0
  4  7  1  0  0  0  0
  7  8  1  0  0  0  0
  7  9  1  0  0  0  0
  7 10  1  0  0  0  0
 10 11  1  0  0  0  0
 10 12  1  0  0  0  0
 10 13  1  0  0  0  0
 13 14  1  0  0  0  0
 13 15  1  0  0  0  0
 13 16  1  0  0  0  0
 16 17  1  0  0  0  0
 16 18  1  0  0  0  0
 16 19  1  0  0  0  0
 19 20  1  0  0  0  0
 19 21  1  0  0  0  0
 19 22  1  0  0  0  0
 22 23  1  0  0  0  0
 22 24  1  0  0  0  0
 22 25  1  0  0  0  0
M  END
> <VConfSearch Rank>
452

> <Conf_Id>
19

> <Delta U+W>
3.222

> <U+W>
-48.407

> <U>
10.617

> <W>
-59.025

> <W(PB)>
-61.462

> <W(SA)>
2.437

> <Valence>
11.188

> <Coulomb>
-1.778

> <VdW>
1.208

> <VdW6>
-9.786

> <VdW12>
10.993

> <Bond>
0.241

> <Angle>
3.294

> <Pdih>
7.653

> <Idih>
0.001

> <Tether>
0.000

$$$$
VeraChem MOL file


 25 24  0  0  0  0  0  0  0  0999 V2000     
   24.1010   19.9862   22.2201 C   0  0  0  0  0  0  0  0  0  0  0  0
   24.8739   19.1159   22.5695 O   0  5  0  0  0  0  0  0  0  0  0  0
   24.4429   21.1199   21.9470 O   0  0  0  0  0  0  0  0  0  0  0  0
   22.6176   19.6432   22.1425 C   0  0  0  0  0  0  0  0  0  0  0  0
   22.5348   18.5938   21.8391 H   0  0  0  0  0  0  0  0  0  0  0  0
   22.1701   20.2491   21.3456 H   0  0  0  0  0  0  0  0  0  0  0  0
   21.8752   19.8886   23.4821 C   0  0  0  0  0  0  0  0  0  0  0  0
   22.2995   19.2418   24.2624 H   0  0  0  0  0  0  0  0  0  0  0  0
   22.0627   20.9230   23.8017 H   0  0  0  0  0  0  0  0  0  0  0  0
   20.3458   19.6694   23.3942 C   0  0  0  0  0  0  0  0  0  0  0  0
   19.9274   20.2982   22.5966 H   0  0  0  0  0  0  0  0  0  0  0  0
   19.9016   20.0157   24.3359 H   0  0  0  0  0  0  0  0  0  0  0  0
   19.9467   18.1923   23.1627 C   0  0  0  0  0  0  0  0  0  0  0  0
   20.4407   17.8159   22.2583 H   0  0  0  0  0  0  0  0  0  0  0  0
   20.3186   17.5798   23.9952 H   0  0  0  0  0  0  0  0  0  0  0  0
   18.4228   17.9648   22.9974 C   0  0  0  0  0  0  0  0  0  0  0  0
   18.2696   16.8976   22.7864 H   0  0  0  0  0  0  0  0  0  0  0  0
   18.0569   18.4992   22.1101 H   0  0  0  0  0  0  0  0  0  0  0  0
   17.5717   18.3374   24.2372 C   0  0  0  0  0  0  0  0  0  0  0  0
   16.7598   17.6042   24.3397 H   0  0  0  0  0  0  0  0  0  0  0  0
   18.1742   18.2549   25.1523 H   0  0  0  0  0  0  0  0  0  0  0  0
   16.9366   19.7424   24.1381 C   0  0  0  0  0  0  0  0  0  0  0  0
   16.2699   19.8084   23.2685 H   0  0  0  0  0  0  0  0  0  0  0  0
   16.3413   19.9589   25.0345 H   0  0  0  0  0  0  0  0  0  0  0  0
   17.6953   20.5275   24.0420 H   0  0  0  0  0  0  0  0  0  0  0  0
  1  2  1  0  0  0  0
  1  3  2  0  0  0  0
  1  4  1  0  0  0  0
  4  5  1  0  0  0  0
  4  6  1  0  0  0  0
  4  7  1  0  0  0  0
  7  8  1  0  0  0  0
  7  9  1  0  0  0  0
  7 10  1  0  0  0  0
 10 11  1  0  0  0  0
 10 12  1  0  0  0  0
 10 13  1  0  0  0  0
 13 14  1  0  0  0  0
 13 15  1  0  0  0  0
 13 16  1  0  0  0  0
 16 17  1  0  0  0  0
 16 18  1  0  0  0  0
 16 19  1  0  0  0  0
 19 20  1  0  0  0  0
 19 21  1  0  0  0  0
 19 22  1  0  0  0  0
 22 23  1  0  0  0  0
 22 24  1  0  0  0  0
 22 25  1  0  0  0  0
M  END
> <VConfSearch Rank>
453

> <Conf_Id>
20

> <Delta U+W>
3.224

> <U+W>
-48.406

> <U>
10.617

> <W>
-59.023

> <W(PB)>
-61.467

> <W(SA)>
2.444

> <Valence>
11.188

> <Coulomb>
-1.778

> <VdW>
1.208

> <VdW6>
-9.786

> <VdW12>
10.993

> <Bond>
0.241

> <Angle>
3.294

> <Pdih>
7.653

> <Idih>
0.001

> <Tether>
0.000

$$$$
VeraChem MOL file


 25 24  0  0  0  0  0  0  0  0999 V2000     
   18.5145   17.5397   25.8869 C   0  0  0  0  0  0  0  0  0  0  0  0
   18.9053   18.0118   26.9367 O   0  5  0  0  0  0  0  0  0  0  0  0
   18.9525   16.5113   25.4097 O   0  0  0  0  0  0  0  0  0  0  0  0
   17.3667   18.2385   25.1605 C   0  0  0  0  0  0  0  0  0  0  0  0
   16.5011   18.1871   25.8310 H   0  0  0  0  0  0  0  0  0  0  0  0
   17.1058   17.6597   24.2662 H   0  0  0  0  0  0  0  0  0  0  0  0
   17.6269   19.7242   24.7835 C   0  0  0  0  0  0  0  0  0  0  0  0
   16.6545   20.2076   24.6187 H   0  0  0  0  0  0  0  0  0  0  0  0
   18.0860   20.2510   25.6316 H   0  0  0  0  0  0  0  0  0  0  0  0
   18.4786   19.9308   23.5063 C   0  0  0  0  0  0  0  0  0  0  0  0
   18.4668   21.0007   23.2569 H   0  0  0  0  0  0  0  0  0  0  0  0
   18.0081   19.4117   22.6602 H   0  0  0  0  0  0  0  0  0  0  0  0
   19.9471   19.4699   23.6467 C   0  0  0  0  0  0  0  0  0  0  0  0
   20.3863   19.9083   24.5533 H   0  0  0  0  0  0  0  0  0  0  0  0
   19.9858   18.3797   23.7654 H   0  0  0  0  0  0  0  0  0  0  0  0
   20.7913   19.8697   22.4170 C   0  0  0  0  0  0  0  0  0  0  0  0
   20.7668   20.9610   22.2929 H   0  0  0  0  0  0  0  0  0  0  0  0
   20.3478   19.4344   21.5110 H   0  0  0  0  0  0  0  0  0  0  0  0
   22.2551   19.3999   22.5511 C   0  0  0  0  0  0  0  0  0  0  0  0
   22.7018   19.8343   23.4562 H   0  0  0  0  0  0  0  0  0  0  0  0
   22.2837   18.3082   22.6738 H   0  0  0  0  0  0  0  0  0  0  0  0
   23.0954   19.8000   21.3217 C   0  0  0  0  0  0  0  0  0  0  0  0
   23.1099   20.8903   21.1938 H   0  0  0  0  0  0  0  0  0  0  0  0
   24.1325   19.4582   21.4341 H   0  0  0  0  0  0  0  0  0  0  0  0
   22.6885   19.3526   20.4054 H   0  0  0  0  0  0  0  0  0  0  0  0
  1  2  1  0  0  0  0
  1  3  2  0  0  0  0
  1  4  1  0  0  0  0
  4  5  1  0  0  0  0
  4  6  1  0  0  0  0
  4  7  1  0  0  0  0
  7  8  1  0  0  0  0
  7  9  1  0  0  0  0
  7 10  1  0  0  0  0
 10 11  1  0  0  0  0
 10 12  1  0  0  0  0
 10 13  1  0  0  0  0
 13 14  1  0  0  0  0
 13 15  1  0  0  0  0
 13 16  1  0  0  0  0
 16 17  1  0  0  0  0
 16 18  1  0  0  0  0
 16 19  1  0  0  0  0
 19 20  1  0  0  0  0
 19 21  1  0  0  0  0
 19 22  1  0  0  0  0
 22 23  1  0  0  0  0
 22 24  1  0  0  0  0
 22 25  1  0  0  0  0
M  END
> <VConfSearch Rank>
454

> <Conf_Id>
24

> <Delta U+W>
1.784

> <U+W>
-49.846

> <U>
10.904

> <W>
-60.749

> <W(PB)>
-63.220

> <W(SA)>
2.471

> <Valence>
9.445

> <Coulomb>
0.780

> <VdW>
0.679

> <VdW6>
-10.008

> <VdW12>
10.687

> <Bond>
0.201

> <Angle>
3.198

> <Pdih>
6.039

> <Idih>
0.006

> <Tether>
0.000

$$$$
VeraChem MOL file


 25 24  0  0  0  0  0  0  0  0999 V2000     
   20.5979   15.9050   24.2814 C   0  0  0  0  0  0  0  0  0  0  0  0
   19.6704   15.3040   23.7754 O   0  5  0  0  0  0  0  0  0  0  0  0
   21.7163   15.9351   23.8066 O   0  0  0  0  0  0  0  0  0  0  0  0
   20.3649   16.6048   25.6191 C   0  0  0  0  0  0  0  0  0  0  0  0
   21.3081   17.0506   25.9573 H   0  0  0  0  0  0  0  0  0  0  0  0
   20.1142   15.8173   26.3391 H   0  0  0  0  0  0  0  0  0  0  0  0
   19.2336   17.6713   25.6216 C   0  0  0  0  0  0  0  0  0  0  0  0
   18.3525   17.2839   25.0912 H   0  0  0  0  0  0  0  0  0  0  0  0
   18.9159   17.8261   26.6616 H   0  0  0  0  0  0  0  0  0  0  0  0
   19.6387   19.0494   25.0422 C   0  0  0  0  0  0  0  0  0  0  0  0
   20.5122   19.4362   25.5846 H   0  0  0  0  0  0  0  0  0  0  0  0
   18.8190   19.7553   25.2342 H   0  0  0  0  0  0  0  0  0  0  0  0
   19.9348   19.0331   23.5254 C   0  0  0  0  0  0  0  0  0  0  0  0
   20.8340   18.4362   23.3276 H   0  0  0  0  0  0  0  0  0  0  0  0
   19.1041   18.5502   22.9926 H   0  0  0  0  0  0  0  0  0  0  0  0
   20.1476   20.4579   22.9695 C   0  0  0  0  0  0  0  0  0  0  0  0
   20.9753   20.9409   23.5068 H   0  0  0  0  0  0  0  0  0  0  0  0
   19.2495   21.0631   23.1544 H   0  0  0  0  0  0  0  0  0  0  0  0
   20.4547   20.4418   21.4573 C   0  0  0  0  0  0  0  0  0  0  0  0
   21.3537   19.8388   21.2686 H   0  0  0  0  0  0  0  0  0  0  0  0
   19.6282   19.9599   20.9169 H   0  0  0  0  0  0  0  0  0  0  0  0
   20.6671   21.8658   20.9051 C   0  0  0  0  0  0  0  0  0  0  0  0
   21.5093   22.3600   21.4071 H   0  0  0  0  0  0  0  0  0  0  0  0
   20.8843   21.8353   19.8295 H   0  0  0  0  0  0  0  0  0  0  0  0
   19.7706   22.4821   21.0526 H   0  0  0  0  0  0  0  0  0  0  0  0
  1  2  1  0  0  0  0
  1  3  2  0  0  0  0
  1  4  1  0  0  0  0
  4  5  1  0  0  0  0
  4  6  1  0  0  0  0
  4  7  1  0  0  0  0
  7  8  1  0  0  0  0
  7  9  1  0  0  0  0
  7 10  1  0  0  0  0
 10 11  1  0  0  0  0
 10 12  1  0  0  0  0
 10 13  1  0  0  0  0
 13 14  1  0  0  0  0
 13 15  1  0  0  0  0
 13 16  1  0  0  0  0
 16 17  1  0  0  0  0
 16 18  1  0  0  0  0
 16 19  1  0  0  0  0
 19 20  1  0  0  0  0
 19 21  1  0  0  0  0
 19 22  1  0  0  0  0
 22 23  1  0  0  0  0
 22 24  1  0  0  0  0
 22 25  1  0  0  0  0
M  END
> <VConfSearch Rank>
455

> <Conf_Id>
9

> <Delta U+W>
1.764

> <U+W>
-49.865

> <U>
10.902

> <W>
-60.768

> <W(PB)>
-63.223

> <W(SA)>
2.456

> <Valence>
9.445

> <Coulomb>
0.778

> <VdW>
0.679

> <VdW6>
-10.007

> <VdW12>
10.687

> <Bond>
0.201

> <Angle>
3.198

> <Pdih>
6.040

> <Idih>
0.006

> <Tether>
0.000

$$$$
VeraChem MOL file


 25 24  0  0  0  0  0  0  0  0999 V2000     
   19.7639   21.5213   20.5670 C   0  0  0  0  0  0  0  0  0  0  0  0
   20.2394   22.4202   21.2323 O   0  5  0  0  0  0  0  0  0  0  0  0
   19.6757   21.5545   19.3554 O   0  0  0  0  0  0  0  0  0  0  0  0
   19.2690   20.2742   21.2904 C   0  0  0  0  0  0  0  0  0  0  0  0
   18.4157   19.8745   20.7296 H   0  0  0  0  0  0  0  0  0  0  0  0
   18.8904   20.5834   22.2695 H   0  0  0  0  0  0  0  0  0  0  0  0
   20.3677   19.1878   21.4326 C   0  0  0  0  0  0  0  0  0  0  0  0
   20.7030   18.9128   20.4229 H   0  0  0  0  0  0  0  0  0  0  0  0
   21.2472   19.6037   21.9435 H   0  0  0  0  0  0  0  0  0  0  0  0
   19.8810   17.9078   22.1584 C   0  0  0  0  0  0  0  0  0  0  0  0
   20.3836   17.0444   21.7013 H   0  0  0  0  0  0  0  0  0  0  0  0
   18.8074   17.7548   21.9833 H   0  0  0  0  0  0  0  0  0  0  0  0
   20.1842   17.8711   23.6774 C   0  0  0  0  0  0  0  0  0  0  0  0
   19.8743   16.8921   24.0674 H   0  0  0  0  0  0  0  0  0  0  0  0
   21.2700   17.9341   23.8275 H   0  0  0  0  0  0  0  0  0  0  0  0
   19.4800   18.9814   24.4927 C   0  0  0  0  0  0  0  0  0  0  0  0
   18.4169   19.0096   24.2183 H   0  0  0  0  0  0  0  0  0  0  0  0
   19.9032   19.9598   24.2300 H   0  0  0  0  0  0  0  0  0  0  0  0
   19.5893   18.7801   26.0221 C   0  0  0  0  0  0  0  0  0  0  0  0
   18.9849   19.5486   26.5233 H   0  0  0  0  0  0  0  0  0  0  0  0
   19.1527   17.8112   26.3012 H   0  0  0  0  0  0  0  0  0  0  0  0
   21.0393   18.8663   26.5459 C   0  0  0  0  0  0  0  0  0  0  0  0
   21.5054   19.8173   26.2568 H   0  0  0  0  0  0  0  0  0  0  0  0
   21.0566   18.8004   27.6415 H   0  0  0  0  0  0  0  0  0  0  0  0
   21.6556   18.0475   26.1537 H   0  0  0  0  0  0  0  0  0  0  0  0
  1  2  1  0  0  0  0
  1  3  2  0  0  0  0
  1  4  1  0  0  0  0
  4  5  1  0  0  0  0
  4  6  1  0  0  0  0
  4  7  1  0  0  0  0
  7  8  1  0  0  0  0
  7  9  1  0  0  0  0
  7 10  1  0  0  0  0
 10 11  1  0  0  0  0
 10 12  1  0  0  0  0
 10 13  1  0  0  0  0
 13 14  1  0  0  0  0
 13 15  1  0  0  0  0
 13 16  1  0  0  0  0
 16 17  1  0  0  0  0
 16 18  1  0  0  0  0
 16 19  1  0  0  0  0
 19 20  1  0  0  0  0
 19 21  1  0  0  0  0
 19 22  1  0  0  0  0
 22 23  1  0  0  0  0
 22 24  1  0  0  0  0
 22 25  1  0  0  0  0
M  END
> <VConfSearch Rank>
456

> <Conf_Id>
89

> <Delta U+W>
2.903

> <U+W>
-48.726

> <U>
10.996

> <W>
-59.723

> <W(PB)>
-62.151

> <W(SA)>
2.428

> <Valence>
10.985

> <Coulomb>
-0.995

> <VdW>
1.006

> <VdW6>
-10.062

> <VdW12>
11.069

> <Bond>
0.238

> <Angle>
3.202

> <Pdih>
7.544

> <Idih>
0.001

> <Tether>
0.000

$$$$
VeraChem MOL file


 25 24  0  0  0  0  0  0  0  0999 V2000     
   21.8021   18.1787   26.3726 C   0  0  0  0  0  0  0  0  0  0  0  0
   20.8883   17.6649   26.9876 O   0  5  0  0  0  0  0  0  0  0  0  0
   22.7863   17.5696   26.0011 O   0  0  0  0  0  0  0  0  0  0  0  0
   21.7379   19.6822   26.1105 C   0  0  0  0  0  0  0  0  0  0  0  0
   22.5715   20.1268   26.6664 H   0  0  0  0  0  0  0  0  0  0  0  0
   20.8175   20.0826   26.5525 H   0  0  0  0  0  0  0  0  0  0  0  0
   21.8457   20.1012   24.6171 C   0  0  0  0  0  0  0  0  0  0  0  0
   22.1716   21.1496   24.5834 H   0  0  0  0  0  0  0  0  0  0  0  0
   22.6381   19.5233   24.1214 H   0  0  0  0  0  0  0  0  0  0  0  0
   20.5266   19.9931   23.8121 C   0  0  0  0  0  0  0  0  0  0  0  0
   20.6912   20.4723   22.8391 H   0  0  0  0  0  0  0  0  0  0  0  0
   19.7397   20.5732   24.3130 H   0  0  0  0  0  0  0  0  0  0  0  0
   20.0407   18.5401   23.5911 C   0  0  0  0  0  0  0  0  0  0  0  0
   20.8461   17.9403   23.1459 H   0  0  0  0  0  0  0  0  0  0  0  0
   19.8124   18.0839   24.5620 H   0  0  0  0  0  0  0  0  0  0  0  0
   18.7702   18.4399   22.7129 C   0  0  0  0  0  0  0  0  0  0  0  0
   17.9757   19.0660   23.1415 H   0  0  0  0  0  0  0  0  0  0  0  0
   18.4040   17.4049   22.7520 H   0  0  0  0  0  0  0  0  0  0  0  0
   19.0042   18.8295   21.2354 C   0  0  0  0  0  0  0  0  0  0  0  0
   19.2919   19.8862   21.1617 H   0  0  0  0  0  0  0  0  0  0  0  0
   19.8362   18.2411   20.8246 H   0  0  0  0  0  0  0  0  0  0  0  0
   17.7413   18.5947   20.3823 C   0  0  0  0  0  0  0  0  0  0  0  0
   16.8992   19.1925   20.7552 H   0  0  0  0  0  0  0  0  0  0  0  0
   17.9220   18.8786   19.3374 H   0  0  0  0  0  0  0  0  0  0  0  0
   17.4457   17.5375   20.3997 H   0  0  0  0  0  0  0  0  0  0  0  0
  1  2  1  0  0  0  0
  1  3  2  0  0  0  0
  1  4  1  0  0  0  0
  4  5  1  0  0  0  0
  4  6  1  0  0  0  0
  4  7  1  0  0  0  0
  7  8  1  0  0  0  0
  7  9  1  0  0  0  0
  7 10  1  0  0  0  0
 10 11  1  0  0  0  0
 10 12  1  0  0  0  0
 10 13  1  0  0  0  0
 13 14  1  0  0  0  0
 13 15  1  0  0  0  0
 13 16  1  0  0  0  0
 16 17  1  0  0  0  0
 16 18  1  0  0  0  0
 16 19  1  0  0  0  0
 19 20  1  0  0  0  0
 19 21  1  0  0  0  0
 19 22  1  0  0  0  0
 22 23  1  0  0  0  0
 22 24  1  0  0  0  0
 22 25  1  0  0  0  0
M  END
> <VConfSearch Rank>
457

> <Conf_Id>
114

> <Delta U+W>
2.758

> <U+W>
-48.871

> <U>
11.422

> <W>
-60.293

> <W(PB)>
-62.719

> <W(SA)>
2.425

> <Valence>
10.135

> <Coulomb>
0.369

> <VdW>
0.918

> <VdW6>
-10.482

> <VdW12>
11.400

> <Bond>
0.245

> <Angle>
3.539

> <Pdih>
6.346

> <Idih>
0.006

> <Tether>
0.000

$$$$
VeraChem MOL file


 25 24  0  0  0  0  0  0  0  0999 V2000     
   17.4200   21.6976   23.5573 C   0  0  0  0  0  0  0  0  0  0  0  0
   17.6325   22.3387   24.5677 O   0  5  0  0  0  0  0  0  0  0  0  0
   17.4200   22.1801   22.4419 O   0  0  0  0  0  0  0  0  0  0  0  0
   17.1159   20.2085   23.6963 C   0  0  0  0  0  0  0  0  0  0  0  0
   16.2539   19.9882   23.0556 H   0  0  0  0  0  0  0  0  0  0  0  0
   16.8030   20.0101   24.7285 H   0  0  0  0  0  0  0  0  0  0  0  0
   18.3000   19.2857   23.3074 C   0  0  0  0  0  0  0  0  0  0  0  0
   17.9555   18.2428   23.3114 H   0  0  0  0  0  0  0  0  0  0  0  0
   18.6057   19.5156   22.2783 H   0  0  0  0  0  0  0  0  0  0  0  0
   19.5034   19.4301   24.2697 C   0  0  0  0  0  0  0  0  0  0  0  0
   19.1528   19.2881   25.3011 H   0  0  0  0  0  0  0  0  0  0  0  0
   19.9032   20.4523   24.2176 H   0  0  0  0  0  0  0  0  0  0  0  0
   20.6407   18.4172   23.9954 C   0  0  0  0  0  0  0  0  0  0  0  0
   21.3715   18.4999   24.8098 H   0  0  0  0  0  0  0  0  0  0  0  0
   20.2415   17.3948   24.0377 H   0  0  0  0  0  0  0  0  0  0  0  0
   21.3547   18.6443   22.6399 C   0  0  0  0  0  0  0  0  0  0  0  0
   21.7506   19.6681   22.5967 H   0  0  0  0  0  0  0  0  0  0  0  0
   20.6260   18.5575   21.8241 H   0  0  0  0  0  0  0  0  0  0  0  0
   22.4963   17.6362   22.3702 C   0  0  0  0  0  0  0  0  0  0  0  0
   22.1062   16.6105   22.4241 H   0  0  0  0  0  0  0  0  0  0  0  0
   22.8540   17.7779   21.3410 H   0  0  0  0  0  0  0  0  0  0  0  0
   23.6924   17.7897   23.3350 C   0  0  0  0  0  0  0  0  0  0  0  0
   24.5105   17.1196   23.0409 H   0  0  0  0  0  0  0  0  0  0  0  0
   24.0772   18.8178   23.3233 H   0  0  0  0  0  0  0  0  0  0  0  0
   23.4124   17.5380   24.3654 H   0  0  0  0  0  0  0  0  0  0  0  0
  1  2  1  0  0  0  0
  1  3  2  0  0  0  0
  1  4  1  0  0  0  0
  4  5  1  0  0  0  0
  4  6  1  0  0  0  0
  4  7  1  0  0  0  0
  7  8  1  0  0  0  0
  7  9  1  0  0  0  0
  7 10  1  0  0  0  0
 10 11  1  0  0  0  0
 10 12  1  0  0  0  0
 10 13  1  0  0  0  0
 13 14  1  0  0  0  0
 13 15  1  0  0  0  0
 13 16  1  0  0  0  0
 16 17  1  0  0  0  0
 16 18  1  0  0  0  0
 16 19  1  0  0  0  0
 19 20  1  0  0  0  0
 19 21  1  0  0  0  0
 19 22  1  0  0  0  0
 22 23  1  0  0  0  0
 22 24  1  0  0  0  0
 22 25  1  0  0  0  0
M  END
> <VConfSearch Rank>
458

> <Conf_Id>
87

> <Delta U+W>
1.453

> <U+W>
-50.176

> <U>
9.763

> <W>
-59.940

> <W(PB)>
-62.392

> <W(SA)>
2.452

> <Valence>
8.883

> <Coulomb>
-0.122

> <VdW>
1.003

> <VdW6>
-9.782

> <VdW12>
10.785

> <Bond>
0.212

> <Angle>
2.940

> <Pdih>
5.730

> <Idih>
0.001

> <Tether>
0.000

$$$$
VeraChem MOL file


 25 24  0  0  0  0  0  0  0  0999 V2000     
   18.6807   15.6386   24.6732 C   0  0  0  0  0  0  0  0  0  0  0  0
   19.0863   14.8637   23.8296 O   0  5  0  0  0  0  0  0  0  0  0  0
   18.5383   15.3453   25.8439 O   0  0  0  0  0  0  0  0  0  0  0  0
   18.3492   17.0630   24.2426 C   0  0  0  0  0  0  0  0  0  0  0  0
   17.5233   17.4241   24.8671 H   0  0  0  0  0  0  0  0  0  0  0  0
   17.9844   17.0303   23.2090 H   0  0  0  0  0  0  0  0  0  0  0  0
   19.5608   18.0212   24.3508 C   0  0  0  0  0  0  0  0  0  0  0  0
   19.9204   18.0371   25.3889 H   0  0  0  0  0  0  0  0  0  0  0  0
   20.3800   17.6287   23.7338 H   0  0  0  0  0  0  0  0  0  0  0  0
   19.1995   19.4559   23.9019 C   0  0  0  0  0  0  0  0  0  0  0  0
   18.3345   19.8047   24.4822 H   0  0  0  0  0  0  0  0  0  0  0  0
   18.8781   19.4470   22.8521 H   0  0  0  0  0  0  0  0  0  0  0  0
   20.3549   20.4706   24.0910 C   0  0  0  0  0  0  0  0  0  0  0  0
   19.9994   21.4697   23.8066 H   0  0  0  0  0  0  0  0  0  0  0  0
   20.5977   20.5353   25.1603 H   0  0  0  0  0  0  0  0  0  0  0  0
   21.6548   20.1485   23.3072 C   0  0  0  0  0  0  0  0  0  0  0  0
   22.1011   19.2283   23.7061 H   0  0  0  0  0  0  0  0  0  0  0  0
   22.3876   20.9426   23.5041 H   0  0  0  0  0  0  0  0  0  0  0  0
   21.4814   19.9991   21.7756 C   0  0  0  0  0  0  0  0  0  0  0  0
   22.4564   19.7487   21.3355 H   0  0  0  0  0  0  0  0  0  0  0  0
   20.8203   19.1516   21.5511 H   0  0  0  0  0  0  0  0  0  0  0  0
   20.9421   21.2759   21.0951 C   0  0  0  0  0  0  0  0  0  0  0  0
   21.5800   22.1403   21.3203 H   0  0  0  0  0  0  0  0  0  0  0  0
   20.9159   21.1488   20.0052 H   0  0  0  0  0  0  0  0  0  0  0  0
   19.9219   21.5043   21.4284 H   0  0  0  0  0  0  0  0  0  0  0  0
  1  2  1  0  0  0  0
  1  3  2  0  0  0  0
  1  4  1  0  0  0  0
  4  5  1  0  0  0  0
  4  6  1  0  0  0  0
  4  7  1  0  0  0  0
  7  8  1  0  0  0  0
  7  9  1  0  0  0  0
  7 10  1  0  0  0  0
 10 11  1  0  0  0  0
 10 12  1  0  0  0  0
 10 13  1  0  0  0  0
 13 14  1  0  0  0  0
 13 15  1  0  0  0  0
 13 16  1  0  0  0  0
 16 17  1  0  0  0  0
 16 18  1  0  0  0  0
 16 19  1  0  0  0  0
 19 20  1  0  0  0  0
 19 21  1  0  0  0  0
 19 22  1  0  0  0  0
 22 23  1  0  0  0  0
 22 24  1  0  0  0  0
 22 25  1  0  0  0  0
M  END
> <VConfSearch Rank>
459

> <Conf_Id>
29

> <Delta U+W>
0.850

> <U+W>
-50.780

> <U>
8.646

> <W>
-59.426

> <W(PB)>
-61.868

> <W(SA)>
2.442

> <Valence>
8.924

> <Coulomb>
-1.171

> <VdW>
0.894

> <VdW6>
-10.223

> <VdW12>
11.117

> <Bond>
0.231

> <Angle>
3.232

> <Pdih>
5.461

> <Idih>
0.001

> <Tether>
0.000

$$$$
VeraChem MOL file


 25 24  0  0  0  0  0  0  0  0999 V2000     
   17.1568   17.2025   25.2721 C   0  0  0  0  0  0  0  0  0  0  0  0
   16.2373   17.9967   25.2479 O   0  5  0  0  0  0  0  0  0  0  0  0
   17.3446   16.4175   26.1805 O   0  0  0  0  0  0  0  0  0  0  0  0
   18.1402   17.2039   24.1072 C   0  0  0  0  0  0  0  0  0  0  0  0
   17.5930   17.4863   23.1997 H   0  0  0  0  0  0  0  0  0  0  0  0
   18.4995   16.1779   23.9636 H   0  0  0  0  0  0  0  0  0  0  0  0
   19.3350   18.1634   24.3301 C   0  0  0  0  0  0  0  0  0  0  0  0
   18.9496   19.1789   24.4910 H   0  0  0  0  0  0  0  0  0  0  0  0
   19.8681   17.8737   25.2461 H   0  0  0  0  0  0  0  0  0  0  0  0
   20.3121   18.1509   23.1318 C   0  0  0  0  0  0  0  0  0  0  0  0
   19.7901   18.4788   22.2232 H   0  0  0  0  0  0  0  0  0  0  0  0
   20.6324   17.1173   22.9427 H   0  0  0  0  0  0  0  0  0  0  0  0
   21.5750   19.0195   23.3569 C   0  0  0  0  0  0  0  0  0  0  0  0
   22.1337   18.6170   24.2126 H   0  0  0  0  0  0  0  0  0  0  0  0
   22.2401   18.9093   22.4903 H   0  0  0  0  0  0  0  0  0  0  0  0
   21.3066   20.5273   23.6064 C   0  0  0  0  0  0  0  0  0  0  0  0
   22.2709   21.0382   23.7312 H   0  0  0  0  0  0  0  0  0  0  0  0
   20.7811   20.6495   24.5626 H   0  0  0  0  0  0  0  0  0  0  0  0
   20.5016   21.2465   22.4961 C   0  0  0  0  0  0  0  0  0  0  0  0
   19.4977   20.8092   22.4137 H   0  0  0  0  0  0  0  0  0  0  0  0
   20.3533   22.2937   22.7933 H   0  0  0  0  0  0  0  0  0  0  0  0
   21.1990   21.2146   21.1189 C   0  0  0  0  0  0  0  0  0  0  0  0
   21.2726   20.1901   20.7331 H   0  0  0  0  0  0  0  0  0  0  0  0
   20.6330   21.8060   20.3876 H   0  0  0  0  0  0  0  0  0  0  0  0
   22.2119   21.6330   21.1818 H   0  0  0  0  0  0  0  0  0  0  0  0
  1  2  1  0  0  0  0
  1  3  2  0  0  0  0
  1  4  1  0  0  0  0
  4  5  1  0  0  0  0
  4  6  1  0  0  0  0
  4  7  1  0  0  0  0
  7  8  1  0  0  0  0
  7  9  1  0  0  0  0
  7 10  1  0  0  0  0
 10 11  1  0  0  0  0
 10 12  1  0  0  0  0
 10 13  1  0  0  0  0
 13 14  1  0  0  0  0
 13 15  1  0  0  0  0
 13 16  1  0  0  0  0
 16 17  1  0  0  0  0
 16 18  1  0  0  0  0
 16 19  1  0  0  0  0
 19 20  1  0  0  0  0
 19 21  1  0  0  0  0
 19 22  1  0  0  0  0
 22 23  1  0  0  0  0
 22 24  1  0  0  0  0
 22 25  1  0  0  0  0
M  END
> <VConfSearch Rank>
460

> <Conf_Id>
30

> <Delta U+W>
0.843

> <U+W>
-50.787

> <U>
8.647

> <W>
-59.434

> <W(PB)>
-61.861

> <W(SA)>
2.428

> <Valence>
8.924

> <Coulomb>
-1.170

> <VdW>
0.894

> <VdW6>
-10.224

> <VdW12>
11.118

> <Bond>
0.231

> <Angle>
3.232

> <Pdih>
5.460

> <Idih>
0.000

> <Tether>
0.000

$$$$
VeraChem MOL file


 25 24  0  0  0  0  0  0  0  0999 V2000     
   16.3776   19.6632   20.2591 C   0  0  0  0  0  0  0  0  0  0  0  0
   15.9436   20.6294   20.8563 O   0  5  0  0  0  0  0  0  0  0  0  0
   15.8366   19.1903   19.2795 O   0  0  0  0  0  0  0  0  0  0  0  0
   17.6636   18.9890   20.7400 C   0  0  0  0  0  0  0  0  0  0  0  0
   18.3725   19.0034   19.9038 H   0  0  0  0  0  0  0  0  0  0  0  0
   17.4260   17.9378   20.9413 H   0  0  0  0  0  0  0  0  0  0  0  0
   18.3177   19.6285   21.9936 C   0  0  0  0  0  0  0  0  0  0  0  0
   18.5472   20.6831   21.7871 H   0  0  0  0  0  0  0  0  0  0  0  0
   17.5998   19.6165   22.8255 H   0  0  0  0  0  0  0  0  0  0  0  0
   19.6073   18.8879   22.4095 C   0  0  0  0  0  0  0  0  0  0  0  0
   20.3234   18.9011   21.5763 H   0  0  0  0  0  0  0  0  0  0  0  0
   19.3755   17.8338   22.6154 H   0  0  0  0  0  0  0  0  0  0  0  0
   20.2564   19.5257   23.6567 C   0  0  0  0  0  0  0  0  0  0  0  0
   20.4884   20.5797   23.4511 H   0  0  0  0  0  0  0  0  0  0  0  0
   19.5405   19.5125   24.4901 H   0  0  0  0  0  0  0  0  0  0  0  0
   21.5459   18.7856   24.0731 C   0  0  0  0  0  0  0  0  0  0  0  0
   22.2619   18.7987   23.2399 H   0  0  0  0  0  0  0  0  0  0  0  0
   21.3141   17.7316   24.2789 H   0  0  0  0  0  0  0  0  0  0  0  0
   22.1947   19.4231   25.3197 C   0  0  0  0  0  0  0  0  0  0  0  0
   22.4298   20.4772   25.1170 H   0  0  0  0  0  0  0  0  0  0  0  0
   21.4819   19.4101   26.1559 H   0  0  0  0  0  0  0  0  0  0  0  0
   23.4821   18.6813   25.7323 C   0  0  0  0  0  0  0  0  0  0  0  0
   24.2256   18.7060   24.9248 H   0  0  0  0  0  0  0  0  0  0  0  0
   23.9298   19.1476   26.6196 H   0  0  0  0  0  0  0  0  0  0  0  0
   23.2706   17.6309   25.9716 H   0  0  0  0  0  0  0  0  0  0  0  0
  1  2  1  0  0  0  0
  1  3  2  0  0  0  0
  1  4  1  0  0  0  0
  4  5  1  0  0  0  0
  4  6  1  0  0  0  0
  4  7  1  0  0  0  0
  7  8  1  0  0  0  0
  7  9  1  0  0  0  0
  7 10  1  0  0  0  0
 10 11  1  0  0  0  0
 10 12  1  0  0  0  0
 10 13  1  0  0  0  0
 13 14  1  0  0  0  0
 13 15  1  0  0  0  0
 13 16  1  0  0  0  0
 16 17  1  0  0  0  0
 16 18  1  0  0  0  0
 16 19  1  0  0  0  0
 19 20  1  0  0  0  0
 19 21  1  0  0  0  0
 19 22  1  0  0  0  0
 22 23  1  0  0  0  0
 22 24  1  0  0  0  0
 22 25  1  0  0  0  0
M  END
> <VConfSearch Rank>
461

> <Conf_Id>
0

> <Delta U+W>
0.000

> <U+W>
-51.629

> <U>
6.586

> <W>
-58.216

> <W(PB)>
-60.757

> <W(SA)>
2.541

> <Valence>
8.027

> <Coulomb>
-2.892

> <VdW>
1.451

> <VdW6>
-7.931

> <VdW12>
9.383

> <Bond>
0.149

> <Angle>
2.726

> <Pdih>
5.152

> <Idih>
0.000

> <Tether>
0.000

$$$$
VeraChem MOL file


 25 24  0  0  0  0  0  0  0  0999 V2000     
   16.3431   16.9052   24.7337 C   0  0  0  0  0  0  0  0  0  0  0  0
   16.5881   15.9724   25.4728 O   0  5  0  0  0  0  0  0  0  0  0  0
   15.3503   17.5990   24.8311 O   0  0  0  0  0  0  0  0  0  0  0  0
   17.3488   17.2380   23.6374 C   0  0  0  0  0  0  0  0  0  0  0  0
   16.7971   17.6430   22.7805 H   0  0  0  0  0  0  0  0  0  0  0  0
   17.8168   16.3022   23.3089 H   0  0  0  0  0  0  0  0  0  0  0  0
   18.4317   18.2438   24.0999 C   0  0  0  0  0  0  0  0  0  0  0  0
   17.9462   19.1699   24.4377 H   0  0  0  0  0  0  0  0  0  0  0  0
   18.9657   17.8292   24.9662 H   0  0  0  0  0  0  0  0  0  0  0  0
   19.4374   18.5644   22.9730 C   0  0  0  0  0  0  0  0  0  0  0  0
   18.9004   18.9776   22.1081 H   0  0  0  0  0  0  0  0  0  0  0  0
   19.9200   17.6364   22.6366 H   0  0  0  0  0  0  0  0  0  0  0  0
   20.5158   19.5671   23.4370 C   0  0  0  0  0  0  0  0  0  0  0  0
   20.0334   20.4951   23.7735 H   0  0  0  0  0  0  0  0  0  0  0  0
   21.0529   19.1541   24.3019 H   0  0  0  0  0  0  0  0  0  0  0  0
   21.5219   19.8881   22.3107 C   0  0  0  0  0  0  0  0  0  0  0  0
   20.9850   20.3012   21.4457 H   0  0  0  0  0  0  0  0  0  0  0  0
   22.0044   18.9602   21.9741 H   0  0  0  0  0  0  0  0  0  0  0  0
   22.5998   20.8902   22.7744 C   0  0  0  0  0  0  0  0  0  0  0  0
   22.1209   21.8205   23.1102 H   0  0  0  0  0  0  0  0  0  0  0  0
   23.1403   20.4795   23.6385 H   0  0  0  0  0  0  0  0  0  0  0  0
   23.6025   21.2082   21.6470 C   0  0  0  0  0  0  0  0  0  0  0  0
   24.3613   21.9217   21.9938 H   0  0  0  0  0  0  0  0  0  0  0  0
   24.1197   20.2991   21.3132 H   0  0  0  0  0  0  0  0  0  0  0  0
   23.0926   21.6501   20.7809 H   0  0  0  0  0  0  0  0  0  0  0  0
  1  2  1  0  0  0  0
  1  3  2  0  0  0  0
  1  4  1  0  0  0  0
  4  5  1  0  0  0  0
  4  6  1  0  0  0  0
  4  7  1  0  0  0  0
  7  8  1  0  0  0  0
  7  9  1  0  0  0  0
  7 10  1  0  0  0  0
 10 11  1  0  0  0  0
 10 12  1  0  0  0  0
 10 13  1  0  0  0  0
 13 14  1  0  0  0  0
 13 15  1  0  0  0  0
 13 16  1  0  0  0  0
 16 17  1  0  0  0  0
 16 18  1  0  0  0  0
 16 19  1  0  0  0  0
 19 20  1  0  0  0  0
 19 21  1  0  0  0  0
 19 22  1  0  0  0  0
 22 23  1  0  0  0  0
 22 24  1  0  0  0  0
 22 25  1  0  0  0  0
M  END
> <VConfSearch Rank>
462

> <Conf_Id>
27

> <Delta U+W>
-1.297

> <U+W>
-52.926

> <U>
5.617

> <W>
-58.543

> <W(PB)>
-61.065

> <W(SA)>
2.522

> <Valence>
7.531

> <Coulomb>
-2.818

> <VdW>
0.904

> <VdW6>
-7.640

> <VdW12>
8.544

> <Bond>
0.115

> <Angle>
2.271

> <Pdih>
5.144

> <Idih>
0.001

> <Tether>
0.000

$$$$
VeraChem MOL file


 25 24  0  0  0  0  0  0  0  0999 V2000     
   21.6360   22.1040   25.6112 C   0  0  0  0  0  0  0  0  0  0  0  0
   21.3246   22.0177   26.7828 O   0  5  0  0  0  0  0  0  0  0  0  0
   22.7787   22.0042   25.2097 O   0  0  0  0  0  0  0  0  0  0  0  0
   20.5318   22.3691   24.5918 C   0  0  0  0  0  0  0  0  0  0  0  0
   20.9891   22.7551   23.6727 H   0  0  0  0  0  0  0  0  0  0  0  0
   19.9006   23.1707   24.9931 H   0  0  0  0  0  0  0  0  0  0  0  0
   19.6559   21.1293   24.2746 C   0  0  0  0  0  0  0  0  0  0  0  0
   19.2274   20.7380   25.2079 H   0  0  0  0  0  0  0  0  0  0  0  0
   18.8112   21.4412   23.6454 H   0  0  0  0  0  0  0  0  0  0  0  0
   20.4443   20.0136   23.5525 C   0  0  0  0  0  0  0  0  0  0  0  0
   21.2812   19.6838   24.1836 H   0  0  0  0  0  0  0  0  0  0  0  0
   20.8818   20.4132   22.6273 H   0  0  0  0  0  0  0  0  0  0  0  0
   19.5461   18.8032   23.2182 C   0  0  0  0  0  0  0  0  0  0  0  0
   19.1092   18.4043   24.1440 H   0  0  0  0  0  0  0  0  0  0  0  0
   18.7102   19.1301   22.5846 H   0  0  0  0  0  0  0  0  0  0  0  0
   20.3335   17.6877   22.4975 C   0  0  0  0  0  0  0  0  0  0  0  0
   21.1696   17.3608   23.1309 H   0  0  0  0  0  0  0  0  0  0  0  0
   20.7708   18.0865   21.5719 H   0  0  0  0  0  0  0  0  0  0  0  0
   19.4362   16.4774   22.1636 C   0  0  0  0  0  0  0  0  0  0  0  0
   18.9984   16.0747   23.0875 H   0  0  0  0  0  0  0  0  0  0  0  0
   18.5998   16.8004   21.5284 H   0  0  0  0  0  0  0  0  0  0  0  0
   20.2263   15.3657   21.4442 C   0  0  0  0  0  0  0  0  0  0  0  0
   21.0510   15.0015   22.0707 H   0  0  0  0  0  0  0  0  0  0  0  0
   19.5734   14.5137   21.2145 H   0  0  0  0  0  0  0  0  0  0  0  0
   20.6494   15.7327   20.4998 H   0  0  0  0  0  0  0  0  0  0  0  0
  1  2  1  0  0  0  0
  1  3  2  0  0  0  0
  1  4  1  0  0  0  0
  4  5  1  0  0  0  0
  4  6  1  0  0  0  0
  4  7  1  0  0  0  0
  7  8  1  0  0  0  0
  7  9  1  0  0  0  0
  7 10  1  0  0  0  0
 10 11  1  0  0  0  0
 10 12  1  0  0  0  0
 10 13  1  0  0  0  0
 13 14  1  0  0  0  0
 13 15  1  0  0  0  0
 13 16  1  0  0  0  0
 16 17  1  0  0  0  0
 16 18  1  0  0  0  0
 16 19  1  0  0  0  0
 19 20  1  0  0  0  0
 19 21  1  0  0  0  0
 19 22  1  0  0  0  0
 22 23  1  0  0  0  0
 22 24  1  0  0  0  0
 22 25  1  0  0  0  0
M  END
> <VConfSearch Rank>
463

> <Conf_Id>
37

> <Delta U+W>
-0.230

> <U+W>
-51.860

> <U>
7.816

> <W>
-59.675

> <W(PB)>
-62.180

> <W(SA)>
2.505

> <Valence>
7.785

> <Coulomb>
-0.713

> <VdW>
0.744

> <VdW6>
-8.514

> <VdW12>
9.259

> <Bond>
0.136

> <Angle>
2.433

> <Pdih>
5.216

> <Idih>
0.000

> <Tether>
0.000

$$$$
VeraChem MOL file


 25 24  0  0  0  0  0  0  0  0999 V2000     
   18.6660   16.5706   25.9475 C   0  0  0  0  0  0  0  0  0  0  0  0
   19.5559   15.9225   26.4625 O   0  5  0  0  0  0  0  0  0  0  0  0
   17.8448   16.0993   25.1856 O   0  0  0  0  0  0  0  0  0  0  0  0
   18.5665   18.0543   26.2907 C   0  0  0  0  0  0  0  0  0  0  0  0
   18.6767   18.1475   27.3775 H   0  0  0  0  0  0  0  0  0  0  0  0
   17.5570   18.4040   26.0427 H   0  0  0  0  0  0  0  0  0  0  0  0
   19.6280   18.9372   25.5845 C   0  0  0  0  0  0  0  0  0  0  0  0
   19.5717   19.9560   25.9911 H   0  0  0  0  0  0  0  0  0  0  0  0
   20.6320   18.5577   25.8201 H   0  0  0  0  0  0  0  0  0  0  0  0
   19.4340   18.9887   24.0524 C   0  0  0  0  0  0  0  0  0  0  0  0
   18.4244   19.3559   23.8224 H   0  0  0  0  0  0  0  0  0  0  0  0
   19.5063   17.9745   23.6357 H   0  0  0  0  0  0  0  0  0  0  0  0
   20.4812   19.8978   23.3737 C   0  0  0  0  0  0  0  0  0  0  0  0
   20.4088   20.9132   23.7867 H   0  0  0  0  0  0  0  0  0  0  0  0
   21.4904   19.5297   23.6042 H   0  0  0  0  0  0  0  0  0  0  0  0
   20.2885   19.9492   21.8427 C   0  0  0  0  0  0  0  0  0  0  0  0
   19.2792   20.3170   21.6120 H   0  0  0  0  0  0  0  0  0  0  0  0
   20.3607   18.9337   21.4295 H   0  0  0  0  0  0  0  0  0  0  0  0
   21.3353   20.8572   21.1638 C   0  0  0  0  0  0  0  0  0  0  0  0
   21.2648   21.8744   21.5734 H   0  0  0  0  0  0  0  0  0  0  0  0
   22.3462   20.4910   21.3909 H   0  0  0  0  0  0  0  0  0  0  0  0
   21.1394   20.9057   19.6351 C   0  0  0  0  0  0  0  0  0  0  0  0
   20.1468   21.2985   19.3786 H   0  0  0  0  0  0  0  0  0  0  0  0
   21.8917   21.5553   19.1690 H   0  0  0  0  0  0  0  0  0  0  0  0
   21.2363   19.9047   19.1947 H   0  0  0  0  0  0  0  0  0  0  0  0
  1  2  1  0  0  0  0
  1  3  2  0  0  0  0
  1  4  1  0  0  0  0
  4  5  1  0  0  0  0
  4  6  1  0  0  0  0
  4  7  1  0  0  0  0
  7  8  1  0  0  0  0
  7  9  1  0  0  0  0
  7 10  1  0  0  0  0
 10 11  1  0  0  0  0
 10 12  1  0  0  0  0
 10 13  1  0  0  0  0
 13 14  1  0  0  0  0
 13 15  1  0  0  0  0
 13 16  1  0  0  0  0
 16 17  1  0  0  0  0
 16 18  1  0  0  0  0
 16 19  1  0  0  0  0
 19 20  1  0  0  0  0
 19 21  1  0  0  0  0
 19 22  1  0  0  0  0
 22 23  1  0  0  0  0
 22 24  1  0  0  0  0
 22 25  1  0  0  0  0
M  END
> <VConfSearch Rank>
464

> <Conf_Id>
54

> <Delta U+W>
-0.224

> <U+W>
-51.854

> <U>
7.816

> <W>
-59.670

> <W(PB)>
-62.157

> <W(SA)>
2.487

> <Valence>
7.785

> <Coulomb>
-0.713

> <VdW>
0.744

> <VdW6>
-8.515

> <VdW12>
9.259

> <Bond>
0.136

> <Angle>
2.433

> <Pdih>
5.215

> <Idih>
0.000

> <Tether>
0.000

$$$$
VeraChem MOL file


 25 24  0  0  0  0  0  0  0  0999 V2000     
   19.6543   20.6543   27.0396 C   0  0  0  0  0  0  0  0  0  0  0  0
   20.6893   20.3920   27.6200 O   0  5  0  0  0  0  0  0  0  0  0  0
   19.1602   21.7644   27.0139 O   0  0  0  0  0  0  0  0  0  0  0  0
   18.9234   19.5252   26.3182 C   0  0  0  0  0  0  0  0  0  0  0  0
   17.8634   19.5969   26.5888 H   0  0  0  0  0  0  0  0  0  0  0  0
   19.2866   18.5668   26.7086 H   0  0  0  0  0  0  0  0  0  0  0  0
   19.0671   19.5637   24.7744 C   0  0  0  0  0  0  0  0  0  0  0  0
   18.3874   18.8174   24.3445 H   0  0  0  0  0  0  0  0  0  0  0  0
   18.7383   20.5442   24.4029 H   0  0  0  0  0  0  0  0  0  0  0  0
   20.5155   19.2837   24.3057 C   0  0  0  0  0  0  0  0  0  0  0  0
   20.8270   18.2842   24.6388 H   0  0  0  0  0  0  0  0  0  0  0  0
   21.1947   19.9968   24.7928 H   0  0  0  0  0  0  0  0  0  0  0  0
   20.7055   19.4028   22.7745 C   0  0  0  0  0  0  0  0  0  0  0  0
   20.3762   20.3957   22.4393 H   0  0  0  0  0  0  0  0  0  0  0  0
   21.7804   19.3435   22.5618 H   0  0  0  0  0  0  0  0  0  0  0  0
   19.9627   18.3062   21.9717 C   0  0  0  0  0  0  0  0  0  0  0  0
   18.8866   18.3681   22.1770 H   0  0  0  0  0  0  0  0  0  0  0  0
   20.2886   17.3136   22.3108 H   0  0  0  0  0  0  0  0  0  0  0  0
   20.1639   18.4220   20.4425 C   0  0  0  0  0  0  0  0  0  0  0  0
   19.5000   17.7013   19.9454 H   0  0  0  0  0  0  0  0  0  0  0  0
   19.8505   19.4183   20.1012 H   0  0  0  0  0  0  0  0  0  0  0  0
   21.6155   18.1498   19.9912 C   0  0  0  0  0  0  0  0  0  0  0  0
   22.3033   18.9187   20.3642 H   0  0  0  0  0  0  0  0  0  0  0  0
   21.9624   17.1725   20.3514 H   0  0  0  0  0  0  0  0  0  0  0  0
   21.6826   18.1489   18.8955 H   0  0  0  0  0  0  0  0  0  0  0  0
  1  2  1  0  0  0  0
  1  3  2  0  0  0  0
  1  4  1  0  0  0  0
  4  5  1  0  0  0  0
  4  6  1  0  0  0  0
  4  7  1  0  0  0  0
  7  8  1  0  0  0  0
  7  9  1  0  0  0  0
  7 10  1  0  0  0  0
 10 11  1  0  0  0  0
 10 12  1  0  0  0  0
 10 13  1  0  0  0  0
 13 14  1  0  0  0  0
 13 15  1  0  0  0  0
 13 16  1  0  0  0  0
 16 17  1  0  0  0  0
 16 18  1  0  0  0  0
 16 19  1  0  0  0  0
 19 20  1  0  0  0  0
 19 21  1  0  0  0  0
 19 22  1  0  0  0  0
 22 23  1  0  0  0  0
 22 24  1  0  0  0  0
 22 25  1  0  0  0  0
M  END
> <VConfSearch Rank>
465

> <Conf_Id>
101

> <Delta U+W>
1.534

> <U+W>
-50.095

> <U>
9.416

> <W>
-59.512

> <W(PB)>
-61.988

> <W(SA)>
2.476

> <Valence>
8.939

> <Coulomb>
-0.615

> <VdW>
1.092

> <VdW6>
-9.710

> <VdW12>
10.802

> <Bond>
0.216

> <Angle>
2.979

> <Pdih>
5.743

> <Idih>
0.000

> <Tether>
0.000

$$$$
VeraChem MOL file


 25 24  0  0  0  0  0  0  0  0999 V2000     
   23.0502   16.4030   24.2749 C   0  0  0  0  0  0  0  0  0  0  0  0
   24.0112   16.6186   23.5631 O   0  5  0  0  0  0  0  0  0  0  0  0
   23.1131   15.7926   25.3238 O   0  0  0  0  0  0  0  0  0  0  0  0
   21.6946   16.9479   23.8394 C   0  0  0  0  0  0  0  0  0  0  0  0
   20.9200   16.2621   24.2028 H   0  0  0  0  0  0  0  0  0  0  0  0
   21.6632   16.9241   22.7445 H   0  0  0  0  0  0  0  0  0  0  0  0
   21.4287   18.3827   24.3650 C   0  0  0  0  0  0  0  0  0  0  0  0
   21.5653   18.3879   25.4553 H   0  0  0  0  0  0  0  0  0  0  0  0
   22.1817   19.0700   23.9553 H   0  0  0  0  0  0  0  0  0  0  0  0
   20.0097   18.9092   24.0428 C   0  0  0  0  0  0  0  0  0  0  0  0
   19.8728   19.8599   24.5738 H   0  0  0  0  0  0  0  0  0  0  0  0
   19.2587   18.2156   24.4448 H   0  0  0  0  0  0  0  0  0  0  0  0
   19.7632   19.1281   22.5298 C   0  0  0  0  0  0  0  0  0  0  0  0
   20.5131   19.8219   22.1281 H   0  0  0  0  0  0  0  0  0  0  0  0
   19.9077   18.1809   21.9954 H   0  0  0  0  0  0  0  0  0  0  0  0
   18.3380   19.6424   22.2033 C   0  0  0  0  0  0  0  0  0  0  0  0
   17.6055   18.8941   22.5351 H   0  0  0  0  0  0  0  0  0  0  0  0
   18.2305   19.7074   21.1120 H   0  0  0  0  0  0  0  0  0  0  0  0
   17.9655   21.0129   22.8218 C   0  0  0  0  0  0  0  0  0  0  0  0
   16.9383   21.2629   22.5227 H   0  0  0  0  0  0  0  0  0  0  0  0
   17.9525   20.9444   23.9174 H   0  0  0  0  0  0  0  0  0  0  0  0
   18.9028   22.1585   22.3823 C   0  0  0  0  0  0  0  0  0  0  0  0
   18.9498   22.2298   21.2879 H   0  0  0  0  0  0  0  0  0  0  0  0
   18.5419   23.1201   22.7693 H   0  0  0  0  0  0  0  0  0  0  0  0
   19.9210   22.0081   22.7625 H   0  0  0  0  0  0  0  0  0  0  0  0
  1  2  1  0  0  0  0
  1  3  2  0  0  0  0
  1  4  1  0  0  0  0
  4  5  1  0  0  0  0
  4  6  1  0  0  0  0
  4  7  1  0  0  0  0
  7  8  1  0  0  0  0
  7  9  1  0  0  0  0
  7 10  1  0  0  0  0
 10 11  1  0  0  0  0
 10 12  1  0  0  0  0
 10 13  1  0  0  0  0
 13 14  1  0  0  0  0
 13 15  1  0  0  0  0
 13 16  1  0  0  0  0
 16 17  1  0  0  0  0
 16 18  1  0  0  0  0
 16 19  1  0  0  0  0
 19 20  1  0  0  0  0
 19 21  1  0  0  0  0
 19 22  1  0  0  0  0
 22 23  1  0  0  0  0
 22 24  1  0  0  0  0
 22 25  1  0  0  0  0
M  END
> <VConfSearch Rank>
466

> <Conf_Id>
75

> <Delta U+W>
1.014

> <U+W>
-50.615

> <U>
8.474

> <W>
-59.089

> <W(PB)>
-61.530

> <W(SA)>
2.441

> <Valence>
9.080

> <Coulomb>
-1.772

> <VdW>
1.165

> <VdW6>
-9.830

> <VdW12>
10.996

> <Bond>
0.240

> <Angle>
3.225

> <Pdih>
5.615

> <Idih>
0.001

> <Tether>
0.000

$$$$
VeraChem MOL file


 25 24  0  0  0  0  0  0  0  0999 V2000     
   16.3850   20.2426   25.0339 C   0  0  0  0  0  0  0  0  0  0  0  0
   16.4840   20.1181   26.2386 O   0  5  0  0  0  0  0  0  0  0  0  0
   15.6004   20.9998   24.4974 O   0  0  0  0  0  0  0  0  0  0  0  0
   17.3113   19.4188   24.1466 C   0  0  0  0  0  0  0  0  0  0  0  0
   16.7774   19.1897   23.2165 H   0  0  0  0  0  0  0  0  0  0  0  0
   17.5073   18.4652   24.6514 H   0  0  0  0  0  0  0  0  0  0  0  0
   18.6445   20.1418   23.8337 C   0  0  0  0  0  0  0  0  0  0  0  0
   18.4308   21.1001   23.3404 H   0  0  0  0  0  0  0  0  0  0  0  0
   19.1601   20.3756   24.7755 H   0  0  0  0  0  0  0  0  0  0  0  0
   19.5651   19.2871   22.9358 C   0  0  0  0  0  0  0  0  0  0  0  0
   19.0455   19.0555   21.9959 H   0  0  0  0  0  0  0  0  0  0  0  0
   19.7644   18.3285   23.4293 H   0  0  0  0  0  0  0  0  0  0  0  0
   20.8927   20.0160   22.6212 C   0  0  0  0  0  0  0  0  0  0  0  0
   20.6530   20.9533   22.1006 H   0  0  0  0  0  0  0  0  0  0  0  0
   21.4008   20.3039   23.5516 H   0  0  0  0  0  0  0  0  0  0  0  0
   21.8507   19.1887   21.7267 C   0  0  0  0  0  0  0  0  0  0  0  0
   22.3704   19.8817   21.0511 H   0  0  0  0  0  0  0  0  0  0  0  0
   21.2776   18.5128   21.0774 H   0  0  0  0  0  0  0  0  0  0  0  0
   22.9321   18.3937   22.4997 C   0  0  0  0  0  0  0  0  0  0  0  0
   23.6000   17.9145   21.7707 H   0  0  0  0  0  0  0  0  0  0  0  0
   23.5568   19.0885   23.0779 H   0  0  0  0  0  0  0  0  0  0  0  0
   22.3680   17.3089   23.4406 C   0  0  0  0  0  0  0  0  0  0  0  0
   21.6856   16.6373   22.9036 H   0  0  0  0  0  0  0  0  0  0  0  0
   23.1817   16.7021   23.8583 H   0  0  0  0  0  0  0  0  0  0  0  0
   21.8258   17.7581   24.2819 H   0  0  0  0  0  0  0  0  0  0  0  0
  1  2  1  0  0  0  0
  1  3  2  0  0  0  0
  1  4  1  0  0  0  0
  4  5  1  0  0  0  0
  4  6  1  0  0  0  0
  4  7  1  0  0  0  0
  7  8  1  0  0  0  0
  7  9  1  0  0  0  0
  7 10  1  0  0  0  0
 10 11  1  0  0  0  0
 10 12  1  0  0  0  0
 10 13  1  0  0  0  0
 13 14  1  0  0  0  0
 13 15  1  0  0  0  0
 13 16  1  0  0  0  0
 16 17  1  0  0  0  0
 16 18  1  0  0  0  0
 16 19  1  0  0  0  0
 19 20  1  0  0  0  0
 19 21  1  0  0  0  0
 19 22  1  0  0  0  0
 22 23  1  0  0  0  0
 22 24  1  0  0  0  0
 22 25  1  0  0  0  0
M  END
> <VConfSearch Rank>
467

> <Conf_Id>
125

> <Delta U+W>
2.314

> <U+W>
-49.315

> <U>
9.740

> <W>
-59.054

> <W(PB)>
-61.488

> <W(SA)>
2.433

> <Valence>
10.506

> <Coulomb>
-1.761

> <VdW>
0.994

> <VdW6>
-9.209

> <VdW12>
10.203

> <Bond>
0.193

> <Angle>
2.979

> <Pdih>
7.334

> <Idih>
0.001

> <Tether>
0.000

$$$$
VeraChem MOL file


 25 24  0  0  0  0  0  0  0  0999 V2000     
   23.9788   17.9374   22.7910 C   0  0  0  0  0  0  0  0  0  0  0  0
   23.9839   17.2958   21.7590 O   0  5  0  0  0  0  0  0  0  0  0  0
   24.9358   18.0232   23.5350 O   0  0  0  0  0  0  0  0  0  0  0  0
   22.6931   18.6546   23.1867 C   0  0  0  0  0  0  0  0  0  0  0  0
   22.1928   18.9734   22.2655 H   0  0  0  0  0  0  0  0  0  0  0  0
   22.9658   19.5611   23.7400 H   0  0  0  0  0  0  0  0  0  0  0  0
   21.7511   17.7682   24.0425 C   0  0  0  0  0  0  0  0  0  0  0  0
   21.4475   16.8870   23.4606 H   0  0  0  0  0  0  0  0  0  0  0  0
   22.3130   17.3897   24.9077 H   0  0  0  0  0  0  0  0  0  0  0  0
   20.4961   18.5144   24.5547 C   0  0  0  0  0  0  0  0  0  0  0  0
   20.8030   19.3892   25.1442 H   0  0  0  0  0  0  0  0  0  0  0  0
   19.9535   17.8512   25.2422 H   0  0  0  0  0  0  0  0  0  0  0  0
   19.5399   18.9583   23.4234 C   0  0  0  0  0  0  0  0  0  0  0  0
   20.0520   19.6744   22.7695 H   0  0  0  0  0  0  0  0  0  0  0  0
   19.2740   18.0897   22.8058 H   0  0  0  0  0  0  0  0  0  0  0  0
   18.2528   19.6044   23.9865 C   0  0  0  0  0  0  0  0  0  0  0  0
   18.5122   20.5009   24.5662 H   0  0  0  0  0  0  0  0  0  0  0  0
   17.7795   18.9055   24.6896 H   0  0  0  0  0  0  0  0  0  0  0  0
   17.2219   19.9747   22.8948 C   0  0  0  0  0  0  0  0  0  0  0  0
   16.9561   19.0791   22.3164 H   0  0  0  0  0  0  0  0  0  0  0  0
   16.2980   20.3138   23.3834 H   0  0  0  0  0  0  0  0  0  0  0  0
   17.7140   21.0833   21.9391 C   0  0  0  0  0  0  0  0  0  0  0  0
   18.5695   20.7460   21.3406 H   0  0  0  0  0  0  0  0  0  0  0  0
   16.9158   21.3723   21.2433 H   0  0  0  0  0  0  0  0  0  0  0  0
   18.0158   21.9787   22.4980 H   0  0  0  0  0  0  0  0  0  0  0  0
  1  2  1  0  0  0  0
  1  3  2  0  0  0  0
  1  4  1  0  0  0  0
  4  5  1  0  0  0  0
  4  6  1  0  0  0  0
  4  7  1  0  0  0  0
  7  8  1  0  0  0  0
  7  9  1  0  0  0  0
  7 10  1  0  0  0  0
 10 11  1  0  0  0  0
 10 12  1  0  0  0  0
 10 13  1  0  0  0  0
 13 14  1  0  0  0  0
 13 15  1  0  0  0  0
 13 16  1  0  0  0  0
 16 17  1  0  0  0  0
 16 18  1  0  0  0  0
 16 19  1  0  0  0  0
 19 20  1  0  0  0  0
 19 21  1  0  0  0  0
 19 22  1  0  0  0  0
 22 23  1  0  0  0  0
 22 24  1  0  0  0  0
 22 25  1  0  0  0  0
M  END
> <VConfSearch Rank>
468

> <Conf_Id>
4

> <Delta U+W>
0.189

> <U+W>
-51.441

> <U>
7.701

> <W>
-59.141

> <W(PB)>
-61.609

> <W(SA)>
2.467

> <Valence>
8.550

> <Coulomb>
-1.988

> <VdW>
1.139

> <VdW6>
-8.988

> <VdW12>
10.127

> <Bond>
0.191

> <Angle>
2.738

> <Pdih>
5.621

> <Idih>
0.001

> <Tether>
0.000

$$$$
VeraChem MOL file


 25 24  0  0  0  0  0  0  0  0999 V2000     
   24.0035   20.1404   22.9628 C   0  0  0  0  0  0  0  0  0  0  0  0
   24.1431   20.5538   21.8286 O   0  5  0  0  0  0  0  0  0  0  0  0
   24.8796   20.1745   23.8042 O   0  0  0  0  0  0  0  0  0  0  0  0
   22.6469   19.5690   23.3592 C   0  0  0  0  0  0  0  0  0  0  0  0
   22.8134   18.7872   24.1098 H   0  0  0  0  0  0  0  0  0  0  0  0
   22.2183   19.0850   22.4744 H   0  0  0  0  0  0  0  0  0  0  0  0
   21.6811   20.6477   23.9149 C   0  0  0  0  0  0  0  0  0  0  0  0
   22.1797   21.1762   24.7392 H   0  0  0  0  0  0  0  0  0  0  0  0
   21.4852   21.3998   23.1381 H   0  0  0  0  0  0  0  0  0  0  0  0
   20.3424   20.0710   24.4338 C   0  0  0  0  0  0  0  0  0  0  0  0
   19.7764   20.8820   24.9122 H   0  0  0  0  0  0  0  0  0  0  0  0
   20.5413   19.3267   25.2171 H   0  0  0  0  0  0  0  0  0  0  0  0
   19.4734   19.4377   23.3225 C   0  0  0  0  0  0  0  0  0  0  0  0
   19.3177   20.1684   22.5173 H   0  0  0  0  0  0  0  0  0  0  0  0
   20.0028   18.5830   22.8845 H   0  0  0  0  0  0  0  0  0  0  0  0
   18.1037   18.9707   23.8674 C   0  0  0  0  0  0  0  0  0  0  0  0
   17.6071   19.8175   24.3606 H   0  0  0  0  0  0  0  0  0  0  0  0
   18.2548   18.2053   24.6408 H   0  0  0  0  0  0  0  0  0  0  0  0
   17.1610   18.4201   22.7720 C   0  0  0  0  0  0  0  0  0  0  0  0
   16.1770   18.2245   23.2199 H   0  0  0  0  0  0  0  0  0  0  0  0
   17.0034   19.1852   21.9992 H   0  0  0  0  0  0  0  0  0  0  0  0
   17.6765   17.1197   22.1180 C   0  0  0  0  0  0  0  0  0  0  0  0
   17.8716   16.3494   22.8755 H   0  0  0  0  0  0  0  0  0  0  0  0
   16.9323   16.7222   21.4158 H   0  0  0  0  0  0  0  0  0  0  0  0
   18.6028   17.2932   21.5563 H   0  0  0  0  0  0  0  0  0  0  0  0
  1  2  1  0  0  0  0
  1  3  2  0  0  0  0
  1  4  1  0  0  0  0
  4  5  1  0  0  0  0
  4  6  1  0  0  0  0
  4  7  1  0  0  0  0
  7  8  1  0  0  0  0
  7  9  1  0  0  0  0
  7 10  1  0  0  0  0
 10 11  1  0  0  0  0
 10 12  1  0  0  0  0
 10 13  1  0  0  0  0
 13 14  1  0  0  0  0
 13 15  1  0  0  0  0
 13 16  1  0  0  0  0
 16 17  1  0  0  0  0
 16 18  1  0  0  0  0
 16 19  1  0  0  0  0
 19 20  1  0  0  0  0
 19 21  1  0  0  0  0
 19 22  1  0  0  0  0
 22 23  1  0  0  0  0
 22 24  1  0  0  0  0
 22 25  1  0  0  0  0
M  END
> <VConfSearch Rank>
469

> <Conf_Id>
17

> <Delta U+W>
0.219

> <U+W>
-51.411

> <U>
7.701

> <W>
-59.111

> <W(PB)>
-61.599

> <W(SA)>
2.488

> <Valence>
8.550

> <Coulomb>
-1.988

> <VdW>
1.139

> <VdW6>
-8.988

> <VdW12>
10.127

> <Bond>
0.191

> <Angle>
2.738

> <Pdih>
5.621

> <Idih>
0.001

> <Tether>
0.000

$$$$
VeraChem MOL file


 25 24  0  0  0  0  0  0  0  0999 V2000     
   22.9838   21.6380   23.5201 C   0  0  0  0  0  0  0  0  0  0  0  0
   22.6634   22.7643   23.1947 O   0  5  0  0  0  0  0  0  0  0  0  0
   23.7627   20.9512   22.8887 O   0  0  0  0  0  0  0  0  0  0  0  0
   22.3916   21.0596   24.8022 C   0  0  0  0  0  0  0  0  0  0  0  0
   22.0211   21.8861   25.4205 H   0  0  0  0  0  0  0  0  0  0  0  0
   23.2105   20.5891   25.3590 H   0  0  0  0  0  0  0  0  0  0  0  0
   21.2646   20.0218   24.5622 C   0  0  0  0  0  0  0  0  0  0  0  0
   21.6535   19.2156   23.9261 H   0  0  0  0  0  0  0  0  0  0  0  0
   20.9899   19.5648   25.5224 H   0  0  0  0  0  0  0  0  0  0  0  0
   20.0068   20.6522   23.9178 C   0  0  0  0  0  0  0  0  0  0  0  0
   20.2560   21.0502   22.9244 H   0  0  0  0  0  0  0  0  0  0  0  0
   19.6879   21.5114   24.5237 H   0  0  0  0  0  0  0  0  0  0  0  0
   18.8185   19.6690   23.7957 C   0  0  0  0  0  0  0  0  0  0  0  0
   18.5618   19.2765   24.7892 H   0  0  0  0  0  0  0  0  0  0  0  0
   17.9397   20.2277   23.4459 H   0  0  0  0  0  0  0  0  0  0  0  0
   19.0871   18.4959   22.8248 C   0  0  0  0  0  0  0  0  0  0  0  0
   19.9159   17.8815   23.1995 H   0  0  0  0  0  0  0  0  0  0  0  0
   19.3969   18.8916   21.8479 H   0  0  0  0  0  0  0  0  0  0  0  0
   17.8392   17.6053   22.6475 C   0  0  0  0  0  0  0  0  0  0  0  0
   17.5256   17.2092   23.6234 H   0  0  0  0  0  0  0  0  0  0  0  0
   17.0044   18.2083   22.2644 H   0  0  0  0  0  0  0  0  0  0  0  0
   18.1097   16.4338   21.6819 C   0  0  0  0  0  0  0  0  0  0  0  0
   18.9198   15.7946   22.0570 H   0  0  0  0  0  0  0  0  0  0  0  0
   17.2126   15.8117   21.5674 H   0  0  0  0  0  0  0  0  0  0  0  0
   18.3960   16.8022   20.6881 H   0  0  0  0  0  0  0  0  0  0  0  0
  1  2  1  0  0  0  0
  1  3  2  0  0  0  0
  1  4  1  0  0  0  0
  4  5  1  0  0  0  0
  4  6  1  0  0  0  0
  4  7  1  0  0  0  0
  7  8  1  0  0  0  0
  7  9  1  0  0  0  0
  7 10  1  0  0  0  0
 10 11  1  0  0  0  0
 10 12  1  0  0  0  0
 10 13  1  0  0  0  0
 13 14  1  0  0  0  0
 13 15  1  0  0  0  0
 13 16  1  0  0  0  0
 16 17  1  0  0  0  0
 16 18  1  0  0  0  0
 16 19  1  0  0  0  0
 19 20  1  0  0  0  0
 19 21  1  0  0  0  0
 19 22  1  0  0  0  0
 22 23  1  0  0  0  0
 22 24  1  0  0  0  0
 22 25  1  0  0  0  0
M  END
> <VConfSearch Rank>
470

> <Conf_Id>
142

> <Delta U+W>
0.593

> <U+W>
-51.037

> <U>
8.903

> <W>
-59.940

> <W(PB)>
-62.418

> <W(SA)>
2.478

> <Valence>
8.305

> <Coulomb>
-0.223

> <VdW>
0.821

> <VdW6>
-9.236

> <VdW12>
10.057

> <Bond>
0.173

> <Angle>
2.663

> <Pdih>
5.469

> <Idih>
0.001

> <Tether>
0.000

$$$$
VeraChem MOL file


 25 24  0  0  0  0  0  0  0  0999 V2000     
   19.9872   22.5602   22.4810 C   0  0  0  0  0  0  0  0  0  0  0  0
   19.1408   23.4285   22.3960 O   0  5  0  0  0  0  0  0  0  0  0  0
   21.0999   22.7482   22.9324 O   0  0  0  0  0  0  0  0  0  0  0  0
   19.6403   21.1658   21.9668 C   0  0  0  0  0  0  0  0  0  0  0  0
   20.5672   20.5917   21.8553 H   0  0  0  0  0  0  0  0  0  0  0  0
   19.2248   21.2836   20.9593 H   0  0  0  0  0  0  0  0  0  0  0  0
   18.6247   20.3970   22.8554 C   0  0  0  0  0  0  0  0  0  0  0  0
   17.6855   20.9662   22.8895 H   0  0  0  0  0  0  0  0  0  0  0  0
   18.3785   19.4398   22.3780 H   0  0  0  0  0  0  0  0  0  0  0  0
   19.1053   20.1472   24.3084 C   0  0  0  0  0  0  0  0  0  0  0  0
   18.3187   19.6066   24.8520 H   0  0  0  0  0  0  0  0  0  0  0  0
   19.2153   21.1134   24.8197 H   0  0  0  0  0  0  0  0  0  0  0  0
   20.4354   19.3636   24.4401 C   0  0  0  0  0  0  0  0  0  0  0  0
   21.2563   19.9445   23.9987 H   0  0  0  0  0  0  0  0  0  0  0  0
   20.6738   19.2659   25.5079 H   0  0  0  0  0  0  0  0  0  0  0  0
   20.3885   17.9548   23.8047 C   0  0  0  0  0  0  0  0  0  0  0  0
   20.2229   18.0387   22.7228 H   0  0  0  0  0  0  0  0  0  0  0  0
   19.5391   17.3938   24.2177 H   0  0  0  0  0  0  0  0  0  0  0  0
   21.6947   17.1723   24.0555 C   0  0  0  0  0  0  0  0  0  0  0  0
   22.5461   17.7330   23.6454 H   0  0  0  0  0  0  0  0  0  0  0  0
   21.8671   17.0751   25.1364 H   0  0  0  0  0  0  0  0  0  0  0  0
   21.6487   15.7699   23.4161 C   0  0  0  0  0  0  0  0  0  0  0  0
   21.5092   15.8382   22.3293 H   0  0  0  0  0  0  0  0  0  0  0  0
   22.5847   15.2280   23.6043 H   0  0  0  0  0  0  0  0  0  0  0  0
   20.8238   15.1760   23.8310 H   0  0  0  0  0  0  0  0  0  0  0  0
  1  2  1  0  0  0  0
  1  3  2  0  0  0  0
  1  4  1  0  0  0  0
  4  5  1  0  0  0  0
  4  6  1  0  0  0  0
  4  7  1  0  0  0  0
  7  8  1  0  0  0  0
  7  9  1  0  0  0  0
  7 10  1  0  0  0  0
 10 11  1  0  0  0  0
 10 12  1  0  0  0  0
 10 13  1  0  0  0  0
 13 14  1  0  0  0  0
 13 15  1  0  0  0  0
 13 16  1  0  0  0  0
 16 17  1  0  0  0  0
 16 18  1  0  0  0  0
 16 19  1  0  0  0  0
 19 20  1  0  0  0  0
 19 21  1  0  0  0  0
 19 22  1  0  0  0  0
 22 23  1  0  0  0  0
 22 24  1  0  0  0  0
 22 25  1  0  0  0  0
M  END
> <VConfSearch Rank>
471

> <Conf_Id>
135

> <Delta U+W>
1.314

> <U+W>
-50.316

> <U>
9.773

> <W>
-60.088

> <W(PB)>
-62.535

> <W(SA)>
2.447

> <Valence>
8.741

> <Coulomb>
0.479

> <VdW>
0.552

> <VdW6>
-10.627

> <VdW12>
11.179

> <Bond>
0.227

> <Angle>
3.155

> <Pdih>
5.358

> <Idih>
0.001

> <Tether>
0.000

$$$$
VeraChem MOL file


 25 24  0  0  0  0  0  0  0  0999 V2000     
   23.7154   19.4686   21.1239 C   0  0  0  0  0  0  0  0  0  0  0  0
   24.6166   19.9797   21.7590 O   0  5  0  0  0  0  0  0  0  0  0  0
   23.8934   18.7722   20.1441 O   0  0  0  0  0  0  0  0  0  0  0  0
   22.2835   19.6950   21.5956 C   0  0  0  0  0  0  0  0  0  0  0  0
   21.6305   19.6881   20.7148 H   0  0  0  0  0  0  0  0  0  0  0  0
   22.2321   20.6990   22.0311 H   0  0  0  0  0  0  0  0  0  0  0  0
   21.8138   18.6274   22.6181 C   0  0  0  0  0  0  0  0  0  0  0  0
   21.9718   17.6315   22.1816 H   0  0  0  0  0  0  0  0  0  0  0  0
   22.4444   18.6752   23.5167 H   0  0  0  0  0  0  0  0  0  0  0  0
   20.3241   18.7607   23.0157 C   0  0  0  0  0  0  0  0  0  0  0  0
   20.0546   17.8789   23.6105 H   0  0  0  0  0  0  0  0  0  0  0  0
   19.6974   18.7380   22.1139 H   0  0  0  0  0  0  0  0  0  0  0  0
   20.0168   20.0353   23.8374 C   0  0  0  0  0  0  0  0  0  0  0  0
   20.6039   20.0207   24.7656 H   0  0  0  0  0  0  0  0  0  0  0  0
   20.3452   20.9205   23.2787 H   0  0  0  0  0  0  0  0  0  0  0  0
   18.5173   20.2234   24.1804 C   0  0  0  0  0  0  0  0  0  0  0  0
   17.9314   20.3335   23.2576 H   0  0  0  0  0  0  0  0  0  0  0  0
   18.4179   21.1798   24.7118 H   0  0  0  0  0  0  0  0  0  0  0  0
   17.9101   19.1117   25.0723 C   0  0  0  0  0  0  0  0  0  0  0  0
   18.6927   18.6453   25.6865 H   0  0  0  0  0  0  0  0  0  0  0  0
   17.2038   19.5725   25.7767 H   0  0  0  0  0  0  0  0  0  0  0  0
   17.1478   18.0355   24.2672 C   0  0  0  0  0  0  0  0  0  0  0  0
   17.7989   17.5269   23.5471 H   0  0  0  0  0  0  0  0  0  0  0  0
   16.7329   17.2744   24.9404 H   0  0  0  0  0  0  0  0  0  0  0  0
   16.3135   18.4826   23.7113 H   0  0  0  0  0  0  0  0  0  0  0  0
  1  2  1  0  0  0  0
  1  3  2  0  0  0  0
  1  4  1  0  0  0  0
  4  5  1  0  0  0  0
  4  6  1  0  0  0  0
  4  7  1  0  0  0  0
  7  8  1  0  0  0  0
  7  9  1  0  0  0  0
  7 10  1  0  0  0  0
 10 11  1  0  0  0  0
 10 12  1  0  0  0  0
 10 13  1  0  0  0  0
 13 14  1  0  0  0  0
 13 15  1  0  0  0  0
 13 16  1  0  0  0  0
 16 17  1  0  0  0  0
 16 18  1  0  0  0  0
 16 19  1  0  0  0  0
 19 20  1  0  0  0  0
 19 21  1  0  0  0  0
 19 22  1  0  0  0  0
 22 23  1  0  0  0  0
 22 24  1  0  0  0  0
 22 25  1  0  0  0  0
M  END
> <VConfSearch Rank>
472

> <Conf_Id>
19

> <Delta U+W>
3.222

> <U+W>
-48.407

> <U>
10.617

> <W>
-59.025

> <W(PB)>
-61.462

> <W(SA)>
2.437

> <Valence>
11.188

> <Coulomb>
-1.778

> <VdW>
1.208

> <VdW6>
-9.786

> <VdW12>
10.993

> <Bond>
0.241

> <Angle>
3.294

> <Pdih>
7.653

> <Idih>
0.001

> <Tether>
0.000

$$$$
VeraChem MOL file


 25 24  0  0  0  0  0  0  0  0999 V2000     
   22.6984   22.4901   23.6180 C   0  0  0  0  0  0  0  0  0  0  0  0
   22.3504   23.4578   22.9705 O   0  5  0  0  0  0  0  0  0  0  0  0
   23.8323   22.3230   24.0218 O   0  0  0  0  0  0  0  0  0  0  0  0
   21.6608   21.4149   23.9206 C   0  0  0  0  0  0  0  0  0  0  0  0
   20.6916   21.9122   24.0368 H   0  0  0  0  0  0  0  0  0  0  0  0
   21.9127   20.9622   24.8870 H   0  0  0  0  0  0  0  0  0  0  0  0
   21.5906   20.3237   22.8205 C   0  0  0  0  0  0  0  0  0  0  0  0
   21.2907   20.7802   21.8672 H   0  0  0  0  0  0  0  0  0  0  0  0
   22.5998   19.9178   22.6654 H   0  0  0  0  0  0  0  0  0  0  0  0
   20.6366   19.1548   23.1648 C   0  0  0  0  0  0  0  0  0  0  0  0
   20.9229   18.7161   24.1303 H   0  0  0  0  0  0  0  0  0  0  0  0
   20.7764   18.3726   22.4081 H   0  0  0  0  0  0  0  0  0  0  0  0
   19.1448   19.5647   23.1954 C   0  0  0  0  0  0  0  0  0  0  0  0
   19.0061   20.3933   23.9008 H   0  0  0  0  0  0  0  0  0  0  0  0
   18.8519   19.9474   22.2082 H   0  0  0  0  0  0  0  0  0  0  0  0
   18.1814   18.4245   23.6115 C   0  0  0  0  0  0  0  0  0  0  0  0
   17.1678   18.8463   23.6493 H   0  0  0  0  0  0  0  0  0  0  0  0
   18.4061   18.0975   24.6359 H   0  0  0  0  0  0  0  0  0  0  0  0
   18.1612   17.2081   22.6522 C   0  0  0  0  0  0  0  0  0  0  0  0
   17.1301   16.8357   22.5782 H   0  0  0  0  0  0  0  0  0  0  0  0
   18.4470   17.5177   21.6374 H   0  0  0  0  0  0  0  0  0  0  0  0
   19.0566   16.0430   23.1295 C   0  0  0  0  0  0  0  0  0  0  0  0
   18.7276   15.6748   24.1100 H   0  0  0  0  0  0  0  0  0  0  0  0
   19.0061   15.2050   22.4223 H   0  0  0  0  0  0  0  0  0  0  0  0
   20.1066   16.3446   23.2173 H   0  0  0  0  0  0  0  0  0  0  0  0
  1  2  1  0  0  0  0
  1  3  2  0  0  0  0
  1  4  1  0  0  0  0
  4  5  1  0  0  0  0
  4  6  1  0  0  0  0
  4  7  1  0  0  0  0
  7  8  1  0  0  0  0
  7  9  1  0  0  0  0
  7 10  1  0  0  0  0
 10 11  1  0  0  0  0
 10 12  1  0  0  0  0
 10 13  1  0  0  0  0
 13 14  1  0  0  0  0
 13 15  1  0  0  0  0
 13 16  1  0  0  0  0
 16 17  1  0  0  0  0
 16 18  1  0  0  0  0
 16 19  1  0  0  0  0
 19 20  1  0  0  0  0
 19 21  1  0  0  0  0
 19 22  1  0  0  0  0
 22 23  1  0  0  0  0
 22 24  1  0  0  0  0
 22 25  1  0  0  0  0
M  END
> <VConfSearch Rank>
473

> <Conf_Id>
20

> <Delta U+W>
3.224

> <U+W>
-48.406

> <U>
10.617

> <W>
-59.023

> <W(PB)>
-61.467

> <W(SA)>
2.444

> <Valence>
11.188

> <Coulomb>
-1.778

> <VdW>
1.208

> <VdW6>
-9.786

> <VdW12>
10.993

> <Bond>
0.241

> <Angle>
3.294

> <Pdih>
7.653

> <Idih>
0.001

> <Tether>
0.000

$$$$
VeraChem MOL file


 25 24  0  0  0  0  0  0  0  0999 V2000     
   18.2323   21.6970   22.2903 C   0  0  0  0  0  0  0  0  0  0  0  0
   18.9958   22.6421   22.2501 O   0  5  0  0  0  0  0  0  0  0  0  0
   17.3612   21.5738   23.1289 O   0  0  0  0  0  0  0  0  0  0  0  0
   18.3279   20.6405   21.1912 C   0  0  0  0  0  0  0  0  0  0  0  0
   18.0921   21.1520   20.2509 H   0  0  0  0  0  0  0  0  0  0  0  0
   17.5417   19.8919   21.3469 H   0  0  0  0  0  0  0  0  0  0  0  0
   19.7128   19.9470   21.0563 C   0  0  0  0  0  0  0  0  0  0  0  0
   19.7763   19.5092   20.0509 H   0  0  0  0  0  0  0  0  0  0  0  0
   20.5141   20.6971   21.1100 H   0  0  0  0  0  0  0  0  0  0  0  0
   19.9753   18.8154   22.0808 C   0  0  0  0  0  0  0  0  0  0  0  0
   20.9052   18.3046   21.7952 H   0  0  0  0  0  0  0  0  0  0  0  0
   19.1772   18.0634   22.0137 H   0  0  0  0  0  0  0  0  0  0  0  0
   20.1060   19.3049   23.5409 C   0  0  0  0  0  0  0  0  0  0  0  0
   20.8300   20.1299   23.5899 H   0  0  0  0  0  0  0  0  0  0  0  0
   19.1435   19.7006   23.8889 H   0  0  0  0  0  0  0  0  0  0  0  0
   20.5513   18.1685   24.4867 C   0  0  0  0  0  0  0  0  0  0  0  0
   21.5190   17.7697   24.1528 H   0  0  0  0  0  0  0  0  0  0  0  0
   19.8289   17.3425   24.4326 H   0  0  0  0  0  0  0  0  0  0  0  0
   20.6711   18.6535   25.9468 C   0  0  0  0  0  0  0  0  0  0  0  0
   21.3938   19.4793   26.0044 H   0  0  0  0  0  0  0  0  0  0  0  0
   19.7043   19.0517   26.2849 H   0  0  0  0  0  0  0  0  0  0  0  0
   21.1154   17.5166   26.8889 C   0  0  0  0  0  0  0  0  0  0  0  0
   22.0954   17.1208   26.5920 H   0  0  0  0  0  0  0  0  0  0  0  0
   21.1951   17.8791   27.9220 H   0  0  0  0  0  0  0  0  0  0  0  0
   20.3930   16.6899   26.8746 H   0  0  0  0  0  0  0  0  0  0  0  0
  1  2  1  0  0  0  0
  1  3  2  0  0  0  0
  1  4  1  0  0  0  0
  4  5  1  0  0  0  0
  4  6  1  0  0  0  0
  4  7  1  0  0  0  0
  7  8  1  0  0  0  0
  7  9  1  0  0  0  0
  7 10  1  0  0  0  0
 10 11  1  0  0  0  0
 10 12  1  0  0  0  0
 10 13  1  0  0  0  0
 13 14  1  0  0  0  0
 13 15  1  0  0  0  0
 13 16  1  0  0  0  0
 16 17  1  0  0  0  0
 16 18  1  0  0  0  0
 16 19  1  0  0  0  0
 19 20  1  0  0  0  0
 19 21  1  0  0  0  0
 19 22  1  0  0  0  0
 22 23  1  0  0  0  0
 22 24  1  0  0  0  0
 22 25  1  0  0  0  0
M  END
> <VConfSearch Rank>
474

> <Conf_Id>
24

> <Delta U+W>
1.784

> <U+W>
-49.846

> <U>
10.904

> <W>
-60.749

> <W(PB)>
-63.220

> <W(SA)>
2.471

> <Valence>
9.445

> <Coulomb>
0.780

> <VdW>
0.679

> <VdW6>
-10.008

> <VdW12>
10.687

> <Bond>
0.201

> <Angle>
3.198

> <Pdih>
6.039

> <Idih>
0.006

> <Tether>
0.000

$$$$
VeraChem MOL file


 25 24  0  0  0  0  0  0  0  0999 V2000     
   22.3082   20.1563   21.5104 C   0  0  0  0  0  0  0  0  0  0  0  0
   23.1092   20.7837   22.1756 O   0  5  0  0  0  0  0  0  0  0  0  0
   22.5243   19.0422   21.0754 O   0  0  0  0  0  0  0  0  0  0  0  0
   20.9858   20.8278   21.1446 C   0  0  0  0  0  0  0  0  0  0  0  0
   20.4069   20.1505   20.5052 H   0  0  0  0  0  0  0  0  0  0  0  0
   21.2421   21.6978   20.5290 H   0  0  0  0  0  0  0  0  0  0  0  0
   20.1245   21.2977   22.3507 C   0  0  0  0  0  0  0  0  0  0  0  0
   20.7609   21.8005   23.0921 H   0  0  0  0  0  0  0  0  0  0  0  0
   19.4222   22.0607   21.9889 H   0  0  0  0  0  0  0  0  0  0  0  0
   19.2966   20.1800   23.0323 C   0  0  0  0  0  0  0  0  0  0  0  0
   18.6541   19.6898   22.2882 H   0  0  0  0  0  0  0  0  0  0  0  0
   18.6218   20.6503   23.7606 H   0  0  0  0  0  0  0  0  0  0  0  0
   20.1510   19.1180   23.7608 C   0  0  0  0  0  0  0  0  0  0  0  0
   20.7370   18.5460   23.0304 H   0  0  0  0  0  0  0  0  0  0  0  0
   20.8669   19.6157   24.4293 H   0  0  0  0  0  0  0  0  0  0  0  0
   19.2754   18.1410   24.5752 C   0  0  0  0  0  0  0  0  0  0  0  0
   18.5569   17.6480   23.9060 H   0  0  0  0  0  0  0  0  0  0  0  0
   18.6897   18.7020   25.3163 H   0  0  0  0  0  0  0  0  0  0  0  0
   20.1267   17.0732   25.2938 C   0  0  0  0  0  0  0  0  0  0  0  0
   20.7128   16.5086   24.5553 H   0  0  0  0  0  0  0  0  0  0  0  0
   20.8460   17.5631   25.9646 H   0  0  0  0  0  0  0  0  0  0  0  0
   19.2497   16.0989   26.1058 C   0  0  0  0  0  0  0  0  0  0  0  0
   18.5414   15.5713   25.4537 H   0  0  0  0  0  0  0  0  0  0  0  0
   19.8711   15.3471   26.6096 H   0  0  0  0  0  0  0  0  0  0  0  0
   18.6757   16.6339   26.8737 H   0  0  0  0  0  0  0  0  0  0  0  0
  1  2  1  0  0  0  0
  1  3  2  0  0  0  0
  1  4  1  0  0  0  0
  4  5  1  0  0  0  0
  4  6  1  0  0  0  0
  4  7  1  0  0  0  0
  7  8  1  0  0  0  0
  7  9  1  0  0  0  0
  7 10  1  0  0  0  0
 10 11  1  0  0  0  0
 10 12  1  0  0  0  0
 10 13  1  0  0  0  0
 13 14  1  0  0  0  0
 13 15  1  0  0  0  0
 13 16  1  0  0  0  0
 16 17  1  0  0  0  0
 16 18  1  0  0  0  0
 16 19  1  0  0  0  0
 19 20  1  0  0  0  0
 19 21  1  0  0  0  0
 19 22  1  0  0  0  0
 22 23  1  0  0  0  0
 22 24  1  0  0  0  0
 22 25  1  0  0  0  0
M  END
> <VConfSearch Rank>
475

> <Conf_Id>
9

> <Delta U+W>
1.764

> <U+W>
-49.865

> <U>
10.902

> <W>
-60.768

> <W(PB)>
-63.223

> <W(SA)>
2.456

> <Valence>
9.445

> <Coulomb>
0.778

> <VdW>
0.679

> <VdW6>
-10.007

> <VdW12>
10.687

> <Bond>
0.201

> <Angle>
3.198

> <Pdih>
6.040

> <Idih>
0.006

> <Tether>
0.000

$$$$
VeraChem MOL file


 25 24  0  0  0  0  0  0  0  0999 V2000     
   19.8809   22.4777   21.7769 C   0  0  0  0  0  0  0  0  0  0  0  0
   20.4597   22.9940   22.7123 O   0  5  0  0  0  0  0  0  0  0  0  0
   19.7535   23.0057   20.6897 O   0  0  0  0  0  0  0  0  0  0  0  0
   19.3000   21.0819   21.9712 C   0  0  0  0  0  0  0  0  0  0  0  0
   18.3945   21.0043   21.3577 H   0  0  0  0  0  0  0  0  0  0  0  0
   18.9859   20.9927   23.0157 H   0  0  0  0  0  0  0  0  0  0  0  0
   20.2992   19.9581   21.5890 C   0  0  0  0  0  0  0  0  0  0  0  0
   20.5721   20.0939   20.5333 H   0  0  0  0  0  0  0  0  0  0  0  0
   21.2304   20.0688   22.1617 H   0  0  0  0  0  0  0  0  0  0  0  0
   19.7235   18.5307   21.7718 C   0  0  0  0  0  0  0  0  0  0  0  0
   20.1287   17.8945   20.9730 H   0  0  0  0  0  0  0  0  0  0  0  0
   18.6348   18.5367   21.6248 H   0  0  0  0  0  0  0  0  0  0  0  0
   20.0754   17.8599   23.1235 C   0  0  0  0  0  0  0  0  0  0  0  0
   19.6913   16.8309   23.1081 H   0  0  0  0  0  0  0  0  0  0  0  0
   21.1670   17.7812   23.2106 H   0  0  0  0  0  0  0  0  0  0  0  0
   19.5048   18.5898   24.3624 C   0  0  0  0  0  0  0  0  0  0  0  0
   18.4396   18.8005   24.1966 H   0  0  0  0  0  0  0  0  0  0  0  0
   20.0060   19.5587   24.4859 H   0  0  0  0  0  0  0  0  0  0  0  0
   19.6491   17.7782   25.6708 C   0  0  0  0  0  0  0  0  0  0  0  0
   19.1354   18.3171   26.4788 H   0  0  0  0  0  0  0  0  0  0  0  0
   19.1358   16.8122   25.5671 H   0  0  0  0  0  0  0  0  0  0  0  0
   21.1184   17.5437   26.0835 C   0  0  0  0  0  0  0  0  0  0  0  0
   21.6589   18.4954   26.1689 H   0  0  0  0  0  0  0  0  0  0  0  0
   21.1682   17.0380   27.0564 H   0  0  0  0  0  0  0  0  0  0  0  0
   21.6431   16.9140   25.3541 H   0  0  0  0  0  0  0  0  0  0  0  0
  1  2  1  0  0  0  0
  1  3  2  0  0  0  0
  1  4  1  0  0  0  0
  4  5  1  0  0  0  0
  4  6  1  0  0  0  0
  4  7  1  0  0  0  0
  7  8  1  0  0  0  0
  7  9  1  0  0  0  0
  7 10  1  0  0  0  0
 10 11  1  0  0  0  0
 10 12  1  0  0  0  0
 10 13  1  0  0  0  0
 13 14  1  0  0  0  0
 13 15  1  0  0  0  0
 13 16  1  0  0  0  0
 16 17  1  0  0  0  0
 16 18  1  0  0  0  0
 16 19  1  0  0  0  0
 19 20  1  0  0  0  0
 19 21  1  0  0  0  0
 19 22  1  0  0  0  0
 22 23  1  0  0  0  0
 22 24  1  0  0  0  0
 22 25  1  0  0  0  0
M  END
> <VConfSearch Rank>
476

> <Conf_Id>
89

> <Delta U+W>
2.903

> <U+W>
-48.726

> <U>
10.996

> <W>
-59.723

> <W(PB)>
-62.151

> <W(SA)>
2.428

> <Valence>
10.985

> <Coulomb>
-0.995

> <VdW>
1.006

> <VdW6>
-10.062

> <VdW12>
11.069

> <Bond>
0.238

> <Angle>
3.202

> <Pdih>
7.544

> <Idih>
0.001

> <Tether>
0.000

$$$$
VeraChem MOL file


 25 24  0  0  0  0  0  0  0  0999 V2000     
   20.0302   16.9590   26.2615 C   0  0  0  0  0  0  0  0  0  0  0  0
   21.1037   16.4098   26.1089 O   0  5  0  0  0  0  0  0  0  0  0  0
   19.7763   17.6850   27.2028 O   0  0  0  0  0  0  0  0  0  0  0  0
   18.9230   16.6686   25.2501 C   0  0  0  0  0  0  0  0  0  0  0  0
   18.1315   16.1487   25.8021 H   0  0  0  0  0  0  0  0  0  0  0  0
   19.2998   15.9612   24.5015 H   0  0  0  0  0  0  0  0  0  0  0  0
   18.3155   17.9188   24.5532 C   0  0  0  0  0  0  0  0  0  0  0  0
   17.3225   17.6440   24.1728 H   0  0  0  0  0  0  0  0  0  0  0  0
   18.1457   18.7148   25.2916 H   0  0  0  0  0  0  0  0  0  0  0  0
   19.1400   18.4667   23.3616 C   0  0  0  0  0  0  0  0  0  0  0  0
   18.5301   19.2263   22.8572 H   0  0  0  0  0  0  0  0  0  0  0  0
   19.3054   17.6662   22.6278 H   0  0  0  0  0  0  0  0  0  0  0  0
   20.4982   19.0883   23.7681 C   0  0  0  0  0  0  0  0  0  0  0  0
   20.3437   19.8476   24.5467 H   0  0  0  0  0  0  0  0  0  0  0  0
   21.1327   18.3114   24.2116 H   0  0  0  0  0  0  0  0  0  0  0  0
   21.2737   19.7094   22.5814 C   0  0  0  0  0  0  0  0  0  0  0  0
   21.3991   18.9582   21.7896 H   0  0  0  0  0  0  0  0  0  0  0  0
   22.2842   19.9676   22.9264 H   0  0  0  0  0  0  0  0  0  0  0  0
   20.6074   20.9772   21.9997 C   0  0  0  0  0  0  0  0  0  0  0  0
   19.6272   20.7297   21.5722 H   0  0  0  0  0  0  0  0  0  0  0  0
   20.4323   21.7055   22.8034 H   0  0  0  0  0  0  0  0  0  0  0  0
   21.4812   21.6231   20.9054 C   0  0  0  0  0  0  0  0  0  0  0  0
   21.6503   20.9248   20.0753 H   0  0  0  0  0  0  0  0  0  0  0  0
   20.9938   22.5195   20.5004 H   0  0  0  0  0  0  0  0  0  0  0  0
   22.4584   21.9213   21.3073 H   0  0  0  0  0  0  0  0  0  0  0  0
  1  2  1  0  0  0  0
  1  3  2  0  0  0  0
  1  4  1  0  0  0  0
  4  5  1  0  0  0  0
  4  6  1  0  0  0  0
  4  7  1  0  0  0  0
  7  8  1  0  0  0  0
  7  9  1  0  0  0  0
  7 10  1  0  0  0  0
 10 11  1  0  0  0  0
 10 12  1  0  0  0  0
 10 13  1  0  0  0  0
 13 14  1  0  0  0  0
 13 15  1  0  0  0  0
 13 16  1  0  0  0  0
 16 17  1  0  0  0  0
 16 18  1  0  0  0  0
 16 19  1  0  0  0  0
 19 20  1  0  0  0  0
 19 21  1  0  0  0  0
 19 22  1  0  0  0  0
 22 23  1  0  0  0  0
 22 24  1  0  0  0  0
 22 25  1  0  0  0  0
M  END
> <VConfSearch Rank>
477

> <Conf_Id>
114

> <Delta U+W>
2.758

> <U+W>
-48.871

> <U>
11.422

> <W>
-60.293

> <W(PB)>
-62.719

> <W(SA)>
2.425

> <Valence>
10.135

> <Coulomb>
0.369

> <VdW>
0.918

> <VdW6>
-10.482

> <VdW12>
11.400

> <Bond>
0.245

> <Angle>
3.539

> <Pdih>
6.346

> <Idih>
0.006

> <Tether>
0.000

$$$$
VeraChem MOL file


 25 24  0  0  0  0  0  0  0  0999 V2000     
   18.2247   21.8538   21.6541 C   0  0  0  0  0  0  0  0  0  0  0  0
   17.6491   21.3125   20.7307 O   0  5  0  0  0  0  0  0  0  0  0  0
   17.6519   22.4089   22.5712 O   0  0  0  0  0  0  0  0  0  0  0  0
   19.7507   21.8557   21.6536 C   0  0  0  0  0  0  0  0  0  0  0  0
   20.0780   22.8710   21.9067 H   0  0  0  0  0  0  0  0  0  0  0  0
   20.1006   21.6546   20.6338 H   0  0  0  0  0  0  0  0  0  0  0  0
   20.3815   20.8452   22.6466 C   0  0  0  0  0  0  0  0  0  0  0  0
   21.4679   21.0041   22.6752 H   0  0  0  0  0  0  0  0  0  0  0  0
   20.0026   21.0557   23.6553 H   0  0  0  0  0  0  0  0  0  0  0  0
   20.0900   19.3753   22.2598 C   0  0  0  0  0  0  0  0  0  0  0  0
   20.3921   19.2159   21.2157 H   0  0  0  0  0  0  0  0  0  0  0  0
   19.0086   19.1854   22.3006 H   0  0  0  0  0  0  0  0  0  0  0  0
   20.8283   18.3437   23.1460 C   0  0  0  0  0  0  0  0  0  0  0  0
   20.6773   17.3498   22.7061 H   0  0  0  0  0  0  0  0  0  0  0  0
   21.9091   18.5374   23.1142 H   0  0  0  0  0  0  0  0  0  0  0  0
   20.3416   18.3339   24.6162 C   0  0  0  0  0  0  0  0  0  0  0  0
   19.2602   18.1437   24.6472 H   0  0  0  0  0  0  0  0  0  0  0  0
   20.4962   19.3260   25.0589 H   0  0  0  0  0  0  0  0  0  0  0  0
   21.0748   17.2971   25.4993 C   0  0  0  0  0  0  0  0  0  0  0  0
   22.1581   17.4772   25.4615 H   0  0  0  0  0  0  0  0  0  0  0  0
   20.7719   17.4491   26.5445 H   0  0  0  0  0  0  0  0  0  0  0  0
   20.7762   15.8339   25.1057 C   0  0  0  0  0  0  0  0  0  0  0  0
   21.2414   15.1422   25.8200 H   0  0  0  0  0  0  0  0  0  0  0  0
   19.6957   15.6404   25.1031 H   0  0  0  0  0  0  0  0  0  0  0  0
   21.1714   15.5969   24.1102 H   0  0  0  0  0  0  0  0  0  0  0  0
  1  2  1  0  0  0  0
  1  3  2  0  0  0  0
  1  4  1  0  0  0  0
  4  5  1  0  0  0  0
  4  6  1  0  0  0  0
  4  7  1  0  0  0  0
  7  8  1  0  0  0  0
  7  9  1  0  0  0  0
  7 10  1  0  0  0  0
 10 11  1  0  0  0  0
 10 12  1  0  0  0  0
 10 13  1  0  0  0  0
 13 14  1  0  0  0  0
 13 15  1  0  0  0  0
 13 16  1  0  0  0  0
 16 17  1  0  0  0  0
 16 18  1  0  0  0  0
 16 19  1  0  0  0  0
 19 20  1  0  0  0  0
 19 21  1  0  0  0  0
 19 22  1  0  0  0  0
 22 23  1  0  0  0  0
 22 24  1  0  0  0  0
 22 25  1  0  0  0  0
M  END
> <VConfSearch Rank>
478

> <Conf_Id>
87

> <Delta U+W>
1.453

> <U+W>
-50.176

> <U>
9.763

> <W>
-59.940

> <W(PB)>
-62.392

> <W(SA)>
2.452

> <Valence>
8.883

> <Coulomb>
-0.122

> <VdW>
1.003

> <VdW6>
-9.782

> <VdW12>
10.785

> <Bond>
0.212

> <Angle>
2.940

> <Pdih>
5.730

> <Idih>
0.001

> <Tether>
0.000

$$$$
VeraChem MOL file


 25 24  0  0  0  0  0  0  0  0999 V2000     
   19.7460   21.4066   26.5432 C   0  0  0  0  0  0  0  0  0  0  0  0
   19.8044   20.5935   27.4444 O   0  5  0  0  0  0  0  0  0  0  0  0
   20.1668   22.5431   26.6334 O   0  0  0  0  0  0  0  0  0  0  0  0
   19.1272   20.9713   25.2196 C   0  0  0  0  0  0  0  0  0  0  0  0
   18.6354   21.8425   24.7707 H   0  0  0  0  0  0  0  0  0  0  0  0
   18.3458   20.2327   25.4354 H   0  0  0  0  0  0  0  0  0  0  0  0
   20.1660   20.3772   24.2368 C   0  0  0  0  0  0  0  0  0  0  0  0
   20.9462   21.1245   24.0367 H   0  0  0  0  0  0  0  0  0  0  0  0
   20.6580   19.5202   24.7154 H   0  0  0  0  0  0  0  0  0  0  0  0
   19.5114   19.9378   22.9067 C   0  0  0  0  0  0  0  0  0  0  0  0
   18.9662   20.7897   22.4781 H   0  0  0  0  0  0  0  0  0  0  0  0
   18.7593   19.1619   23.1012 H   0  0  0  0  0  0  0  0  0  0  0  0
   20.5308   19.4322   21.8553 C   0  0  0  0  0  0  0  0  0  0  0  0
   19.9950   19.1982   20.9260 H   0  0  0  0  0  0  0  0  0  0  0  0
   21.2164   20.2527   21.6038 H   0  0  0  0  0  0  0  0  0  0  0  0
   21.3705   18.2002   22.2851 C   0  0  0  0  0  0  0  0  0  0  0  0
   22.0309   18.4823   23.1155 H   0  0  0  0  0  0  0  0  0  0  0  0
   22.0374   17.9253   21.4567 H   0  0  0  0  0  0  0  0  0  0  0  0
   20.5492   16.9540   22.6982 C   0  0  0  0  0  0  0  0  0  0  0  0
   21.2455   16.1612   23.0039 H   0  0  0  0  0  0  0  0  0  0  0  0
   19.9390   17.1799   23.5827 H   0  0  0  0  0  0  0  0  0  0  0  0
   19.6478   16.4147   21.5665 C   0  0  0  0  0  0  0  0  0  0  0  0
   20.2361   16.1975   20.6656 H   0  0  0  0  0  0  0  0  0  0  0  0
   19.1518   15.4869   21.8793 H   0  0  0  0  0  0  0  0  0  0  0  0
   18.8657   17.1373   21.3015 H   0  0  0  0  0  0  0  0  0  0  0  0
  1  2  1  0  0  0  0
  1  3  2  0  0  0  0
  1  4  1  0  0  0  0
  4  5  1  0  0  0  0
  4  6  1  0  0  0  0
  4  7  1  0  0  0  0
  7  8  1  0  0  0  0
  7  9  1  0  0  0  0
  7 10  1  0  0  0  0
 10 11  1  0  0  0  0
 10 12  1  0  0  0  0
 10 13  1  0  0  0  0
 13 14  1  0  0  0  0
 13 15  1  0  0  0  0
 13 16  1  0  0  0  0
 16 17  1  0  0  0  0
 16 18  1  0  0  0  0
 16 19  1  0  0  0  0
 19 20  1  0  0  0  0
 19 21  1  0  0  0  0
 19 22  1  0  0  0  0
 22 23  1  0  0  0  0
 22 24  1  0  0  0  0
 22 25  1  0  0  0  0
M  END
> <VConfSearch Rank>
479

> <Conf_Id>
29

> <Delta U+W>
0.850

> <U+W>
-50.780

> <U>
8.646

> <W>
-59.426

> <W(PB)>
-61.868

> <W(SA)>
2.442

> <Valence>
8.924

> <Coulomb>
-1.171

> <VdW>
0.894

> <VdW6>
-10.223

> <VdW12>
11.117

> <Bond>
0.231

> <Angle>
3.232

> <Pdih>
5.461

> <Idih>
0.001

> <Tether>
0.000

$$$$
VeraChem MOL file


 25 24  0  0  0  0  0  0  0  0999 V2000     
   20.0633   15.2357   23.7310 C   0  0  0  0  0  0  0  0  0  0  0  0
   20.7780   14.9036   22.8061 O   0  5  0  0  0  0  0  0  0  0  0  0
   19.1466   14.5573   24.1508 O   0  0  0  0  0  0  0  0  0  0  0  0
   20.3188   16.5869   24.3892 C   0  0  0  0  0  0  0  0  0  0  0  0
   21.3944   16.7938   24.3360 H   0  0  0  0  0  0  0  0  0  0  0  0
   20.0564   16.5037   25.4507 H   0  0  0  0  0  0  0  0  0  0  0  0
   19.5206   17.7379   23.7289 C   0  0  0  0  0  0  0  0  0  0  0  0
   19.7851   17.7883   22.6643 H   0  0  0  0  0  0  0  0  0  0  0  0
   18.4465   17.5130   23.7822 H   0  0  0  0  0  0  0  0  0  0  0  0
   19.8036   19.0967   24.4102 C   0  0  0  0  0  0  0  0  0  0  0  0
   20.8702   19.3416   24.3224 H   0  0  0  0  0  0  0  0  0  0  0  0
   19.5994   19.0065   25.4858 H   0  0  0  0  0  0  0  0  0  0  0  0
   18.9477   20.2589   23.8471 C   0  0  0  0  0  0  0  0  0  0  0  0
   17.8873   20.0387   24.0301 H   0  0  0  0  0  0  0  0  0  0  0  0
   19.1648   21.1694   24.4210 H   0  0  0  0  0  0  0  0  0  0  0  0
   19.1386   20.5504   22.3350 C   0  0  0  0  0  0  0  0  0  0  0  0
   18.4998   21.4003   22.0594 H   0  0  0  0  0  0  0  0  0  0  0  0
   18.7663   19.6986   21.7509 H   0  0  0  0  0  0  0  0  0  0  0  0
   20.5929   20.8588   21.9013 C   0  0  0  0  0  0  0  0  0  0  0  0
   21.2351   19.9874   22.0858 H   0  0  0  0  0  0  0  0  0  0  0  0
   20.6073   21.0221   20.8150 H   0  0  0  0  0  0  0  0  0  0  0  0
   21.1871   22.1016   22.5987 C   0  0  0  0  0  0  0  0  0  0  0  0
   21.2905   21.9409   23.6792 H   0  0  0  0  0  0  0  0  0  0  0  0
   22.1839   22.3272   22.1986 H   0  0  0  0  0  0  0  0  0  0  0  0
   20.5512   22.9823   22.4405 H   0  0  0  0  0  0  0  0  0  0  0  0
  1  2  1  0  0  0  0
  1  3  2  0  0  0  0
  1  4  1  0  0  0  0
  4  5  1  0  0  0  0
  4  6  1  0  0  0  0
  4  7  1  0  0  0  0
  7  8  1  0  0  0  0
  7  9  1  0  0  0  0
  7 10  1  0  0  0  0
 10 11  1  0  0  0  0
 10 12  1  0  0  0  0
 10 13  1  0  0  0  0
 13 14  1  0  0  0  0
 13 15  1  0  0  0  0
 13 16  1  0  0  0  0
 16 17  1  0  0  0  0
 16 18  1  0  0  0  0
 16 19  1  0  0  0  0
 19 20  1  0  0  0  0
 19 21  1  0  0  0  0
 19 22  1  0  0  0  0
 22 23  1  0  0  0  0
 22 24  1  0  0  0  0
 22 25  1  0  0  0  0
M  END
> <VConfSearch Rank>
480

> <Conf_Id>
30

> <Delta U+W>
0.843

> <U+W>
-50.787

> <U>
8.647

> <W>
-59.434

> <W(PB)>
-61.861

> <W(SA)>
2.428

> <Valence>
8.924

> <Coulomb>
-1.170

> <VdW>
0.894

> <VdW6>
-10.224

> <VdW12>
11.118

> <Bond>
0.231

> <Angle>
3.232

> <Pdih>
5.460

> <Idih>
0.000

> <Tether>
0.000

$$$$
VeraChem MOL file


 25 24  0  0  0  0  0  0  0  0999 V2000     
   19.4219   21.7351   19.2368 C   0  0  0  0  0  0  0  0  0  0  0  0
   20.2280   21.0958   18.5886 O   0  5  0  0  0  0  0  0  0  0  0  0
   18.7981   22.6729   18.7813 O   0  0  0  0  0  0  0  0  0  0  0  0
   19.1590   21.3655   20.6975 C   0  0  0  0  0  0  0  0  0  0  0  0
   18.0872   21.1565   20.7940 H   0  0  0  0  0  0  0  0  0  0  0  0
   19.3684   22.2554   21.3026 H   0  0  0  0  0  0  0  0  0  0  0  0
   19.9786   20.1617   21.2337 C   0  0  0  0  0  0  0  0  0  0  0  0
   19.7690   19.2752   20.6190 H   0  0  0  0  0  0  0  0  0  0  0  0
   21.0514   20.3751   21.1281 H   0  0  0  0  0  0  0  0  0  0  0  0
   19.6524   19.8576   22.7121 C   0  0  0  0  0  0  0  0  0  0  0  0
   18.5795   19.6446   22.8152 H   0  0  0  0  0  0  0  0  0  0  0  0
   19.8627   20.7452   23.3247 H   0  0  0  0  0  0  0  0  0  0  0  0
   20.4688   18.6598   23.2435 C   0  0  0  0  0  0  0  0  0  0  0  0
   20.2587   17.7722   22.6311 H   0  0  0  0  0  0  0  0  0  0  0  0
   21.5417   18.8726   23.1405 H   0  0  0  0  0  0  0  0  0  0  0  0
   20.1431   18.3553   24.7217 C   0  0  0  0  0  0  0  0  0  0  0  0
   19.0702   18.1425   24.8248 H   0  0  0  0  0  0  0  0  0  0  0  0
   20.3532   19.2428   25.3342 H   0  0  0  0  0  0  0  0  0  0  0  0
   20.9590   17.1580   25.2529 C   0  0  0  0  0  0  0  0  0  0  0  0
   20.7499   16.2678   24.6436 H   0  0  0  0  0  0  0  0  0  0  0  0
   22.0329   17.3681   25.1530 H   0  0  0  0  0  0  0  0  0  0  0  0
   20.6309   16.8571   26.7292 C   0  0  0  0  0  0  0  0  0  0  0  0
   19.5679   16.6124   26.8533 H   0  0  0  0  0  0  0  0  0  0  0  0
   21.2195   16.0037   27.0901 H   0  0  0  0  0  0  0  0  0  0  0  0
   20.8606   17.7210   27.3666 H   0  0  0  0  0  0  0  0  0  0  0  0
  1  2  1  0  0  0  0
  1  3  2  0  0  0  0
  1  4  1  0  0  0  0
  4  5  1  0  0  0  0
  4  6  1  0  0  0  0
  4  7  1  0  0  0  0
  7  8  1  0  0  0  0
  7  9  1  0  0  0  0
  7 10  1  0  0  0  0
 10 11  1  0  0  0  0
 10 12  1  0  0  0  0
 10 13  1  0  0  0  0
 13 14  1  0  0  0  0
 13 15  1  0  0  0  0
 13 16  1  0  0  0  0
 16 17  1  0  0  0  0
 16 18  1  0  0  0  0
 16 19  1  0  0  0  0
 19 20  1  0  0  0  0
 19 21  1  0  0  0  0
 19 22  1  0  0  0  0
 22 23  1  0  0  0  0
 22 24  1  0  0  0  0
 22 25  1  0  0  0  0
M  END
> <VConfSearch Rank>
481

> <Conf_Id>
0

> <Delta U+W>
0.000

> <U+W>
-51.629

> <U>
6.586

> <W>
-58.216

> <W(PB)>
-60.757

> <W(SA)>
2.541

> <Valence>
8.027

> <Coulomb>
-2.892

> <VdW>
1.451

> <VdW6>
-7.931

> <VdW12>
9.383

> <Bond>
0.149

> <Angle>
2.726

> <Pdih>
5.152

> <Idih>
0.000

> <Tether>
0.000

$$$$
VeraChem MOL file


 25 24  0  0  0  0  0  0  0  0999 V2000     
   23.6698   20.6170   25.8002 C   0  0  0  0  0  0  0  0  0  0  0  0
   24.6890   19.9661   25.6814 O   0  5  0  0  0  0  0  0  0  0  0  0
   23.6555   21.8071   26.0453 O   0  0  0  0  0  0  0  0  0  0  0  0
   22.3351   19.9056   25.6085 C   0  0  0  0  0  0  0  0  0  0  0  0
   21.5950   20.3894   26.2573 H   0  0  0  0  0  0  0  0  0  0  0  0
   22.4467   18.8722   25.9581 H   0  0  0  0  0  0  0  0  0  0  0  0
   21.8501   19.9234   24.1380 C   0  0  0  0  0  0  0  0  0  0  0  0
   21.7562   20.9646   23.7994 H   0  0  0  0  0  0  0  0  0  0  0  0
   22.6079   19.4476   23.5001 H   0  0  0  0  0  0  0  0  0  0  0  0
   20.4978   19.1973   23.9699 C   0  0  0  0  0  0  0  0  0  0  0  0
   19.7427   19.6746   24.6096 H   0  0  0  0  0  0  0  0  0  0  0  0
   20.5946   18.1572   24.3105 H   0  0  0  0  0  0  0  0  0  0  0  0
   20.0169   19.2165   22.5030 C   0  0  0  0  0  0  0  0  0  0  0  0
   19.9200   20.2564   22.1621 H   0  0  0  0  0  0  0  0  0  0  0  0
   20.7718   18.7392   21.8631 H   0  0  0  0  0  0  0  0  0  0  0  0
   18.6647   18.4905   22.3340 C   0  0  0  0  0  0  0  0  0  0  0  0
   17.9095   18.9676   22.9737 H   0  0  0  0  0  0  0  0  0  0  0  0
   18.7614   17.4505   22.6748 H   0  0  0  0  0  0  0  0  0  0  0  0
   18.1839   18.5095   20.8678 C   0  0  0  0  0  0  0  0  0  0  0  0
   18.0843   19.5484   20.5240 H   0  0  0  0  0  0  0  0  0  0  0  0
   18.9361   18.0313   20.2251 H   0  0  0  0  0  0  0  0  0  0  0  0
   16.8335   17.7837   20.7033 C   0  0  0  0  0  0  0  0  0  0  0  0
   16.5069   17.8068   19.6555 H   0  0  0  0  0  0  0  0  0  0  0  0
   16.9124   16.7326   21.0106 H   0  0  0  0  0  0  0  0  0  0  0  0
   16.0542   18.2612   21.3117 H   0  0  0  0  0  0  0  0  0  0  0  0
  1  2  1  0  0  0  0
  1  3  2  0  0  0  0
  1  4  1  0  0  0  0
  4  5  1  0  0  0  0
  4  6  1  0  0  0  0
  4  7  1  0  0  0  0
  7  8  1  0  0  0  0
  7  9  1  0  0  0  0
  7 10  1  0  0  0  0
 10 11  1  0  0  0  0
 10 12  1  0  0  0  0
 10 13  1  0  0  0  0
 13 14  1  0  0  0  0
 13 15  1  0  0  0  0
 13 16  1  0  0  0  0
 16 17  1  0  0  0  0
 16 18  1  0  0  0  0
 16 19  1  0  0  0  0
 19 20  1  0  0  0  0
 19 21  1  0  0  0  0
 19 22  1  0  0  0  0
 22 23  1  0  0  0  0
 22 24  1  0  0  0  0
 22 25  1  0  0  0  0
M  END
> <VConfSearch Rank>
482

> <Conf_Id>
27

> <Delta U+W>
-1.297

> <U+W>
-52.926

> <U>
5.617

> <W>
-58.543

> <W(PB)>
-61.065

> <W(SA)>
2.522

> <Valence>
7.531

> <Coulomb>
-2.818

> <VdW>
0.904

> <VdW6>
-7.640

> <VdW12>
8.544

> <Bond>
0.115

> <Angle>
2.271

> <Pdih>
5.144

> <Idih>
0.001

> <Tether>
0.000

$$$$
VeraChem MOL file


 25 24  0  0  0  0  0  0  0  0999 V2000     
   23.0904   17.0171   21.4130 C   0  0  0  0  0  0  0  0  0  0  0  0
   24.1135   16.8873   22.0560 O   0  5  0  0  0  0  0  0  0  0  0  0
   22.3604   16.0918   21.1163 O   0  0  0  0  0  0  0  0  0  0  0  0
   22.7122   18.4175   20.9389 C   0  0  0  0  0  0  0  0  0  0  0  0
   21.9943   18.3261   20.1148 H   0  0  0  0  0  0  0  0  0  0  0  0
   23.6161   18.8780   20.5229 H   0  0  0  0  0  0  0  0  0  0  0  0
   22.1342   19.3261   22.0548 C   0  0  0  0  0  0  0  0  0  0  0  0
   22.8525   19.3853   22.8844 H   0  0  0  0  0  0  0  0  0  0  0  0
   22.0210   20.3454   21.6614 H   0  0  0  0  0  0  0  0  0  0  0  0
   20.7688   18.8277   22.5793 C   0  0  0  0  0  0  0  0  0  0  0  0
   20.8776   17.8147   22.9907 H   0  0  0  0  0  0  0  0  0  0  0  0
   20.0584   18.7574   21.7442 H   0  0  0  0  0  0  0  0  0  0  0  0
   20.1974   19.7639   23.6659 C   0  0  0  0  0  0  0  0  0  0  0  0
   20.9085   19.8336   24.5005 H   0  0  0  0  0  0  0  0  0  0  0  0
   20.0849   20.7769   23.2558 H   0  0  0  0  0  0  0  0  0  0  0  0
   18.8335   19.2661   24.1910 C   0  0  0  0  0  0  0  0  0  0  0  0
   18.9458   18.2530   24.6010 H   0  0  0  0  0  0  0  0  0  0  0  0
   18.1224   19.1960   23.3565 H   0  0  0  0  0  0  0  0  0  0  0  0
   18.2622   20.2012   25.2775 C   0  0  0  0  0  0  0  0  0  0  0  0
   18.9703   20.2722   26.1148 H   0  0  0  0  0  0  0  0  0  0  0  0
   18.1467   21.2152   24.8702 H   0  0  0  0  0  0  0  0  0  0  0  0
   16.9004   19.7004   25.7993 C   0  0  0  0  0  0  0  0  0  0  0  0
   16.9929   18.6997   26.2413 H   0  0  0  0  0  0  0  0  0  0  0  0
   16.5091   20.3766   26.5705 H   0  0  0  0  0  0  0  0  0  0  0  0
   16.1631   19.6497   24.9873 H   0  0  0  0  0  0  0  0  0  0  0  0
  1  2  1  0  0  0  0
  1  3  2  0  0  0  0
  1  4  1  0  0  0  0
  4  5  1  0  0  0  0
  4  6  1  0  0  0  0
  4  7  1  0  0  0  0
  7  8  1  0  0  0  0
  7  9  1  0  0  0  0
  7 10  1  0  0  0  0
 10 11  1  0  0  0  0
 10 12  1  0  0  0  0
 10 13  1  0  0  0  0
 13 14  1  0  0  0  0
 13 15  1  0  0  0  0
 13 16  1  0  0  0  0
 16 17  1  0  0  0  0
 16 18  1  0  0  0  0
 16 19  1  0  0  0  0
 19 20  1  0  0  0  0
 19 21  1  0  0  0  0
 19 22  1  0  0  0  0
 22 23  1  0  0  0  0
 22 24  1  0  0  0  0
 22 25  1  0  0  0  0
M  END
> <VConfSearch Rank>
483

> <Conf_Id>
37

> <Delta U+W>
-0.230

> <U+W>
-51.860

> <U>
7.816

> <W>
-59.675

> <W(PB)>
-62.180

> <W(SA)>
2.505

> <Valence>
7.785

> <Coulomb>
-0.713

> <VdW>
0.744

> <VdW6>
-8.514

> <VdW12>
9.259

> <Bond>
0.136

> <Angle>
2.433

> <Pdih>
5.216

> <Idih>
0.000

> <Tether>
0.000

$$$$
VeraChem MOL file


 25 24  0  0  0  0  0  0  0  0999 V2000     
   20.1078   15.6635   21.6841 C   0  0  0  0  0  0  0  0  0  0  0  0
   19.2202   15.4632   20.8784 O   0  5  0  0  0  0  0  0  0  0  0  0
   20.1962   15.0801   22.7465 O   0  0  0  0  0  0  0  0  0  0  0  0
   21.1782   16.6930   21.3330 C   0  0  0  0  0  0  0  0  0  0  0  0
   21.4872   16.5048   20.2980 H   0  0  0  0  0  0  0  0  0  0  0  0
   22.0569   16.5136   21.9643 H   0  0  0  0  0  0  0  0  0  0  0  0
   20.7083   18.1641   21.4742 C   0  0  0  0  0  0  0  0  0  0  0  0
   21.4871   18.8270   21.0733 H   0  0  0  0  0  0  0  0  0  0  0  0
   19.8119   18.3206   20.8581 H   0  0  0  0  0  0  0  0  0  0  0  0
   20.4112   18.5550   22.9394 C   0  0  0  0  0  0  0  0  0  0  0  0
   21.3060   18.3842   23.5535 H   0  0  0  0  0  0  0  0  0  0  0  0
   19.6203   17.9072   23.3423 H   0  0  0  0  0  0  0  0  0  0  0  0
   19.9760   20.0314   23.0603 C   0  0  0  0  0  0  0  0  0  0  0  0
   20.7666   20.6812   22.6606 H   0  0  0  0  0  0  0  0  0  0  0  0
   19.0811   20.2011   22.4459 H   0  0  0  0  0  0  0  0  0  0  0  0
   19.6782   20.4225   24.5239 C   0  0  0  0  0  0  0  0  0  0  0  0
   20.5729   20.2525   25.1385 H   0  0  0  0  0  0  0  0  0  0  0  0
   18.8877   19.7726   24.9238 H   0  0  0  0  0  0  0  0  0  0  0  0
   19.2426   21.8979   24.6452 C   0  0  0  0  0  0  0  0  0  0  0  0
   20.0318   22.5511   24.2477 H   0  0  0  0  0  0  0  0  0  0  0  0
   18.3466   22.0711   24.0331 H   0  0  0  0  0  0  0  0  0  0  0  0
   18.9462   22.2843   26.1082 C   0  0  0  0  0  0  0  0  0  0  0  0
   19.8357   22.1507   26.7377 H   0  0  0  0  0  0  0  0  0  0  0  0
   18.6381   23.3358   26.1758 H   0  0  0  0  0  0  0  0  0  0  0  0
   18.1378   21.6670   26.5215 H   0  0  0  0  0  0  0  0  0  0  0  0
  1  2  1  0  0  0  0
  1  3  2  0  0  0  0
  1  4  1  0  0  0  0
  4  5  1  0  0  0  0
  4  6  1  0  0  0  0
  4  7  1  0  0  0  0
  7  8  1  0  0  0  0
  7  9  1  0  0  0  0
  7 10  1  0  0  0  0
 10 11  1  0  0  0  0
 10 12  1  0  0  0  0
 10 13  1  0  0  0  0
 13 14  1  0  0  0  0
 13 15  1  0  0  0  0
 13 16  1  0  0  0  0
 16 17  1  0  0  0  0
 16 18  1  0  0  0  0
 16 19  1  0  0  0  0
 19 20  1  0  0  0  0
 19 21  1  0  0  0  0
 19 22  1  0  0  0  0
 22 23  1  0  0  0  0
 22 24  1  0  0  0  0
 22 25  1  0  0  0  0
M  END
> <VConfSearch Rank>
484

> <Conf_Id>
54

> <Delta U+W>
-0.224

> <U+W>
-51.854

> <U>
7.816

> <W>
-59.670

> <W(PB)>
-62.157

> <W(SA)>
2.487

> <Valence>
7.785

> <Coulomb>
-0.713

> <VdW>
0.744

> <VdW6>
-8.515

> <VdW12>
9.259

> <Bond>
0.136

> <Angle>
2.433

> <Pdih>
5.215

> <Idih>
0.000

> <Tether>
0.000

$$$$
VeraChem MOL file


 25 24  0  0  0  0  0  0  0  0999 V2000     
   19.0287   17.0285   20.0219 C   0  0  0  0  0  0  0  0  0  0  0  0
   18.5638   15.9920   20.4539 O   0  5  0  0  0  0  0  0  0  0  0  0
   18.4642   17.7302   19.2058 O   0  0  0  0  0  0  0  0  0  0  0  0
   20.4050   17.4653   20.5162 C   0  0  0  0  0  0  0  0  0  0  0  0
   20.9888   17.7621   19.6370 H   0  0  0  0  0  0  0  0  0  0  0  0
   20.9115   16.5973   20.9553 H   0  0  0  0  0  0  0  0  0  0  0  0
   20.3696   18.6358   21.5332 C   0  0  0  0  0  0  0  0  0  0  0  0
   21.3983   18.9766   21.7050 H   0  0  0  0  0  0  0  0  0  0  0  0
   19.8236   19.4823   21.0944 H   0  0  0  0  0  0  0  0  0  0  0  0
   19.7202   18.2332   22.8793 C   0  0  0  0  0  0  0  0  0  0  0  0
   20.2939   17.4170   23.3392 H   0  0  0  0  0  0  0  0  0  0  0  0
   18.7149   17.8338   22.6877 H   0  0  0  0  0  0  0  0  0  0  0  0
   19.5923   19.4059   23.8810 C   0  0  0  0  0  0  0  0  0  0  0  0
   19.0348   20.2292   23.4140 H   0  0  0  0  0  0  0  0  0  0  0  0
   18.9864   19.0617   24.7287 H   0  0  0  0  0  0  0  0  0  0  0  0
   20.9549   19.9259   24.4022 C   0  0  0  0  0  0  0  0  0  0  0  0
   21.5598   20.2776   23.5571 H   0  0  0  0  0  0  0  0  0  0  0  0
   21.5141   19.1011   24.8646 H   0  0  0  0  0  0  0  0  0  0  0  0
   20.8226   21.0905   25.4115 C   0  0  0  0  0  0  0  0  0  0  0  0
   21.8251   21.4878   25.6225 H   0  0  0  0  0  0  0  0  0  0  0  0
   20.2530   21.9128   24.9569 H   0  0  0  0  0  0  0  0  0  0  0  0
   20.1641   20.6760   26.7455 C   0  0  0  0  0  0  0  0  0  0  0  0
   19.1158   20.3858   26.6031 H   0  0  0  0  0  0  0  0  0  0  0  0
   20.6972   19.8315   27.2012 H   0  0  0  0  0  0  0  0  0  0  0  0
   20.1827   21.5110   27.4578 H   0  0  0  0  0  0  0  0  0  0  0  0
  1  2  1  0  0  0  0
  1  3  2  0  0  0  0
  1  4  1  0  0  0  0
  4  5  1  0  0  0  0
  4  6  1  0  0  0  0
  4  7  1  0  0  0  0
  7  8  1  0  0  0  0
  7  9  1  0  0  0  0
  7 10  1  0  0  0  0
 10 11  1  0  0  0  0
 10 12  1  0  0  0  0
 10 13  1  0  0  0  0
 13 14  1  0  0  0  0
 13 15  1  0  0  0  0
 13 16  1  0  0  0  0
 16 17  1  0  0  0  0
 16 18  1  0  0  0  0
 16 19  1  0  0  0  0
 19 20  1  0  0  0  0
 19 21  1  0  0  0  0
 19 22  1  0  0  0  0
 22 23  1  0  0  0  0
 22 24  1  0  0  0  0
 22 25  1  0  0  0  0
M  END
> <VConfSearch Rank>
485

> <Conf_Id>
101

> <Delta U+W>
1.534

> <U+W>
-50.095

> <U>
9.416

> <W>
-59.512

> <W(PB)>
-61.988

> <W(SA)>
2.476

> <Valence>
8.939

> <Coulomb>
-0.615

> <VdW>
1.092

> <VdW6>
-9.710

> <VdW12>
10.802

> <Bond>
0.216

> <Angle>
2.979

> <Pdih>
5.743

> <Idih>
0.000

> <Tether>
0.000

$$$$
VeraChem MOL file


 25 24  0  0  0  0  0  0  0  0999 V2000     
   21.0441   23.2759   23.3042 C   0  0  0  0  0  0  0  0  0  0  0  0
   21.2136   23.6198   22.1510 O   0  5  0  0  0  0  0  0  0  0  0  0
   20.7906   24.0491   24.2068 O   0  0  0  0  0  0  0  0  0  0  0  0
   21.1318   21.7898   23.6328 C   0  0  0  0  0  0  0  0  0  0  0  0
   21.5109   21.6900   24.6569 H   0  0  0  0  0  0  0  0  0  0  0  0
   21.8776   21.3453   22.9646 H   0  0  0  0  0  0  0  0  0  0  0  0
   19.7683   21.0639   23.4937 C   0  0  0  0  0  0  0  0  0  0  0  0
   19.0236   21.5966   24.1013 H   0  0  0  0  0  0  0  0  0  0  0  0
   19.4219   21.1281   22.4530 H   0  0  0  0  0  0  0  0  0  0  0  0
   19.8040   19.5834   23.9426 C   0  0  0  0  0  0  0  0  0  0  0  0
   18.7739   19.2048   23.9423 H   0  0  0  0  0  0  0  0  0  0  0  0
   20.1598   19.5210   24.9799 H   0  0  0  0  0  0  0  0  0  0  0  0
   20.6795   18.6857   23.0340 C   0  0  0  0  0  0  0  0  0  0  0  0
   20.3234   18.7474   21.9974 H   0  0  0  0  0  0  0  0  0  0  0  0
   21.7081   19.0671   23.0258 H   0  0  0  0  0  0  0  0  0  0  0  0
   20.7280   17.2050   23.4896 C   0  0  0  0  0  0  0  0  0  0  0  0
   21.1677   17.1568   24.4951 H   0  0  0  0  0  0  0  0  0  0  0  0
   21.4173   16.6585   22.8317 H   0  0  0  0  0  0  0  0  0  0  0  0
   19.3661   16.4670   23.5052 C   0  0  0  0  0  0  0  0  0  0  0  0
   19.5320   15.4361   23.8468 H   0  0  0  0  0  0  0  0  0  0  0  0
   18.6943   16.9249   24.2430 H   0  0  0  0  0  0  0  0  0  0  0  0
   18.6750   16.4271   22.1251 C   0  0  0  0  0  0  0  0  0  0  0  0
   19.3389   15.9944   21.3655 H   0  0  0  0  0  0  0  0  0  0  0  0
   17.7652   15.8147   22.1685 H   0  0  0  0  0  0  0  0  0  0  0  0
   18.3835   17.4326   21.7964 H   0  0  0  0  0  0  0  0  0  0  0  0
  1  2  1  0  0  0  0
  1  3  2  0  0  0  0
  1  4  1  0  0  0  0
  4  5  1  0  0  0  0
  4  6  1  0  0  0  0
  4  7  1  0  0  0  0
  7  8  1  0  0  0  0
  7  9  1  0  0  0  0
  7 10  1  0  0  0  0
 10 11  1  0  0  0  0
 10 12  1  0  0  0  0
 10 13  1  0  0  0  0
 13 14  1  0  0  0  0
 13 15  1  0  0  0  0
 13 16  1  0  0  0  0
 16 17  1  0  0  0  0
 16 18  1  0  0  0  0
 16 19  1  0  0  0  0
 19 20  1  0  0  0  0
 19 21  1  0  0  0  0
 19 22  1  0  0  0  0
 22 23  1  0  0  0  0
 22 24  1  0  0  0  0
 22 25  1  0  0  0  0
M  END
> <VConfSearch Rank>
486

> <Conf_Id>
75

> <Delta U+W>
1.014

> <U+W>
-50.615

> <U>
8.474

> <W>
-59.089

> <W(PB)>
-61.530

> <W(SA)>
2.441

> <Valence>
9.080

> <Coulomb>
-1.772

> <VdW>
1.165

> <VdW6>
-9.830

> <VdW12>
10.996

> <Bond>
0.240

> <Angle>
3.225

> <Pdih>
5.615

> <Idih>
0.001

> <Tether>
0.000

$$$$
VeraChem MOL file


 25 24  0  0  0  0  0  0  0  0999 V2000     
   21.7215   23.0839   23.2167 C   0  0  0  0  0  0  0  0  0  0  0  0
   21.2456   23.6786   22.2698 O   0  5  0  0  0  0  0  0  0  0  0  0
   22.1445   23.6344   24.2140 O   0  0  0  0  0  0  0  0  0  0  0  0
   21.7713   21.5613   23.1591 C   0  0  0  0  0  0  0  0  0  0  0  0
   22.6566   21.2281   23.7139 H   0  0  0  0  0  0  0  0  0  0  0  0
   21.9133   21.2645   22.1130 H   0  0  0  0  0  0  0  0  0  0  0  0
   20.4973   20.8956   23.7352 C   0  0  0  0  0  0  0  0  0  0  0  0
   20.3620   21.2129   24.7786 H   0  0  0  0  0  0  0  0  0  0  0  0
   19.6192   21.2497   23.1775 H   0  0  0  0  0  0  0  0  0  0  0  0
   20.5713   19.3550   23.6641 C   0  0  0  0  0  0  0  0  0  0  0  0
   21.4506   19.0057   24.2224 H   0  0  0  0  0  0  0  0  0  0  0  0
   20.7177   19.0468   22.6221 H   0  0  0  0  0  0  0  0  0  0  0  0
   19.2993   18.6948   24.2462 C   0  0  0  0  0  0  0  0  0  0  0  0
   19.2052   19.0016   25.2969 H   0  0  0  0  0  0  0  0  0  0  0  0
   18.4036   19.0737   23.7354 H   0  0  0  0  0  0  0  0  0  0  0  0
   19.3292   17.1462   24.1877 C   0  0  0  0  0  0  0  0  0  0  0  0
   18.8356   16.7610   25.0904 H   0  0  0  0  0  0  0  0  0  0  0  0
   20.3647   16.7828   24.2360 H   0  0  0  0  0  0  0  0  0  0  0  0
   18.6062   16.5313   22.9637 C   0  0  0  0  0  0  0  0  0  0  0  0
   18.6178   15.4374   23.0654 H   0  0  0  0  0  0  0  0  0  0  0  0
   17.5487   16.8293   22.9728 H   0  0  0  0  0  0  0  0  0  0  0  0
   19.2321   16.9077   21.6046 C   0  0  0  0  0  0  0  0  0  0  0  0
   20.3063   16.6822   21.5893 H   0  0  0  0  0  0  0  0  0  0  0  0
   18.7556   16.3429   20.7930 H   0  0  0  0  0  0  0  0  0  0  0  0
   19.0959   17.9746   21.3885 H   0  0  0  0  0  0  0  0  0  0  0  0
  1  2  1  0  0  0  0
  1  3  2  0  0  0  0
  1  4  1  0  0  0  0
  4  5  1  0  0  0  0
  4  6  1  0  0  0  0
  4  7  1  0  0  0  0
  7  8  1  0  0  0  0
  7  9  1  0  0  0  0
  7 10  1  0  0  0  0
 10 11  1  0  0  0  0
 10 12  1  0  0  0  0
 10 13  1  0  0  0  0
 13 14  1  0  0  0  0
 13 15  1  0  0  0  0
 13 16  1  0  0  0  0
 16 17  1  0  0  0  0
 16 18  1  0  0  0  0
 16 19  1  0  0  0  0
 19 20  1  0  0  0  0
 19 21  1  0  0  0  0
 19 22  1  0  0  0  0
 22 23  1  0  0  0  0
 22 24  1  0  0  0  0
 22 25  1  0  0  0  0
M  END
> <VConfSearch Rank>
487

> <Conf_Id>
125

> <Delta U+W>
2.314

> <U+W>
-49.315

> <U>
9.740

> <W>
-59.054

> <W(PB)>
-61.488

> <W(SA)>
2.433

> <Valence>
10.506

> <Coulomb>
-1.761

> <VdW>
0.994

> <VdW6>
-9.209

> <VdW12>
10.203

> <Bond>
0.193

> <Angle>
2.979

> <Pdih>
7.334

> <Idih>
0.001

> <Tether>
0.000

$$$$
VeraChem MOL file


 25 24  0  0  0  0  0  0  0  0999 V2000     
   16.3882   20.3208   24.5292 C   0  0  0  0  0  0  0  0  0  0  0  0
   16.4214   21.5355   24.5349 O   0  5  0  0  0  0  0  0  0  0  0  0
   15.4569   19.6708   24.9618 O   0  0  0  0  0  0  0  0  0  0  0  0
   17.5918   19.5701   23.9707 C   0  0  0  0  0  0  0  0  0  0  0  0
   18.0142   20.1746   23.1603 H   0  0  0  0  0  0  0  0  0  0  0  0
   17.2326   18.6343   23.5263 H   0  0  0  0  0  0  0  0  0  0  0  0
   18.6661   19.2729   25.0490 C   0  0  0  0  0  0  0  0  0  0  0  0
   19.0517   20.2190   25.4533 H   0  0  0  0  0  0  0  0  0  0  0  0
   18.1877   18.7493   25.8883 H   0  0  0  0  0  0  0  0  0  0  0  0
   19.8402   18.4087   24.5305 C   0  0  0  0  0  0  0  0  0  0  0  0
   19.4524   17.4596   24.1358 H   0  0  0  0  0  0  0  0  0  0  0  0
   20.4850   18.1510   25.3818 H   0  0  0  0  0  0  0  0  0  0  0  0
   20.6916   19.1132   23.4488 C   0  0  0  0  0  0  0  0  0  0  0  0
   20.0720   19.3136   22.5665 H   0  0  0  0  0  0  0  0  0  0  0  0
   21.0369   20.0843   23.8285 H   0  0  0  0  0  0  0  0  0  0  0  0
   21.9116   18.2566   23.0373 C   0  0  0  0  0  0  0  0  0  0  0  0
   21.5680   17.3031   22.6135 H   0  0  0  0  0  0  0  0  0  0  0  0
   22.4926   18.0065   23.9355 H   0  0  0  0  0  0  0  0  0  0  0  0
   22.8476   18.9634   22.0293 C   0  0  0  0  0  0  0  0  0  0  0  0
   23.1976   19.9152   22.4523 H   0  0  0  0  0  0  0  0  0  0  0  0
   23.7417   18.3416   21.8832 H   0  0  0  0  0  0  0  0  0  0  0  0
   22.1887   19.2163   20.6558 C   0  0  0  0  0  0  0  0  0  0  0  0
   21.3582   19.9288   20.7348 H   0  0  0  0  0  0  0  0  0  0  0  0
   22.9189   19.6348   19.9511 H   0  0  0  0  0  0  0  0  0  0  0  0
   21.8024   18.2824   20.2273 H   0  0  0  0  0  0  0  0  0  0  0  0
  1  2  1  0  0  0  0
  1  3  2  0  0  0  0
  1  4  1  0  0  0  0
  4  5  1  0  0  0  0
  4  6  1  0  0  0  0
  4  7  1  0  0  0  0
  7  8  1  0  0  0  0
  7  9  1  0  0  0  0
  7 10  1  0  0  0  0
 10 11  1  0  0  0  0
 10 12  1  0  0  0  0
 10 13  1  0  0  0  0
 13 14  1  0  0  0  0
 13 15  1  0  0  0  0
 13 16  1  0  0  0  0
 16 17  1  0  0  0  0
 16 18  1  0  0  0  0
 16 19  1  0  0  0  0
 19 20  1  0  0  0  0
 19 21  1  0  0  0  0
 19 22  1  0  0  0  0
 22 23  1  0  0  0  0
 22 24  1  0  0  0  0
 22 25  1  0  0  0  0
M  END
> <VConfSearch Rank>
488

> <Conf_Id>
4

> <Delta U+W>
0.189

> <U+W>
-51.441

> <U>
7.701

> <W>
-59.141

> <W(PB)>
-61.609

> <W(SA)>
2.467

> <Valence>
8.550

> <Coulomb>
-1.988

> <VdW>
1.139

> <VdW6>
-8.988

> <VdW12>
10.127

> <Bond>
0.191

> <Angle>
2.738

> <Pdih>
5.621

> <Idih>
0.001

> <Tether>
0.000

$$$$
VeraChem MOL file


 25 24  0  0  0  0  0  0  0  0999 V2000     
   18.5746   20.2304   19.6174 C   0  0  0  0  0  0  0  0  0  0  0  0
   18.6381   19.2146   18.9534 O   0  5  0  0  0  0  0  0  0  0  0  0
   18.0336   21.2501   19.2377 O   0  0  0  0  0  0  0  0  0  0  0  0
   19.1870   20.2175   21.0134 C   0  0  0  0  0  0  0  0  0  0  0  0
   19.5490   21.2285   21.2353 H   0  0  0  0  0  0  0  0  0  0  0  0
   20.0610   19.5570   20.9874 H   0  0  0  0  0  0  0  0  0  0  0  0
   18.1849   19.7564   22.1035 C   0  0  0  0  0  0  0  0  0  0  0  0
   17.2821   20.3795   22.0385 H   0  0  0  0  0  0  0  0  0  0  0  0
   17.8657   18.7257   21.8960 H   0  0  0  0  0  0  0  0  0  0  0  0
   18.7489   19.8498   23.5414 C   0  0  0  0  0  0  0  0  0  0  0  0
   17.9399   19.6192   24.2480 H   0  0  0  0  0  0  0  0  0  0  0  0
   19.0579   20.8834   23.7491 H   0  0  0  0  0  0  0  0  0  0  0  0
   19.9333   18.8902   23.8011 C   0  0  0  0  0  0  0  0  0  0  0  0
   19.6370   17.8639   23.5451 H   0  0  0  0  0  0  0  0  0  0  0  0
   20.7720   19.1564   23.1467 H   0  0  0  0  0  0  0  0  0  0  0  0
   20.3947   18.9414   25.2761 C   0  0  0  0  0  0  0  0  0  0  0  0
   19.5344   18.7361   25.9276 H   0  0  0  0  0  0  0  0  0  0  0  0
   20.7359   19.9563   25.5219 H   0  0  0  0  0  0  0  0  0  0  0  0
   21.5131   17.9256   25.6065 C   0  0  0  0  0  0  0  0  0  0  0  0
   21.6968   17.9439   26.6896 H   0  0  0  0  0  0  0  0  0  0  0  0
   21.1733   16.9086   25.3668 H   0  0  0  0  0  0  0  0  0  0  0  0
   22.8404   18.2164   24.8727 C   0  0  0  0  0  0  0  0  0  0  0  0
   23.1837   19.2398   25.0723 H   0  0  0  0  0  0  0  0  0  0  0  0
   23.6241   17.5254   25.2090 H   0  0  0  0  0  0  0  0  0  0  0  0
   22.7337   18.0940   23.7877 H   0  0  0  0  0  0  0  0  0  0  0  0
  1  2  1  0  0  0  0
  1  3  2  0  0  0  0
  1  4  1  0  0  0  0
  4  5  1  0  0  0  0
  4  6  1  0  0  0  0
  4  7  1  0  0  0  0
  7  8  1  0  0  0  0
  7  9  1  0  0  0  0
  7 10  1  0  0  0  0
 10 11  1  0  0  0  0
 10 12  1  0  0  0  0
 10 13  1  0  0  0  0
 13 14  1  0  0  0  0
 13 15  1  0  0  0  0
 13 16  1  0  0  0  0
 16 17  1  0  0  0  0
 16 18  1  0  0  0  0
 16 19  1  0  0  0  0
 19 20  1  0  0  0  0
 19 21  1  0  0  0  0
 19 22  1  0  0  0  0
 22 23  1  0  0  0  0
 22 24  1  0  0  0  0
 22 25  1  0  0  0  0
M  END
> <VConfSearch Rank>
489

> <Conf_Id>
17

> <Delta U+W>
0.219

> <U+W>
-51.411

> <U>
7.701

> <W>
-59.111

> <W(PB)>
-61.599

> <W(SA)>
2.488

> <Valence>
8.550

> <Coulomb>
-1.988

> <VdW>
1.139

> <VdW6>
-8.988

> <VdW12>
10.127

> <Bond>
0.191

> <Angle>
2.738

> <Pdih>
5.621

> <Idih>
0.001

> <Tether>
0.000

$$$$
VeraChem MOL file


 25 24  0  0  0  0  0  0  0  0999 V2000     
   23.4342   20.2956   22.1713 C   0  0  0  0  0  0  0  0  0  0  0  0
   23.9969   19.3321   21.6897 O   0  5  0  0  0  0  0  0  0  0  0  0
   23.8225   20.8730   23.1677 O   0  0  0  0  0  0  0  0  0  0  0  0
   22.1816   20.8231   21.4771 C   0  0  0  0  0  0  0  0  0  0  0  0
   22.1709   20.4521   20.4451 H   0  0  0  0  0  0  0  0  0  0  0  0
   22.2721   21.9143   21.4211 H   0  0  0  0  0  0  0  0  0  0  0  0
   20.8593   20.4489   22.1958 C   0  0  0  0  0  0  0  0  0  0  0  0
   20.9019   20.8133   23.2307 H   0  0  0  0  0  0  0  0  0  0  0  0
   20.0271   20.9737   21.7077 H   0  0  0  0  0  0  0  0  0  0  0  0
   20.5852   18.9260   22.1756 C   0  0  0  0  0  0  0  0  0  0  0  0
   21.3771   18.3969   22.7235 H   0  0  0  0  0  0  0  0  0  0  0  0
   20.6352   18.5680   21.1381 H   0  0  0  0  0  0  0  0  0  0  0  0
   19.2066   18.5403   22.7625 C   0  0  0  0  0  0  0  0  0  0  0  0
   18.4125   19.0614   22.2104 H   0  0  0  0  0  0  0  0  0  0  0  0
   19.0466   17.4661   22.5970 H   0  0  0  0  0  0  0  0  0  0  0  0
   19.0747   18.8407   24.2736 C   0  0  0  0  0  0  0  0  0  0  0  0
   19.1568   19.9211   24.4495 H   0  0  0  0  0  0  0  0  0  0  0  0
   19.9021   18.3633   24.8162 H   0  0  0  0  0  0  0  0  0  0  0  0
   17.7297   18.3384   24.8396 C   0  0  0  0  0  0  0  0  0  0  0  0
   16.8999   18.8128   24.2976 H   0  0  0  0  0  0  0  0  0  0  0  0
   17.6399   17.2554   24.6767 H   0  0  0  0  0  0  0  0  0  0  0  0
   17.5982   18.6420   26.3457 C   0  0  0  0  0  0  0  0  0  0  0  0
   17.6521   19.7221   26.5349 H   0  0  0  0  0  0  0  0  0  0  0  0
   16.6370   18.2779   26.7313 H   0  0  0  0  0  0  0  0  0  0  0  0
   18.3991   18.1536   26.9162 H   0  0  0  0  0  0  0  0  0  0  0  0
  1  2  1  0  0  0  0
  1  3  2  0  0  0  0
  1  4  1  0  0  0  0
  4  5  1  0  0  0  0
  4  6  1  0  0  0  0
  4  7  1  0  0  0  0
  7  8  1  0  0  0  0
  7  9  1  0  0  0  0
  7 10  1  0  0  0  0
 10 11  1  0  0  0  0
 10 12  1  0  0  0  0
 10 13  1  0  0  0  0
 13 14  1  0  0  0  0
 13 15  1  0  0  0  0
 13 16  1  0  0  0  0
 16 17  1  0  0  0  0
 16 18  1  0  0  0  0
 16 19  1  0  0  0  0
 19 20  1  0  0  0  0
 19 21  1  0  0  0  0
 19 22  1  0  0  0  0
 22 23  1  0  0  0  0
 22 24  1  0  0  0  0
 22 25  1  0  0  0  0
M  END
> <VConfSearch Rank>
490

> <Conf_Id>
142

> <Delta U+W>
0.593

> <U+W>
-51.037

> <U>
8.903

> <W>
-59.940

> <W(PB)>
-62.418

> <W(SA)>
2.478

> <Valence>
8.305

> <Coulomb>
-0.223

> <VdW>
0.821

> <VdW6>
-9.236

> <VdW12>
10.057

> <Bond>
0.173

> <Angle>
2.663

> <Pdih>
5.469

> <Idih>
0.001

> <Tether>
0.000

$$$$
VeraChem MOL file


 25 24  0  0  0  0  0  0  0  0999 V2000     
   21.7958   20.3788   20.4923 C   0  0  0  0  0  0  0  0  0  0  0  0
   21.7685   21.3586   19.7734 O   0  5  0  0  0  0  0  0  0  0  0  0
   22.8220   19.8239   20.8331 O   0  0  0  0  0  0  0  0  0  0  0  0
   20.4666   19.7998   20.9685 C   0  0  0  0  0  0  0  0  0  0  0  0
   20.6422   18.7903   21.3576 H   0  0  0  0  0  0  0  0  0  0  0  0
   19.8257   19.6856   20.0866 H   0  0  0  0  0  0  0  0  0  0  0  0
   19.7368   20.6734   22.0251 C   0  0  0  0  0  0  0  0  0  0  0  0
   19.5155   21.6530   21.5794 H   0  0  0  0  0  0  0  0  0  0  0  0
   18.7634   20.2224   22.2573 H   0  0  0  0  0  0  0  0  0  0  0  0
   20.5355   20.8946   23.3357 C   0  0  0  0  0  0  0  0  0  0  0  0
   19.9399   21.5255   24.0094 H   0  0  0  0  0  0  0  0  0  0  0  0
   21.4434   21.4699   23.1083 H   0  0  0  0  0  0  0  0  0  0  0  0
   20.9438   19.6032   24.0880 C   0  0  0  0  0  0  0  0  0  0  0  0
   21.6323   19.0123   23.4691 H   0  0  0  0  0  0  0  0  0  0  0  0
   21.5122   19.8904   24.9830 H   0  0  0  0  0  0  0  0  0  0  0  0
   19.7413   18.7301   24.5151 C   0  0  0  0  0  0  0  0  0  0  0  0
   19.2041   18.3744   23.6263 H   0  0  0  0  0  0  0  0  0  0  0  0
   19.0346   19.3377   25.0966 H   0  0  0  0  0  0  0  0  0  0  0  0
   20.1885   17.5145   25.3539 C   0  0  0  0  0  0  0  0  0  0  0  0
   20.8976   16.9067   24.7750 H   0  0  0  0  0  0  0  0  0  0  0  0
   20.7212   17.8587   26.2512 H   0  0  0  0  0  0  0  0  0  0  0  0
   18.9888   16.6415   25.7740 C   0  0  0  0  0  0  0  0  0  0  0  0
   18.4561   16.2568   24.8944 H   0  0  0  0  0  0  0  0  0  0  0  0
   19.3249   15.7826   26.3692 H   0  0  0  0  0  0  0  0  0  0  0  0
   18.2777   17.2172   26.3808 H   0  0  0  0  0  0  0  0  0  0  0  0
  1  2  1  0  0  0  0
  1  3  2  0  0  0  0
  1  4  1  0  0  0  0
  4  5  1  0  0  0  0
  4  6  1  0  0  0  0
  4  7  1  0  0  0  0
  7  8  1  0  0  0  0
  7  9  1  0  0  0  0
  7 10  1  0  0  0  0
 10 11  1  0  0  0  0
 10 12  1  0  0  0  0
 10 13  1  0  0  0  0
 13 14  1  0  0  0  0
 13 15  1  0  0  0  0
 13 16  1  0  0  0  0
 16 17  1  0  0  0  0
 16 18  1  0  0  0  0
 16 19  1  0  0  0  0
 19 20  1  0  0  0  0
 19 21  1  0  0  0  0
 19 22  1  0  0  0  0
 22 23  1  0  0  0  0
 22 24  1  0  0  0  0
 22 25  1  0  0  0  0
M  END
> <VConfSearch Rank>
491

> <Conf_Id>
135

> <Delta U+W>
1.314

> <U+W>
-50.316

> <U>
9.773

> <W>
-60.088

> <W(PB)>
-62.535

> <W(SA)>
2.447

> <Valence>
8.741

> <Coulomb>
0.479

> <VdW>
0.552

> <VdW6>
-10.627

> <VdW12>
11.179

> <Bond>
0.227

> <Angle>
3.155

> <Pdih>
5.358

> <Idih>
0.001

> <Tether>
0.000

$$$$
VeraChem MOL file


 25 24  0  0  0  0  0  0  0  0999 V2000     
   17.7258   22.1192   25.1627 C   0  0  0  0  0  0  0  0  0  0  0  0
   16.5795   22.1535   24.7606 O   0  5  0  0  0  0  0  0  0  0  0  0
   18.0792   22.5830   26.2289 O   0  0  0  0  0  0  0  0  0  0  0  0
   18.7744   21.4365   24.2916 C   0  0  0  0  0  0  0  0  0  0  0  0
   19.7348   21.9381   24.4602 H   0  0  0  0  0  0  0  0  0  0  0  0
   18.4980   21.6058   23.2452 H   0  0  0  0  0  0  0  0  0  0  0  0
   18.9038   19.9195   24.5879 C   0  0  0  0  0  0  0  0  0  0  0  0
   19.0841   19.7873   25.6638 H   0  0  0  0  0  0  0  0  0  0  0  0
   17.9503   19.4189   24.3701 H   0  0  0  0  0  0  0  0  0  0  0  0
   20.0483   19.2294   23.8078 C   0  0  0  0  0  0  0  0  0  0  0  0
   20.1557   18.2102   24.1998 H   0  0  0  0  0  0  0  0  0  0  0  0
   20.9963   19.7470   24.0073 H   0  0  0  0  0  0  0  0  0  0  0  0
   19.7993   19.1582   22.2822 C   0  0  0  0  0  0  0  0  0  0  0  0
   18.8805   18.5880   22.0893 H   0  0  0  0  0  0  0  0  0  0  0  0
   19.6233   20.1680   21.8913 H   0  0  0  0  0  0  0  0  0  0  0  0
   20.9684   18.5375   21.4763 C   0  0  0  0  0  0  0  0  0  0  0  0
   21.8708   19.1542   21.5874 H   0  0  0  0  0  0  0  0  0  0  0  0
   20.7006   18.5909   20.4123 H   0  0  0  0  0  0  0  0  0  0  0  0
   21.2824   17.0599   21.8202 C   0  0  0  0  0  0  0  0  0  0  0  0
   20.3842   16.5589   22.2066 H   0  0  0  0  0  0  0  0  0  0  0  0
   21.5510   16.5328   20.8942 H   0  0  0  0  0  0  0  0  0  0  0  0
   22.4538   16.9035   22.8155 C   0  0  0  0  0  0  0  0  0  0  0  0
   22.2478   17.4013   23.7699 H   0  0  0  0  0  0  0  0  0  0  0  0
   22.6415   15.8423   23.0242 H   0  0  0  0  0  0  0  0  0  0  0  0
   23.3761   17.3325   22.4027 H   0  0  0  0  0  0  0  0  0  0  0  0
  1  2  1  0  0  0  0
  1  3  2  0  0  0  0
  1  4  1  0  0  0  0
  4  5  1  0  0  0  0
  4  6  1  0  0  0  0
  4  7  1  0  0  0  0
  7  8  1  0  0  0  0
  7  9  1  0  0  0  0
  7 10  1  0  0  0  0
 10 11  1  0  0  0  0
 10 12  1  0  0  0  0
 10 13  1  0  0  0  0
 13 14  1  0  0  0  0
 13 15  1  0  0  0  0
 13 16  1  0  0  0  0
 16 17  1  0  0  0  0
 16 18  1  0  0  0  0
 16 19  1  0  0  0  0
 19 20  1  0  0  0  0
 19 21  1  0  0  0  0
 19 22  1  0  0  0  0
 22 23  1  0  0  0  0
 22 24  1  0  0  0  0
 22 25  1  0  0  0  0
M  END
> <VConfSearch Rank>
492

> <Conf_Id>
19

> <Delta U+W>
3.222

> <U+W>
-48.407

> <U>
10.617

> <W>
-59.025

> <W(PB)>
-61.462

> <W(SA)>
2.437

> <Valence>
11.188

> <Coulomb>
-1.778

> <VdW>
1.208

> <VdW6>
-9.786

> <VdW12>
10.993

> <Bond>
0.241

> <Angle>
3.294

> <Pdih>
7.653

> <Idih>
0.001

> <Tether>
0.000

$$$$
VeraChem MOL file


 25 24  0  0  0  0  0  0  0  0999 V2000     
   19.3505   20.5285   27.1863 C   0  0  0  0  0  0  0  0  0  0  0  0
   20.2090   21.2724   27.6179 O   0  5  0  0  0  0  0  0  0  0  0  0
   18.5674   19.9236   27.8917 O   0  0  0  0  0  0  0  0  0  0  0  0
   19.2661   20.3248   25.6778 C   0  0  0  0  0  0  0  0  0  0  0  0
   19.5570   21.2661   25.1988 H   0  0  0  0  0  0  0  0  0  0  0  0
   18.2172   20.1378   25.4185 H   0  0  0  0  0  0  0  0  0  0  0  0
   20.1567   19.1563   25.1804 C   0  0  0  0  0  0  0  0  0  0  0  0
   21.2102   19.3758   25.4021 H   0  0  0  0  0  0  0  0  0  0  0  0
   19.9014   18.2537   25.7527 H   0  0  0  0  0  0  0  0  0  0  0  0
   19.9918   18.8474   23.6730 C   0  0  0  0  0  0  0  0  0  0  0  0
   18.9341   18.6531   23.4490 H   0  0  0  0  0  0  0  0  0  0  0  0
   20.5363   17.9193   23.4583 H   0  0  0  0  0  0  0  0  0  0  0  0
   20.5267   19.9695   22.7514 C   0  0  0  0  0  0  0  0  0  0  0  0
   20.0361   20.9175   23.0044 H   0  0  0  0  0  0  0  0  0  0  0  0
   21.5986   20.1164   22.9408 H   0  0  0  0  0  0  0  0  0  0  0  0
   20.3022   19.7107   21.2401 C   0  0  0  0  0  0  0  0  0  0  0  0
   20.6703   20.5915   20.6963 H   0  0  0  0  0  0  0  0  0  0  0  0
   19.2265   19.6555   21.0237 H   0  0  0  0  0  0  0  0  0  0  0  0
   21.0271   18.4614   20.6798 C   0  0  0  0  0  0  0  0  0  0  0  0
   21.3913   18.6900   19.6687 H   0  0  0  0  0  0  0  0  0  0  0  0
   21.9186   18.2359   21.2812 H   0  0  0  0  0  0  0  0  0  0  0  0
   20.1134   17.2188   20.5886 C   0  0  0  0  0  0  0  0  0  0  0  0
   19.2600   17.4103   19.9251 H   0  0  0  0  0  0  0  0  0  0  0  0
   20.6682   16.3630   20.1830 H   0  0  0  0  0  0  0  0  0  0  0  0
   19.7198   16.9286   21.5694 H   0  0  0  0  0  0  0  0  0  0  0  0
  1  2  1  0  0  0  0
  1  3  2  0  0  0  0
  1  4  1  0  0  0  0
  4  5  1  0  0  0  0
  4  6  1  0  0  0  0
  4  7  1  0  0  0  0
  7  8  1  0  0  0  0
  7  9  1  0  0  0  0
  7 10  1  0  0  0  0
 10 11  1  0  0  0  0
 10 12  1  0  0  0  0
 10 13  1  0  0  0  0
 13 14  1  0  0  0  0
 13 15  1  0  0  0  0
 13 16  1  0  0  0  0
 16 17  1  0  0  0  0
 16 18  1  0  0  0  0
 16 19  1  0  0  0  0
 19 20  1  0  0  0  0
 19 21  1  0  0  0  0
 19 22  1  0  0  0  0
 22 23  1  0  0  0  0
 22 24  1  0  0  0  0
 22 25  1  0  0  0  0
M  END
> <VConfSearch Rank>
493

> <Conf_Id>
20

> <Delta U+W>
3.224

> <U+W>
-48.406

> <U>
10.617

> <W>
-59.023

> <W(PB)>
-61.467

> <W(SA)>
2.444

> <Valence>
11.188

> <Coulomb>
-1.778

> <VdW>
1.208

> <VdW6>
-9.786

> <VdW12>
10.993

> <Bond>
0.241

> <Angle>
3.294

> <Pdih>
7.653

> <Idih>
0.001

> <Tether>
0.000

$$$$
VeraChem MOL file


 25 24  0  0  0  0  0  0  0  0999 V2000     
   20.4952   18.5211   26.6207 C   0  0  0  0  0  0  0  0  0  0  0  0
   19.7125   17.6390   26.9151 O   0  5  0  0  0  0  0  0  0  0  0  0
   20.3557   19.6810   26.9561 O   0  0  0  0  0  0  0  0  0  0  0  0
   21.7555   18.1430   25.8447 C   0  0  0  0  0  0  0  0  0  0  0  0
   22.3250   17.4670   26.4928 H   0  0  0  0  0  0  0  0  0  0  0  0
   22.3720   19.0395   25.7072 H   0  0  0  0  0  0  0  0  0  0  0  0
   21.5083   17.4445   24.4779 C   0  0  0  0  0  0  0  0  0  0  0  0
   22.4252   16.9068   24.2012 H   0  0  0  0  0  0  0  0  0  0  0  0
   20.7290   16.6771   24.5849 H   0  0  0  0  0  0  0  0  0  0  0  0
   21.1538   18.4024   23.3135 C   0  0  0  0  0  0  0  0  0  0  0  0
   21.1529   17.8214   22.3810 H   0  0  0  0  0  0  0  0  0  0  0  0
   21.9422   19.1595   23.2045 H   0  0  0  0  0  0  0  0  0  0  0  0
   19.7825   19.0989   23.4656 C   0  0  0  0  0  0  0  0  0  0  0  0
   19.0091   18.3483   23.6789 H   0  0  0  0  0  0  0  0  0  0  0  0
   19.8069   19.7873   24.3198 H   0  0  0  0  0  0  0  0  0  0  0  0
   19.3997   19.8902   22.1960 C   0  0  0  0  0  0  0  0  0  0  0  0
   19.3639   19.2091   21.3347 H   0  0  0  0  0  0  0  0  0  0  0  0
   20.1766   20.6369   21.9816 H   0  0  0  0  0  0  0  0  0  0  0  0
   18.0359   20.5954   22.3511 C   0  0  0  0  0  0  0  0  0  0  0  0
   17.2564   19.8509   22.5649 H   0  0  0  0  0  0  0  0  0  0  0  0
   18.0684   21.2790   23.2109 H   0  0  0  0  0  0  0  0  0  0  0  0
   17.6566   21.3850   21.0822 C   0  0  0  0  0  0  0  0  0  0  0  0
   17.5861   20.7195   20.2118 H   0  0  0  0  0  0  0  0  0  0  0  0
   16.6850   21.8796   21.2103 H   0  0  0  0  0  0  0  0  0  0  0  0
   18.4043   22.1584   20.8628 H   0  0  0  0  0  0  0  0  0  0  0  0
  1  2  1  0  0  0  0
  1  3  2  0  0  0  0
  1  4  1  0  0  0  0
  4  5  1  0  0  0  0
  4  6  1  0  0  0  0
  4  7  1  0  0  0  0
  7  8  1  0  0  0  0
  7  9  1  0  0  0  0
  7 10  1  0  0  0  0
 10 11  1  0  0  0  0
 10 12  1  0  0  0  0
 10 13  1  0  0  0  0
 13 14  1  0  0  0  0
 13 15  1  0  0  0  0
 13 16  1  0  0  0  0
 16 17  1  0  0  0  0
 16 18  1  0  0  0  0
 16 19  1  0  0  0  0
 19 20  1  0  0  0  0
 19 21  1  0  0  0  0
 19 22  1  0  0  0  0
 22 23  1  0  0  0  0
 22 24  1  0  0  0  0
 22 25  1  0  0  0  0
M  END
> <VConfSearch Rank>
494

> <Conf_Id>
24

> <Delta U+W>
1.784

> <U+W>
-49.846

> <U>
10.904

> <W>
-60.749

> <W(PB)>
-63.220

> <W(SA)>
2.471

> <Valence>
9.445

> <Coulomb>
0.780

> <VdW>
0.679

> <VdW6>
-10.008

> <VdW12>
10.687

> <Bond>
0.201

> <Angle>
3.198

> <Pdih>
6.039

> <Idih>
0.006

> <Tether>
0.000

$$$$
VeraChem MOL file


 25 24  0  0  0  0  0  0  0  0999 V2000     
   17.0106   18.4121   23.8148 C   0  0  0  0  0  0  0  0  0  0  0  0
   16.5920   19.1618   24.6752 O   0  5  0  0  0  0  0  0  0  0  0  0
   16.8601   18.6066   22.6245 O   0  0  0  0  0  0  0  0  0  0  0  0
   17.7044   17.1231   24.2513 C   0  0  0  0  0  0  0  0  0  0  0  0
   17.9719   16.5427   23.3600 H   0  0  0  0  0  0  0  0  0  0  0  0
   16.9531   16.5372   24.7932 H   0  0  0  0  0  0  0  0  0  0  0  0
   18.9494   17.3157   25.1623 C   0  0  0  0  0  0  0  0  0  0  0  0
   18.7338   18.0637   25.9380 H   0  0  0  0  0  0  0  0  0  0  0  0
   19.1290   16.3720   25.6949 H   0  0  0  0  0  0  0  0  0  0  0  0
   20.2520   17.6890   24.4120 C   0  0  0  0  0  0  0  0  0  0  0  0
   20.4680   16.9311   23.6466 H   0  0  0  0  0  0  0  0  0  0  0  0
   21.0832   17.6487   25.1293 H   0  0  0  0  0  0  0  0  0  0  0  0
   20.2250   19.0908   23.7617 C   0  0  0  0  0  0  0  0  0  0  0  0
   19.4876   19.1106   22.9494 H   0  0  0  0  0  0  0  0  0  0  0  0
   19.9067   19.8357   24.5038 H   0  0  0  0  0  0  0  0  0  0  0  0
   21.6061   19.4835   23.1934 C   0  0  0  0  0  0  0  0  0  0  0  0
   21.9248   18.7349   22.4551 H   0  0  0  0  0  0  0  0  0  0  0  0
   22.3518   19.4753   24.0001 H   0  0  0  0  0  0  0  0  0  0  0  0
   21.5774   20.8782   22.5336 C   0  0  0  0  0  0  0  0  0  0  0  0
   20.8336   20.8897   21.7247 H   0  0  0  0  0  0  0  0  0  0  0  0
   21.2595   21.6295   23.2698 H   0  0  0  0  0  0  0  0  0  0  0  0
   22.9576   21.2675   21.9668 C   0  0  0  0  0  0  0  0  0  0  0  0
   23.2858   20.5490   21.2043 H   0  0  0  0  0  0  0  0  0  0  0  0
   22.9185   22.2611   21.5018 H   0  0  0  0  0  0  0  0  0  0  0  0
   23.7150   21.2945   22.7611 H   0  0  0  0  0  0  0  0  0  0  0  0
  1  2  1  0  0  0  0
  1  3  2  0  0  0  0
  1  4  1  0  0  0  0
  4  5  1  0  0  0  0
  4  6  1  0  0  0  0
  4  7  1  0  0  0  0
  7  8  1  0  0  0  0
  7  9  1  0  0  0  0
  7 10  1  0  0  0  0
 10 11  1  0  0  0  0
 10 12  1  0  0  0  0
 10 13  1  0  0  0  0
 13 14  1  0  0  0  0
 13 15  1  0  0  0  0
 13 16  1  0  0  0  0
 16 17  1  0  0  0  0
 16 18  1  0  0  0  0
 16 19  1  0  0  0  0
 19 20  1  0  0  0  0
 19 21  1  0  0  0  0
 19 22  1  0  0  0  0
 22 23  1  0  0  0  0
 22 24  1  0  0  0  0
 22 25  1  0  0  0  0
M  END
> <VConfSearch Rank>
495

> <Conf_Id>
9

> <Delta U+W>
1.764

> <U+W>
-49.865

> <U>
10.902

> <W>
-60.768

> <W(PB)>
-63.223

> <W(SA)>
2.456

> <Valence>
9.445

> <Coulomb>
0.778

> <VdW>
0.679

> <VdW6>
-10.007

> <VdW12>
10.687

> <Bond>
0.201

> <Angle>
3.198

> <Pdih>
6.040

> <Idih>
0.006

> <Tether>
0.000

$$$$
VeraChem MOL file


 25 24  0  0  0  0  0  0  0  0999 V2000     
   17.8954   16.4182   24.7337 C   0  0  0  0  0  0  0  0  0  0  0  0
   17.5104   16.1233   23.6195 O   0  5  0  0  0  0  0  0  0  0  0  0
   17.7707   15.6952   25.7024 O   0  0  0  0  0  0  0  0  0  0  0  0
   18.5918   17.7609   24.9231 C   0  0  0  0  0  0  0  0  0  0  0  0
   18.3553   18.1252   25.9299 H   0  0  0  0  0  0  0  0  0  0  0  0
   18.1503   18.4695   24.2157 H   0  0  0  0  0  0  0  0  0  0  0  0
   20.1297   17.6700   24.7383 C   0  0  0  0  0  0  0  0  0  0  0  0
   20.5165   16.9532   25.4760 H   0  0  0  0  0  0  0  0  0  0  0  0
   20.3681   17.2505   23.7510 H   0  0  0  0  0  0  0  0  0  0  0  0
   20.8571   19.0244   24.9355 C   0  0  0  0  0  0  0  0  0  0  0  0
   21.8287   18.8243   25.4077 H   0  0  0  0  0  0  0  0  0  0  0  0
   20.3045   19.6542   25.6460 H   0  0  0  0  0  0  0  0  0  0  0  0
   21.1291   19.8086   23.6272 C   0  0  0  0  0  0  0  0  0  0  0  0
   21.7181   20.7016   23.8766 H   0  0  0  0  0  0  0  0  0  0  0  0
   21.7588   19.1972   22.9676 H   0  0  0  0  0  0  0  0  0  0  0  0
   19.8520   20.2451   22.8711 C   0  0  0  0  0  0  0  0  0  0  0  0
   19.1604   20.7218   23.5787 H   0  0  0  0  0  0  0  0  0  0  0  0
   19.3385   19.3619   22.4692 H   0  0  0  0  0  0  0  0  0  0  0  0
   20.1332   21.2331   21.7150 C   0  0  0  0  0  0  0  0  0  0  0  0
   19.1743   21.5684   21.2963 H   0  0  0  0  0  0  0  0  0  0  0  0
   20.6315   22.1306   22.1066 H   0  0  0  0  0  0  0  0  0  0  0  0
   20.9842   20.6192   20.5822 C   0  0  0  0  0  0  0  0  0  0  0  0
   20.5177   19.7053   20.1919 H   0  0  0  0  0  0  0  0  0  0  0  0
   21.0864   21.3286   19.7509 H   0  0  0  0  0  0  0  0  0  0  0  0
   21.9937   20.3684   20.9314 H   0  0  0  0  0  0  0  0  0  0  0  0
  1  2  1  0  0  0  0
  1  3  2  0  0  0  0
  1  4  1  0  0  0  0
  4  5  1  0  0  0  0
  4  6  1  0  0  0  0
  4  7  1  0  0  0  0
  7  8  1  0  0  0  0
  7  9  1  0  0  0  0
  7 10  1  0  0  0  0
 10 11  1  0  0  0  0
 10 12  1  0  0  0  0
 10 13  1  0  0  0  0
 13 14  1  0  0  0  0
 13 15  1  0  0  0  0
 13 16  1  0  0  0  0
 16 17  1  0  0  0  0
 16 18  1  0  0  0  0
 16 19  1  0  0  0  0
 19 20  1  0  0  0  0
 19 21  1  0  0  0  0
 19 22  1  0  0  0  0
 22 23  1  0  0  0  0
 22 24  1  0  0  0  0
 22 25  1  0  0  0  0
M  END
> <VConfSearch Rank>
496

> <Conf_Id>
89

> <Delta U+W>
2.903

> <U+W>
-48.726

> <U>
10.996

> <W>
-59.723

> <W(PB)>
-62.151

> <W(SA)>
2.428

> <Valence>
10.985

> <Coulomb>
-0.995

> <VdW>
1.006

> <VdW6>
-10.062

> <VdW12>
11.069

> <Bond>
0.238

> <Angle>
3.202

> <Pdih>
7.544

> <Idih>
0.001

> <Tether>
0.000

$$$$
VeraChem MOL file


 25 24  0  0  0  0  0  0  0  0999 V2000     
   18.3912   21.5043   21.7377 C   0  0  0  0  0  0  0  0  0  0  0  0
   17.3958   20.8741   21.4386 O   0  5  0  0  0  0  0  0  0  0  0  0
   18.3766   22.4704   22.4753 O   0  0  0  0  0  0  0  0  0  0  0  0
   19.7187   21.0981   21.1006 C   0  0  0  0  0  0  0  0  0  0  0  0
   20.0268   21.9397   20.4695 H   0  0  0  0  0  0  0  0  0  0  0  0
   19.5470   20.2487   20.4284 H   0  0  0  0  0  0  0  0  0  0  0  0
   20.8631   20.7714   22.1012 C   0  0  0  0  0  0  0  0  0  0  0  0
   21.8177   20.8765   21.5682 H   0  0  0  0  0  0  0  0  0  0  0  0
   20.8832   21.5195   22.9058 H   0  0  0  0  0  0  0  0  0  0  0  0
   20.8159   19.3447   22.7033 C   0  0  0  0  0  0  0  0  0  0  0  0
   21.7545   19.1829   23.2477 H   0  0  0  0  0  0  0  0  0  0  0  0
   20.7964   18.6026   21.8937 H   0  0  0  0  0  0  0  0  0  0  0  0
   19.6221   19.1034   23.6588 C   0  0  0  0  0  0  0  0  0  0  0  0
   19.6020   19.8800   24.4355 H   0  0  0  0  0  0  0  0  0  0  0  0
   18.6849   19.1996   23.0973 H   0  0  0  0  0  0  0  0  0  0  0  0
   19.6333   17.7046   24.3209 C   0  0  0  0  0  0  0  0  0  0  0  0
   19.6862   16.9296   23.5441 H   0  0  0  0  0  0  0  0  0  0  0  0
   18.6750   17.5597   24.8383 H   0  0  0  0  0  0  0  0  0  0  0  0
   20.7819   17.5074   25.3365 C   0  0  0  0  0  0  0  0  0  0  0  0
   21.7530   17.5652   24.8283 H   0  0  0  0  0  0  0  0  0  0  0  0
   20.7608   18.3152   26.0809 H   0  0  0  0  0  0  0  0  0  0  0  0
   20.6739   16.1470   26.0546 C   0  0  0  0  0  0  0  0  0  0  0  0
   20.7194   15.3189   25.3352 H   0  0  0  0  0  0  0  0  0  0  0  0
   21.4973   16.0205   26.7695 H   0  0  0  0  0  0  0  0  0  0  0  0
   19.7293   16.0685   26.6086 H   0  0  0  0  0  0  0  0  0  0  0  0
  1  2  1  0  0  0  0
  1  3  2  0  0  0  0
  1  4  1  0  0  0  0
  4  5  1  0  0  0  0
  4  6  1  0  0  0  0
  4  7  1  0  0  0  0
  7  8  1  0  0  0  0
  7  9  1  0  0  0  0
  7 10  1  0  0  0  0
 10 11  1  0  0  0  0
 10 12  1  0  0  0  0
 10 13  1  0  0  0  0
 13 14  1  0  0  0  0
 13 15  1  0  0  0  0
 13 16  1  0  0  0  0
 16 17  1  0  0  0  0
 16 18  1  0  0  0  0
 16 19  1  0  0  0  0
 19 20  1  0  0  0  0
 19 21  1  0  0  0  0
 19 22  1  0  0  0  0
 22 23  1  0  0  0  0
 22 24  1  0  0  0  0
 22 25  1  0  0  0  0
M  END
> <VConfSearch Rank>
497

> <Conf_Id>
114

> <Delta U+W>
2.758

> <U+W>
-48.871

> <U>
11.422

> <W>
-60.293

> <W(PB)>
-62.719

> <W(SA)>
2.425

> <Valence>
10.135

> <Coulomb>
0.369

> <VdW>
0.918

> <VdW6>
-10.482

> <VdW12>
11.400

> <Bond>
0.245

> <Angle>
3.539

> <Pdih>
6.346

> <Idih>
0.006

> <Tether>
0.000

$$$$
VeraChem MOL file


 25 24  0  0  0  0  0  0  0  0999 V2000     
   23.6875   18.1277   24.6608 C   0  0  0  0  0  0  0  0  0  0  0  0
   23.5945   16.9735   25.0300 O   0  5  0  0  0  0  0  0  0  0  0  0
   24.4236   18.4900   23.7642 O   0  0  0  0  0  0  0  0  0  0  0  0
   22.8500   19.1849   25.3748 C   0  0  0  0  0  0  0  0  0  0  0  0
   23.5054   20.0396   25.5798 H   0  0  0  0  0  0  0  0  0  0  0  0
   22.5364   18.7853   26.3468 H   0  0  0  0  0  0  0  0  0  0  0  0
   21.6152   19.6610   24.5664 C   0  0  0  0  0  0  0  0  0  0  0  0
   21.1492   20.5056   25.0914 H   0  0  0  0  0  0  0  0  0  0  0  0
   21.9532   20.0391   23.5927 H   0  0  0  0  0  0  0  0  0  0  0  0
   20.5671   18.5390   24.3719 C   0  0  0  0  0  0  0  0  0  0  0  0
   20.3156   18.1135   25.3530 H   0  0  0  0  0  0  0  0  0  0  0  0
   21.0015   17.7197   23.7824 H   0  0  0  0  0  0  0  0  0  0  0  0
   19.2604   19.0222   23.6983 C   0  0  0  0  0  0  0  0  0  0  0  0
   18.5346   18.2002   23.7389 H   0  0  0  0  0  0  0  0  0  0  0  0
   18.8293   19.8476   24.2808 H   0  0  0  0  0  0  0  0  0  0  0  0
   19.4529   19.4651   22.2267 C   0  0  0  0  0  0  0  0  0  0  0  0
   19.8875   18.6405   21.6455 H   0  0  0  0  0  0  0  0  0  0  0  0
   20.1752   20.2901   22.1850 H   0  0  0  0  0  0  0  0  0  0  0  0
   18.1448   19.9406   21.5521 C   0  0  0  0  0  0  0  0  0  0  0  0
   17.7011   20.7579   22.1373 H   0  0  0  0  0  0  0  0  0  0  0  0
   18.3906   20.3624   20.5677 H   0  0  0  0  0  0  0  0  0  0  0  0
   17.1065   18.8133   21.3617 C   0  0  0  0  0  0  0  0  0  0  0  0
   16.2414   19.1807   20.7948 H   0  0  0  0  0  0  0  0  0  0  0  0
   17.5393   17.9698   20.8084 H   0  0  0  0  0  0  0  0  0  0  0  0
   16.7370   18.4405   22.3250 H   0  0  0  0  0  0  0  0  0  0  0  0
  1  2  1  0  0  0  0
  1  3  2  0  0  0  0
  1  4  1  0  0  0  0
  4  5  1  0  0  0  0
  4  6  1  0  0  0  0
  4  7  1  0  0  0  0
  7  8  1  0  0  0  0
  7  9  1  0  0  0  0
  7 10  1  0  0  0  0
 10 11  1  0  0  0  0
 10 12  1  0  0  0  0
 10 13  1  0  0  0  0
 13 14  1  0  0  0  0
 13 15  1  0  0  0  0
 13 16  1  0  0  0  0
 16 17  1  0  0  0  0
 16 18  1  0  0  0  0
 16 19  1  0  0  0  0
 19 20  1  0  0  0  0
 19 21  1  0  0  0  0
 19 22  1  0  0  0  0
 22 23  1  0  0  0  0
 22 24  1  0  0  0  0
 22 25  1  0  0  0  0
M  END
> <VConfSearch Rank>
498

> <Conf_Id>
87

> <Delta U+W>
1.453

> <U+W>
-50.176

> <U>
9.763

> <W>
-59.940

> <W(PB)>
-62.392

> <W(SA)>
2.452

> <Valence>
8.883

> <Coulomb>
-0.122

> <VdW>
1.003

> <VdW6>
-9.782

> <VdW12>
10.785

> <Bond>
0.212

> <Angle>
2.940

> <Pdih>
5.730

> <Idih>
0.001

> <Tether>
0.000

$$$$
VeraChem MOL file


 25 24  0  0  0  0  0  0  0  0999 V2000     
   16.2651   18.4674   22.4216 C   0  0  0  0  0  0  0  0  0  0  0  0
   16.3582   17.7294   21.4607 O   0  5  0  0  0  0  0  0  0  0  0  0
   15.3501   18.4211   23.2200 O   0  0  0  0  0  0  0  0  0  0  0  0
   17.3668   19.4965   22.6484 C   0  0  0  0  0  0  0  0  0  0  0  0
   16.9158   20.3814   23.1132 H   0  0  0  0  0  0  0  0  0  0  0  0
   17.7519   19.8048   21.6691 H   0  0  0  0  0  0  0  0  0  0  0  0
   18.5204   18.9579   23.5300 C   0  0  0  0  0  0  0  0  0  0  0  0
   18.1186   18.6453   24.5036 H   0  0  0  0  0  0  0  0  0  0  0  0
   18.9421   18.0624   23.0547 H   0  0  0  0  0  0  0  0  0  0  0  0
   19.6264   20.0182   23.7381 C   0  0  0  0  0  0  0  0  0  0  0  0
   19.1738   20.9307   24.1493 H   0  0  0  0  0  0  0  0  0  0  0  0
   20.0564   20.3020   22.7686 H   0  0  0  0  0  0  0  0  0  0  0  0
   20.7507   19.5559   24.6985 C   0  0  0  0  0  0  0  0  0  0  0  0
   21.4596   20.3826   24.8383 H   0  0  0  0  0  0  0  0  0  0  0  0
   20.3151   19.3680   25.6892 H   0  0  0  0  0  0  0  0  0  0  0  0
   21.5258   18.2885   24.2504 C   0  0  0  0  0  0  0  0  0  0  0  0
   20.8497   17.4237   24.2690 H   0  0  0  0  0  0  0  0  0  0  0  0
   22.3033   18.0725   24.9955 H   0  0  0  0  0  0  0  0  0  0  0  0
   22.1863   18.3792   22.8528 C   0  0  0  0  0  0  0  0  0  0  0  0
   22.6800   17.4220   22.6359 H   0  0  0  0  0  0  0  0  0  0  0  0
   21.4176   18.5065   22.0791 H   0  0  0  0  0  0  0  0  0  0  0  0
   23.2293   19.5125   22.7432 C   0  0  0  0  0  0  0  0  0  0  0  0
   23.9995   19.4137   23.5190 H   0  0  0  0  0  0  0  0  0  0  0  0
   23.7274   19.4832   21.7656 H   0  0  0  0  0  0  0  0  0  0  0  0
   22.7590   20.4983   22.8479 H   0  0  0  0  0  0  0  0  0  0  0  0
  1  2  1  0  0  0  0
  1  3  2  0  0  0  0
  1  4  1  0  0  0  0
  4  5  1  0  0  0  0
  4  6  1  0  0  0  0
  4  7  1  0  0  0  0
  7  8  1  0  0  0  0
  7  9  1  0  0  0  0
  7 10  1  0  0  0  0
 10 11  1  0  0  0  0
 10 12  1  0  0  0  0
 10 13  1  0  0  0  0
 13 14  1  0  0  0  0
 13 15  1  0  0  0  0
 13 16  1  0  0  0  0
 16 17  1  0  0  0  0
 16 18  1  0  0  0  0
 16 19  1  0  0  0  0
 19 20  1  0  0  0  0
 19 21  1  0  0  0  0
 19 22  1  0  0  0  0
 22 23  1  0  0  0  0
 22 24  1  0  0  0  0
 22 25  1  0  0  0  0
M  END
> <VConfSearch Rank>
499

> <Conf_Id>
29

> <Delta U+W>
0.850

> <U+W>
-50.780

> <U>
8.646

> <W>
-59.426

> <W(PB)>
-61.868

> <W(SA)>
2.442

> <Valence>
8.924

> <Coulomb>
-1.171

> <VdW>
0.894

> <VdW6>
-10.223

> <VdW12>
11.117

> <Bond>
0.231

> <Angle>
3.232

> <Pdih>
5.461

> <Idih>
0.001

> <Tether>
0.000

$$$$
VeraChem MOL file


 25 24  0  0  0  0  0  0  0  0999 V2000     
   23.8706   18.5039   22.8868 C   0  0  0  0  0  0  0  0  0  0  0  0
   23.8753   17.5847   22.0920 O   0  5  0  0  0  0  0  0  0  0  0  0
   24.7120   18.6510   23.7511 O   0  0  0  0  0  0  0  0  0  0  0  0
   22.7356   19.5186   22.8072 C   0  0  0  0  0  0  0  0  0  0  0  0
   22.4331   19.6099   21.7571 H   0  0  0  0  0  0  0  0  0  0  0  0
   23.1285   20.4941   23.1178 H   0  0  0  0  0  0  0  0  0  0  0  0
   21.5181   19.1288   23.6811 C   0  0  0  0  0  0  0  0  0  0  0  0
   21.1557   18.1417   23.3649 H   0  0  0  0  0  0  0  0  0  0  0  0
   21.8377   19.0329   24.7280 H   0  0  0  0  0  0  0  0  0  0  0  0
   20.3799   20.1700   23.5764 C   0  0  0  0  0  0  0  0  0  0  0  0
   20.0324   20.2375   22.5371 H   0  0  0  0  0  0  0  0  0  0  0  0
   20.7785   21.1618   23.8292 H   0  0  0  0  0  0  0  0  0  0  0  0
   19.1832   19.8717   24.5141 C   0  0  0  0  0  0  0  0  0  0  0  0
   19.5327   19.9027   25.5549 H   0  0  0  0  0  0  0  0  0  0  0  0
   18.4505   20.6843   24.4231 H   0  0  0  0  0  0  0  0  0  0  0  0
   18.4730   18.5137   24.2710 C   0  0  0  0  0  0  0  0  0  0  0  0
   17.6363   18.4253   24.9771 H   0  0  0  0  0  0  0  0  0  0  0  0
   19.1596   17.6945   24.5217 H   0  0  0  0  0  0  0  0  0  0  0  0
   17.9374   18.2975   22.8341 C   0  0  0  0  0  0  0  0  0  0  0  0
   18.7694   18.2929   22.1175 H   0  0  0  0  0  0  0  0  0  0  0  0
   17.4816   17.2996   22.7767 H   0  0  0  0  0  0  0  0  0  0  0  0
   16.8888   19.3482   22.4093 C   0  0  0  0  0  0  0  0  0  0  0  0
   17.3308   20.3507   22.3497 H   0  0  0  0  0  0  0  0  0  0  0  0
   16.4799   19.1050   21.4202 H   0  0  0  0  0  0  0  0  0  0  0  0
   16.0546   19.3810   23.1221 H   0  0  0  0  0  0  0  0  0  0  0  0
  1  2  1  0  0  0  0
  1  3  2  0  0  0  0
  1  4  1  0  0  0  0
  4  5  1  0  0  0  0
  4  6  1  0  0  0  0
  4  7  1  0  0  0  0
  7  8  1  0  0  0  0
  7  9  1  0  0  0  0
  7 10  1  0  0  0  0
 10 11  1  0  0  0  0
 10 12  1  0  0  0  0
 10 13  1  0  0  0  0
 13 14  1  0  0  0  0
 13 15  1  0  0  0  0
 13 16  1  0  0  0  0
 16 17  1  0  0  0  0
 16 18  1  0  0  0  0
 16 19  1  0  0  0  0
 19 20  1  0  0  0  0
 19 21  1  0  0  0  0
 19 22  1  0  0  0  0
 22 23  1  0  0  0  0
 22 24  1  0  0  0  0
 22 25  1  0  0  0  0
M  END
> <VConfSearch Rank>
500

> <Conf_Id>
30

> <Delta U+W>
0.843

> <U+W>
-50.787

> <U>
8.647

> <W>
-59.434

> <W(PB)>
-61.861

> <W(SA)>
2.428

> <Valence>
8.924

> <Coulomb>
-1.170

> <VdW>
0.894

> <VdW6>
-10.224

> <VdW12>
11.118

> <Bond>
0.231

> <Angle>
3.232

> <Pdih>
5.460

> <Idih>
0.000

> <Tether>
0.000

$$$$
VeraChem MOL file


 25 24  0  0  0  0  0  0  0  0999 V2000     
   17.2180   21.6244   20.3044 C   0  0  0  0  0  0  0  0  0  0  0  0
   17.9741   22.5743   20.2359 O   0  5  0  0  0  0  0  0  0  0  0  0
   16.1463   21.5866   19.7333 O   0  0  0  0  0  0  0  0  0  0  0  0
   17.6061   20.4047   21.1417 C   0  0  0  0  0  0  0  0  0  0  0  0
   17.5914   19.5335   20.4764 H   0  0  0  0  0  0  0  0  0  0  0  0
   16.8152   20.2539   21.8857 H   0  0  0  0  0  0  0  0  0  0  0  0
   18.9829   20.4997   21.8515 C   0  0  0  0  0  0  0  0  0  0  0  0
   19.7699   20.6572   21.1009 H   0  0  0  0  0  0  0  0  0  0  0  0
   18.9929   21.3782   22.5115 H   0  0  0  0  0  0  0  0  0  0  0  0
   19.2947   19.2295   22.6725 C   0  0  0  0  0  0  0  0  0  0  0  0
   19.2842   18.3526   22.0106 H   0  0  0  0  0  0  0  0  0  0  0  0
   18.5067   19.0741   23.4222 H   0  0  0  0  0  0  0  0  0  0  0  0
   20.6647   19.3262   23.3777 C   0  0  0  0  0  0  0  0  0  0  0  0
   21.4529   19.4816   22.6282 H   0  0  0  0  0  0  0  0  0  0  0  0
   20.6756   20.2030   24.0396 H   0  0  0  0  0  0  0  0  0  0  0  0
   20.9771   18.0564   24.1987 C   0  0  0  0  0  0  0  0  0  0  0  0
   20.9664   17.1795   23.5369 H   0  0  0  0  0  0  0  0  0  0  0  0
   20.1891   17.9009   24.9483 H   0  0  0  0  0  0  0  0  0  0  0  0
   22.3465   18.1529   24.9036 C   0  0  0  0  0  0  0  0  0  0  0  0
   23.1377   18.3067   24.1566 H   0  0  0  0  0  0  0  0  0  0  0  0
   22.3603   19.0281   25.5680 H   0  0  0  0  0  0  0  0  0  0  0  0
   22.6548   16.8832   25.7224 C   0  0  0  0  0  0  0  0  0  0  0  0
   22.6784   15.9955   25.0767 H   0  0  0  0  0  0  0  0  0  0  0  0
   23.6313   16.9690   26.2164 H   0  0  0  0  0  0  0  0  0  0  0  0
   21.8953   16.7223   26.4987 H   0  0  0  0  0  0  0  0  0  0  0  0
  1  2  1  0  0  0  0
  1  3  2  0  0  0  0
  1  4  1  0  0  0  0
  4  5  1  0  0  0  0
  4  6  1  0  0  0  0
  4  7  1  0  0  0  0
  7  8  1  0  0  0  0
  7  9  1  0  0  0  0
  7 10  1  0  0  0  0
 10 11  1  0  0  0  0
 10 12  1  0  0  0  0
 10 13  1  0  0  0  0
 13 14  1  0  0  0  0
 13 15  1  0  0  0  0
 13 16  1  0  0  0  0
 16 17  1  0  0  0  0
 16 18  1  0  0  0  0
 16 19  1  0  0  0  0
 19 20  1  0  0  0  0
 19 21  1  0  0  0  0
 19 22  1  0  0  0  0
 22 23  1  0  0  0  0
 22 24  1  0  0  0  0
 22 25  1  0  0  0  0
M  END
> <VConfSearch Rank>
501

> <Conf_Id>
0

> <Delta U+W>
0.000

> <U+W>
-51.629

> <U>
6.586

> <W>
-58.216

> <W(PB)>
-60.757

> <W(SA)>
2.541

> <Valence>
8.027

> <Coulomb>
-2.892

> <VdW>
1.451

> <VdW6>
-7.931

> <VdW12>
9.383

> <Bond>
0.149

> <Angle>
2.726

> <Pdih>
5.152

> <Idih>
0.000

> <Tether>
0.000

$$$$
VeraChem MOL file


 25 24  0  0  0  0  0  0  0  0999 V2000     
   22.0240   16.2165   26.2402 C   0  0  0  0  0  0  0  0  0  0  0  0
   21.5979   15.0799   26.1837 O   0  5  0  0  0  0  0  0  0  0  0  0
   23.1630   16.4936   26.5603 O   0  0  0  0  0  0  0  0  0  0  0  0
   21.0837   17.3569   25.8666 C   0  0  0  0  0  0  0  0  0  0  0  0
   21.3561   18.2334   26.4667 H   0  0  0  0  0  0  0  0  0  0  0  0
   20.0663   17.0685   26.1569 H   0  0  0  0  0  0  0  0  0  0  0  0
   21.1309   17.7056   24.3586 C   0  0  0  0  0  0  0  0  0  0  0  0
   22.1585   17.9792   24.0814 H   0  0  0  0  0  0  0  0  0  0  0  0
   20.8689   16.8143   23.7716 H   0  0  0  0  0  0  0  0  0  0  0  0
   20.1709   18.8622   24.0056 C   0  0  0  0  0  0  0  0  0  0  0  0
   20.4348   19.7513   24.5947 H   0  0  0  0  0  0  0  0  0  0  0  0
   19.1449   18.5861   24.2851 H   0  0  0  0  0  0  0  0  0  0  0  0
   20.2200   19.2074   22.5016 C   0  0  0  0  0  0  0  0  0  0  0  0
   21.2459   19.4837   22.2218 H   0  0  0  0  0  0  0  0  0  0  0  0
   19.9561   18.3185   21.9123 H   0  0  0  0  0  0  0  0  0  0  0  0
   19.2602   20.3639   22.1479 C   0  0  0  0  0  0  0  0  0  0  0  0
   19.5239   21.2530   22.7370 H   0  0  0  0  0  0  0  0  0  0  0  0
   18.2341   20.0880   22.4275 H   0  0  0  0  0  0  0  0  0  0  0  0
   19.3090   20.7091   20.6446 C   0  0  0  0  0  0  0  0  0  0  0  0
   20.3336   20.9875   20.3615 H   0  0  0  0  0  0  0  0  0  0  0  0
   19.0439   19.8224   20.0521 H   0  0  0  0  0  0  0  0  0  0  0  0
   18.3493   21.8643   20.2954 C   0  0  0  0  0  0  0  0  0  0  0  0
   18.3969   22.0963   19.2235 H   0  0  0  0  0  0  0  0  0  0  0  0
   17.3118   21.6004   20.5393 H   0  0  0  0  0  0  0  0  0  0  0  0
   18.6113   22.7742   20.8511 H   0  0  0  0  0  0  0  0  0  0  0  0
  1  2  1  0  0  0  0
  1  3  2  0  0  0  0
  1  4  1  0  0  0  0
  4  5  1  0  0  0  0
  4  6  1  0  0  0  0
  4  7  1  0  0  0  0
  7  8  1  0  0  0  0
  7  9  1  0  0  0  0
  7 10  1  0  0  0  0
 10 11  1  0  0  0  0
 10 12  1  0  0  0  0
 10 13  1  0  0  0  0
 13 14  1  0  0  0  0
 13 15  1  0  0  0  0
 13 16  1  0  0  0  0
 16 17  1  0  0  0  0
 16 18  1  0  0  0  0
 16 19  1  0  0  0  0
 19 20  1  0  0  0  0
 19 21  1  0  0  0  0
 19 22  1  0  0  0  0
 22 23  1  0  0  0  0
 22 24  1  0  0  0  0
 22 25  1  0  0  0  0
M  END
> <VConfSearch Rank>
502

> <Conf_Id>
27

> <Delta U+W>
-1.297

> <U+W>
-52.926

> <U>
5.617

> <W>
-58.543

> <W(PB)>
-61.065

> <W(SA)>
2.522

> <Valence>
7.531

> <Coulomb>
-2.818

> <VdW>
0.904

> <VdW6>
-7.640

> <VdW12>
8.544

> <Bond>
0.115

> <Angle>
2.271

> <Pdih>
5.144

> <Idih>
0.001

> <Tether>
0.000

$$$$
VeraChem MOL file


 25 24  0  0  0  0  0  0  0  0999 V2000     
   18.2550   16.0703   21.5471 C   0  0  0  0  0  0  0  0  0  0  0  0
   17.1578   16.3846   21.1295 O   0  5  0  0  0  0  0  0  0  0  0  0
   19.1843   15.7583   20.8287 O   0  0  0  0  0  0  0  0  0  0  0  0
   18.4704   16.0506   23.0578 C   0  0  0  0  0  0  0  0  0  0  0  0
   19.3525   15.4371   23.2777 H   0  0  0  0  0  0  0  0  0  0  0  0
   17.6093   15.5404   23.5052 H   0  0  0  0  0  0  0  0  0  0  0  0
   18.6252   17.4579   23.6908 C   0  0  0  0  0  0  0  0  0  0  0  0
   17.7473   18.0689   23.4386 H   0  0  0  0  0  0  0  0  0  0  0  0
   18.6368   17.3574   24.7846 H   0  0  0  0  0  0  0  0  0  0  0  0
   19.9132   18.1776   23.2317 C   0  0  0  0  0  0  0  0  0  0  0  0
   19.9010   18.2976   22.1395 H   0  0  0  0  0  0  0  0  0  0  0  0
   20.7867   17.5568   23.4738 H   0  0  0  0  0  0  0  0  0  0  0  0
   20.0631   19.5622   23.8981 C   0  0  0  0  0  0  0  0  0  0  0  0
   19.1891   20.1822   23.6554 H   0  0  0  0  0  0  0  0  0  0  0  0
   20.0786   19.4443   24.9903 H   0  0  0  0  0  0  0  0  0  0  0  0
   21.3494   20.2823   23.4391 C   0  0  0  0  0  0  0  0  0  0  0  0
   21.3341   20.4001   22.3469 H   0  0  0  0  0  0  0  0  0  0  0  0
   22.2234   19.6622   23.6814 H   0  0  0  0  0  0  0  0  0  0  0  0
   21.4993   21.6665   24.1046 C   0  0  0  0  0  0  0  0  0  0  0  0
   20.6275   22.2902   23.8628 H   0  0  0  0  0  0  0  0  0  0  0  0
   21.5170   21.5523   25.1973 H   0  0  0  0  0  0  0  0  0  0  0  0
   22.7849   22.3823   23.6435 C   0  0  0  0  0  0  0  0  0  0  0  0
   22.7795   22.5380   22.5567 H   0  0  0  0  0  0  0  0  0  0  0  0
   22.8754   23.3641   24.1261 H   0  0  0  0  0  0  0  0  0  0  0  0
   23.6757   21.7946   23.9012 H   0  0  0  0  0  0  0  0  0  0  0  0
  1  2  1  0  0  0  0
  1  3  2  0  0  0  0
  1  4  1  0  0  0  0
  4  5  1  0  0  0  0
  4  6  1  0  0  0  0
  4  7  1  0  0  0  0
  7  8  1  0  0  0  0
  7  9  1  0  0  0  0
  7 10  1  0  0  0  0
 10 11  1  0  0  0  0
 10 12  1  0  0  0  0
 10 13  1  0  0  0  0
 13 14  1  0  0  0  0
 13 15  1  0  0  0  0
 13 16  1  0  0  0  0
 16 17  1  0  0  0  0
 16 18  1  0  0  0  0
 16 19  1  0  0  0  0
 19 20  1  0  0  0  0
 19 21  1  0  0  0  0
 19 22  1  0  0  0  0
 22 23  1  0  0  0  0
 22 24  1  0  0  0  0
 22 25  1  0  0  0  0
M  END
> <VConfSearch Rank>
503

> <Conf_Id>
37

> <Delta U+W>
-0.230

> <U+W>
-51.860

> <U>
7.816

> <W>
-59.675

> <W(PB)>
-62.180

> <W(SA)>
2.505

> <Valence>
7.785

> <Coulomb>
-0.713

> <VdW>
0.744

> <VdW6>
-8.514

> <VdW12>
9.259

> <Bond>
0.136

> <Angle>
2.433

> <Pdih>
5.216

> <Idih>
0.000

> <Tether>
0.000

$$$$
VeraChem MOL file


 25 24  0  0  0  0  0  0  0  0999 V2000     
   23.1981   20.0475   21.0063 C   0  0  0  0  0  0  0  0  0  0  0  0
   23.7757   21.0821   21.2766 O   0  5  0  0  0  0  0  0  0  0  0  0
   22.6059   19.8608   19.9616 O   0  0  0  0  0  0  0  0  0  0  0  0
   23.2336   18.9160   22.0297 C   0  0  0  0  0  0  0  0  0  0  0  0
   24.2681   18.8240   22.3810 H   0  0  0  0  0  0  0  0  0  0  0  0
   22.9862   17.9762   21.5213 H   0  0  0  0  0  0  0  0  0  0  0  0
   22.2919   19.1332   23.2425 C   0  0  0  0  0  0  0  0  0  0  0  0
   22.4823   18.3482   23.9868 H   0  0  0  0  0  0  0  0  0  0  0  0
   22.5337   20.0910   23.7241 H   0  0  0  0  0  0  0  0  0  0  0  0
   20.7983   19.1087   22.8469 C   0  0  0  0  0  0  0  0  0  0  0  0
   20.5648   18.1550   22.3541 H   0  0  0  0  0  0  0  0  0  0  0  0
   20.5960   19.9030   22.1151 H   0  0  0  0  0  0  0  0  0  0  0  0
   19.8789   19.2950   24.0732 C   0  0  0  0  0  0  0  0  0  0  0  0
   20.0774   18.5000   24.8052 H   0  0  0  0  0  0  0  0  0  0  0  0
   20.1131   20.2489   24.5653 H   0  0  0  0  0  0  0  0  0  0  0  0
   18.3864   19.2712   23.6786 C   0  0  0  0  0  0  0  0  0  0  0  0
   18.1521   18.3174   23.1863 H   0  0  0  0  0  0  0  0  0  0  0  0
   18.1878   20.0660   22.9465 H   0  0  0  0  0  0  0  0  0  0  0  0
   17.4671   19.4580   24.9039 C   0  0  0  0  0  0  0  0  0  0  0  0
   17.6618   18.6635   25.6377 H   0  0  0  0  0  0  0  0  0  0  0  0
   17.6974   20.4122   25.3979 H   0  0  0  0  0  0  0  0  0  0  0  0
   15.9777   19.4337   24.5056 C   0  0  0  0  0  0  0  0  0  0  0  0
   15.7119   18.4770   24.0371 H   0  0  0  0  0  0  0  0  0  0  0  0
   15.3389   19.5678   25.3883 H   0  0  0  0  0  0  0  0  0  0  0  0
   15.7478   20.2388   23.7954 H   0  0  0  0  0  0  0  0  0  0  0  0
  1  2  1  0  0  0  0
  1  3  2  0  0  0  0
  1  4  1  0  0  0  0
  4  5  1  0  0  0  0
  4  6  1  0  0  0  0
  4  7  1  0  0  0  0
  7  8  1  0  0  0  0
  7  9  1  0  0  0  0
  7 10  1  0  0  0  0
 10 11  1  0  0  0  0
 10 12  1  0  0  0  0
 10 13  1  0  0  0  0
 13 14  1  0  0  0  0
 13 15  1  0  0  0  0
 13 16  1  0  0  0  0
 16 17  1  0  0  0  0
 16 18  1  0  0  0  0
 16 19  1  0  0  0  0
 19 20  1  0  0  0  0
 19 21  1  0  0  0  0
 19 22  1  0  0  0  0
 22 23  1  0  0  0  0
 22 24  1  0  0  0  0
 22 25  1  0  0  0  0
M  END
> <VConfSearch Rank>
504

> <Conf_Id>
54

> <Delta U+W>
-0.224

> <U+W>
-51.854

> <U>
7.816

> <W>
-59.670

> <W(PB)>
-62.157

> <W(SA)>
2.487

> <Valence>
7.785

> <Coulomb>
-0.713

> <VdW>
0.744

> <VdW6>
-8.515

> <VdW12>
9.259

> <Bond>
0.136

> <Angle>
2.433

> <Pdih>
5.215

> <Idih>
0.000

> <Tether>
0.000

$$$$
VeraChem MOL file


 25 24  0  0  0  0  0  0  0  0999 V2000     
   20.0078   15.6507   21.2208 C   0  0  0  0  0  0  0  0  0  0  0  0
   19.1487   15.8264   20.3793 O   0  5  0  0  0  0  0  0  0  0  0  0
   21.1201   15.2308   20.9689 O   0  0  0  0  0  0  0  0  0  0  0  0
   19.6672   15.9559   22.6769 C   0  0  0  0  0  0  0  0  0  0  0  0
   20.0205   15.1106   23.2791 H   0  0  0  0  0  0  0  0  0  0  0  0
   18.5760   15.9868   22.7826 H   0  0  0  0  0  0  0  0  0  0  0  0
   20.2944   17.2700   23.2111 C   0  0  0  0  0  0  0  0  0  0  0  0
   20.1252   17.3194   24.2940 H   0  0  0  0  0  0  0  0  0  0  0  0
   21.3825   17.2411   23.0605 H   0  0  0  0  0  0  0  0  0  0  0  0
   19.7037   18.5290   22.5314 C   0  0  0  0  0  0  0  0  0  0  0  0
   18.6230   18.5811   22.7212 H   0  0  0  0  0  0  0  0  0  0  0  0
   19.8217   18.4381   21.4429 H   0  0  0  0  0  0  0  0  0  0  0  0
   20.3739   19.8489   22.9824 C   0  0  0  0  0  0  0  0  0  0  0  0
   21.4571   19.7890   22.8098 H   0  0  0  0  0  0  0  0  0  0  0  0
   20.0006   20.6549   22.3380 H   0  0  0  0  0  0  0  0  0  0  0  0
   20.0990   20.2078   24.4637 C   0  0  0  0  0  0  0  0  0  0  0  0
   20.4781   19.4068   25.1106 H   0  0  0  0  0  0  0  0  0  0  0  0
   19.0156   20.2627   24.6369 H   0  0  0  0  0  0  0  0  0  0  0  0
   20.7612   21.5333   24.9077 C   0  0  0  0  0  0  0  0  0  0  0  0
   20.6354   21.6421   25.9938 H   0  0  0  0  0  0  0  0  0  0  0  0
   21.8436   21.4870   24.7244 H   0  0  0  0  0  0  0  0  0  0  0  0
   20.1684   22.7792   24.2140 C   0  0  0  0  0  0  0  0  0  0  0  0
   20.3770   22.7769   23.1370 H   0  0  0  0  0  0  0  0  0  0  0  0
   19.0808   22.8272   24.3547 H   0  0  0  0  0  0  0  0  0  0  0  0
   20.6039   23.6952   24.6337 H   0  0  0  0  0  0  0  0  0  0  0  0
  1  2  1  0  0  0  0
  1  3  2  0  0  0  0
  1  4  1  0  0  0  0
  4  5  1  0  0  0  0
  4  6  1  0  0  0  0
  4  7  1  0  0  0  0
  7  8  1  0  0  0  0
  7  9  1  0  0  0  0
  7 10  1  0  0  0  0
 10 11  1  0  0  0  0
 10 12  1  0  0  0  0
 10 13  1  0  0  0  0
 13 14  1  0  0  0  0
 13 15  1  0  0  0  0
 13 16  1  0  0  0  0
 16 17  1  0  0  0  0
 16 18  1  0  0  0  0
 16 19  1  0  0  0  0
 19 20  1  0  0  0  0
 19 21  1  0  0  0  0
 19 22  1  0  0  0  0
 22 23  1  0  0  0  0
 22 24  1  0  0  0  0
 22 25  1  0  0  0  0
M  END
> <VConfSearch Rank>
505

> <Conf_Id>
101

> <Delta U+W>
1.534

> <U+W>
-50.095

> <U>
9.416

> <W>
-59.512

> <W(PB)>
-61.988

> <W(SA)>
2.476

> <Valence>
8.939

> <Coulomb>
-0.615

> <VdW>
1.092

> <VdW6>
-9.710

> <VdW12>
10.802

> <Bond>
0.216

> <Angle>
2.979

> <Pdih>
5.743

> <Idih>
0.000

> <Tether>
0.000

$$$$
VeraChem MOL file


 25 24  0  0  0  0  0  0  0  0999 V2000     
   24.2156   18.9510   23.9731 C   0  0  0  0  0  0  0  0  0  0  0  0
   24.3790   18.2209   24.9306 O   0  5  0  0  0  0  0  0  0  0  0  0
   25.0831   19.1969   23.1584 O   0  0  0  0  0  0  0  0  0  0  0  0
   22.8397   19.5753   23.7699 C   0  0  0  0  0  0  0  0  0  0  0  0
   22.9768   20.5508   23.2885 H   0  0  0  0  0  0  0  0  0  0  0  0
   22.4085   19.7585   24.7603 H   0  0  0  0  0  0  0  0  0  0  0  0
   21.8980   18.6853   22.9174 C   0  0  0  0  0  0  0  0  0  0  0  0
   22.4047   18.4421   21.9733 H   0  0  0  0  0  0  0  0  0  0  0  0
   21.7284   17.7299   23.4329 H   0  0  0  0  0  0  0  0  0  0  0  0
   20.5399   19.3518   22.5915 C   0  0  0  0  0  0  0  0  0  0  0  0
   20.0116   18.7105   21.8746 H   0  0  0  0  0  0  0  0  0  0  0  0
   20.7121   20.3112   22.0850 H   0  0  0  0  0  0  0  0  0  0  0  0
   19.6468   19.5705   23.8374 C   0  0  0  0  0  0  0  0  0  0  0  0
   19.4741   18.6117   24.3432 H   0  0  0  0  0  0  0  0  0  0  0  0
   20.1762   20.2045   24.5596 H   0  0  0  0  0  0  0  0  0  0  0  0
   18.2917   20.2506   23.5155 C   0  0  0  0  0  0  0  0  0  0  0  0
   18.4853   21.2448   23.0902 H   0  0  0  0  0  0  0  0  0  0  0  0
   17.7544   20.4243   24.4577 H   0  0  0  0  0  0  0  0  0  0  0  0
   17.3651   19.4681   22.5519 C   0  0  0  0  0  0  0  0  0  0  0  0
   16.4463   20.0513   22.4012 H   0  0  0  0  0  0  0  0  0  0  0  0
   17.8326   19.3806   21.5624 H   0  0  0  0  0  0  0  0  0  0  0  0
   16.9826   18.0660   23.0734 C   0  0  0  0  0  0  0  0  0  0  0  0
   16.5346   18.1275   24.0736 H   0  0  0  0  0  0  0  0  0  0  0  0
   16.2530   17.5928   22.4038 H   0  0  0  0  0  0  0  0  0  0  0  0
   17.8593   17.4084   23.1277 H   0  0  0  0  0  0  0  0  0  0  0  0
  1  2  1  0  0  0  0
  1  3  2  0  0  0  0
  1  4  1  0  0  0  0
  4  5  1  0  0  0  0
  4  6  1  0  0  0  0
  4  7  1  0  0  0  0
  7  8  1  0  0  0  0
  7  9  1  0  0  0  0
  7 10  1  0  0  0  0
 10 11  1  0  0  0  0
 10 12  1  0  0  0  0
 10 13  1  0  0  0  0
 13 14  1  0  0  0  0
 13 15  1  0  0  0  0
 13 16  1  0  0  0  0
 16 17  1  0  0  0  0
 16 18  1  0  0  0  0
 16 19  1  0  0  0  0
 19 20  1  0  0  0  0
 19 21  1  0  0  0  0
 19 22  1  0  0  0  0
 22 23  1  0  0  0  0
 22 24  1  0  0  0  0
 22 25  1  0  0  0  0
M  END
> <VConfSearch Rank>
506

> <Conf_Id>
75

> <Delta U+W>
1.014

> <U+W>
-50.615

> <U>
8.474

> <W>
-59.089

> <W(PB)>
-61.530

> <W(SA)>
2.441

> <Valence>
9.080

> <Coulomb>
-1.772

> <VdW>
1.165

> <VdW6>
-9.830

> <VdW12>
10.996

> <Bond>
0.240

> <Angle>
3.225

> <Pdih>
5.615

> <Idih>
0.001

> <Tether>
0.000

$$$$
VeraChem MOL file


 25 24  0  0  0  0  0  0  0  0999 V2000     
   23.4971   18.8949   20.7803 C   0  0  0  0  0  0  0  0  0  0  0  0
   24.4881   19.0251   21.4713 O   0  5  0  0  0  0  0  0  0  0  0  0
   23.4868   18.2940   19.7241 O   0  0  0  0  0  0  0  0  0  0  0  0
   22.1891   19.5008   21.2763 C   0  0  0  0  0  0  0  0  0  0  0  0
   21.6030   19.8087   20.4021 H   0  0  0  0  0  0  0  0  0  0  0  0
   22.4277   20.4088   21.8431 H   0  0  0  0  0  0  0  0  0  0  0  0
   21.3679   18.5237   22.1533 C   0  0  0  0  0  0  0  0  0  0  0  0
   21.1483   17.6148   21.5762 H   0  0  0  0  0  0  0  0  0  0  0  0
   21.9735   18.2150   23.0168 H   0  0  0  0  0  0  0  0  0  0  0  0
   20.0499   19.1608   22.6442 C   0  0  0  0  0  0  0  0  0  0  0  0
   19.4482   19.4681   21.7779 H   0  0  0  0  0  0  0  0  0  0  0  0
   20.2764   20.0728   23.2091 H   0  0  0  0  0  0  0  0  0  0  0  0
   19.2306   18.1789   23.5146 C   0  0  0  0  0  0  0  0  0  0  0  0
   18.9971   17.2951   22.9053 H   0  0  0  0  0  0  0  0  0  0  0  0
   19.8359   17.8184   24.3575 H   0  0  0  0  0  0  0  0  0  0  0  0
   17.9009   18.7819   24.0350 C   0  0  0  0  0  0  0  0  0  0  0  0
   17.1445   17.9852   24.0417 H   0  0  0  0  0  0  0  0  0  0  0  0
   17.5274   19.5419   23.3353 H   0  0  0  0  0  0  0  0  0  0  0  0
   17.9730   19.3670   25.4672 C   0  0  0  0  0  0  0  0  0  0  0  0
   16.9652   19.6894   25.7631 H   0  0  0  0  0  0  0  0  0  0  0  0
   18.2623   18.5767   26.1736 H   0  0  0  0  0  0  0  0  0  0  0  0
   18.9371   20.5626   25.6142 C   0  0  0  0  0  0  0  0  0  0  0  0
   18.7138   21.3424   24.8746 H   0  0  0  0  0  0  0  0  0  0  0  0
   18.8471   21.0076   26.6136 H   0  0  0  0  0  0  0  0  0  0  0  0
   19.9801   20.2476   25.4859 H   0  0  0  0  0  0  0  0  0  0  0  0
  1  2  1  0  0  0  0
  1  3  2  0  0  0  0
  1  4  1  0  0  0  0
  4  5  1  0  0  0  0
  4  6  1  0  0  0  0
  4  7  1  0  0  0  0
  7  8  1  0  0  0  0
  7  9  1  0  0  0  0
  7 10  1  0  0  0  0
 10 11  1  0  0  0  0
 10 12  1  0  0  0  0
 10 13  1  0  0  0  0
 13 14  1  0  0  0  0
 13 15  1  0  0  0  0
 13 16  1  0  0  0  0
 16 17  1  0  0  0  0
 16 18  1  0  0  0  0
 16 19  1  0  0  0  0
 19 20  1  0  0  0  0
 19 21  1  0  0  0  0
 19 22  1  0  0  0  0
 22 23  1  0  0  0  0
 22 24  1  0  0  0  0
 22 25  1  0  0  0  0
M  END
> <VConfSearch Rank>
507

> <Conf_Id>
125

> <Delta U+W>
2.314

> <U+W>
-49.315

> <U>
9.740

> <W>
-59.054

> <W(PB)>
-61.488

> <W(SA)>
2.433

> <Valence>
10.506

> <Coulomb>
-1.761

> <VdW>
0.994

> <VdW6>
-9.209

> <VdW12>
10.203

> <Bond>
0.193

> <Angle>
2.979

> <Pdih>
7.334

> <Idih>
0.001

> <Tether>
0.000

$$$$
VeraChem MOL file


 25 24  0  0  0  0  0  0  0  0999 V2000     
   22.1575   18.6655   19.7958 C   0  0  0  0  0  0  0  0  0  0  0  0
   23.2532   19.1514   19.9960 O   0  5  0  0  0  0  0  0  0  0  0  0
   21.7807   18.2807   18.7064 O   0  0  0  0  0  0  0  0  0  0  0  0
   21.1932   18.5545   20.9713 C   0  0  0  0  0  0  0  0  0  0  0  0
   21.7879   18.3724   21.8735 H   0  0  0  0  0  0  0  0  0  0  0  0
   20.5634   17.6712   20.8123 H   0  0  0  0  0  0  0  0  0  0  0  0
   20.3101   19.8177   21.1436 C   0  0  0  0  0  0  0  0  0  0  0  0
   20.9497   20.6873   21.3488 H   0  0  0  0  0  0  0  0  0  0  0  0
   19.8016   20.0247   20.1917 H   0  0  0  0  0  0  0  0  0  0  0  0
   19.2431   19.6794   22.2555 C   0  0  0  0  0  0  0  0  0  0  0  0
   18.5993   18.8150   22.0424 H   0  0  0  0  0  0  0  0  0  0  0  0
   18.5938   20.5651   22.2268 H   0  0  0  0  0  0  0  0  0  0  0  0
   19.8459   19.5426   23.6730 C   0  0  0  0  0  0  0  0  0  0  0  0
   20.4416   18.6237   23.7317 H   0  0  0  0  0  0  0  0  0  0  0  0
   20.5276   20.3823   23.8644 H   0  0  0  0  0  0  0  0  0  0  0  0
   18.7457   19.5131   24.7592 C   0  0  0  0  0  0  0  0  0  0  0  0
   18.0897   18.6469   24.5977 H   0  0  0  0  0  0  0  0  0  0  0  0
   18.1141   20.4057   24.6532 H   0  0  0  0  0  0  0  0  0  0  0  0
   19.3050   19.4769   26.2006 C   0  0  0  0  0  0  0  0  0  0  0  0
   19.9576   20.3451   26.3673 H   0  0  0  0  0  0  0  0  0  0  0  0
   18.4684   19.5778   26.9057 H   0  0  0  0  0  0  0  0  0  0  0  0
   20.0749   18.1784   26.5259 C   0  0  0  0  0  0  0  0  0  0  0  0
   20.9882   18.0923   25.9241 H   0  0  0  0  0  0  0  0  0  0  0  0
   20.3712   18.1625   27.5827 H   0  0  0  0  0  0  0  0  0  0  0  0
   19.4522   17.2944   26.3362 H   0  0  0  0  0  0  0  0  0  0  0  0
  1  2  1  0  0  0  0
  1  3  2  0  0  0  0
  1  4  1  0  0  0  0
  4  5  1  0  0  0  0
  4  6  1  0  0  0  0
  4  7  1  0  0  0  0
  7  8  1  0  0  0  0
  7  9  1  0  0  0  0
  7 10  1  0  0  0  0
 10 11  1  0  0  0  0
 10 12  1  0  0  0  0
 10 13  1  0  0  0  0
 13 14  1  0  0  0  0
 13 15  1  0  0  0  0
 13 16  1  0  0  0  0
 16 17  1  0  0  0  0
 16 18  1  0  0  0  0
 16 19  1  0  0  0  0
 19 20  1  0  0  0  0
 19 21  1  0  0  0  0
 19 22  1  0  0  0  0
 22 23  1  0  0  0  0
 22 24  1  0  0  0  0
 22 25  1  0  0  0  0
M  END
> <VConfSearch Rank>
508

> <Conf_Id>
4

> <Delta U+W>
0.189

> <U+W>
-51.441

> <U>
7.701

> <W>
-59.141

> <W(PB)>
-61.609

> <W(SA)>
2.467

> <Valence>
8.550

> <Coulomb>
-1.988

> <VdW>
1.139

> <VdW6>
-8.988

> <VdW12>
10.127

> <Bond>
0.191

> <Angle>
2.738

> <Pdih>
5.621

> <Idih>
0.001

> <Tether>
0.000

$$$$
VeraChem MOL file


 25 24  0  0  0  0  0  0  0  0999 V2000     
   17.2753   16.3533   22.3379 C   0  0  0  0  0  0  0  0  0  0  0  0
   17.5262   15.4082   23.0594 O   0  5  0  0  0  0  0  0  0  0  0  0
   16.2964   16.4111   21.6202 O   0  0  0  0  0  0  0  0  0  0  0  0
   18.2291   17.5425   22.3512 C   0  0  0  0  0  0  0  0  0  0  0  0
   18.2206   17.9964   21.3531 H   0  0  0  0  0  0  0  0  0  0  0  0
   19.2398   17.1565   22.5250 H   0  0  0  0  0  0  0  0  0  0  0  0
   17.8549   18.5991   23.4230 C   0  0  0  0  0  0  0  0  0  0  0  0
   16.8065   18.8937   23.2766 H   0  0  0  0  0  0  0  0  0  0  0  0
   17.9127   18.1448   24.4218 H   0  0  0  0  0  0  0  0  0  0  0  0
   18.7377   19.8689   23.3743 C   0  0  0  0  0  0  0  0  0  0  0  0
   18.3296   20.6037   24.0817 H   0  0  0  0  0  0  0  0  0  0  0  0
   18.6701   20.3262   22.3776 H   0  0  0  0  0  0  0  0  0  0  0  0
   20.2199   19.6015   23.7248 C   0  0  0  0  0  0  0  0  0  0  0  0
   20.2816   19.0992   24.6998 H   0  0  0  0  0  0  0  0  0  0  0  0
   20.6558   18.9211   22.9834 H   0  0  0  0  0  0  0  0  0  0  0  0
   21.0404   20.9115   23.7665 C   0  0  0  0  0  0  0  0  0  0  0  0
   20.5613   21.6119   24.4642 H   0  0  0  0  0  0  0  0  0  0  0  0
   21.0193   21.3927   22.7792 H   0  0  0  0  0  0  0  0  0  0  0  0
   22.5076   20.7047   24.2099 C   0  0  0  0  0  0  0  0  0  0  0  0
   22.9820   21.6888   24.3274 H   0  0  0  0  0  0  0  0  0  0  0  0
   22.5324   20.2283   25.1997 H   0  0  0  0  0  0  0  0  0  0  0  0
   23.3371   19.8696   23.2103 C   0  0  0  0  0  0  0  0  0  0  0  0
   23.3009   20.3099   22.2054 H   0  0  0  0  0  0  0  0  0  0  0  0
   24.3882   19.8290   23.5238 H   0  0  0  0  0  0  0  0  0  0  0  0
   22.9695   18.8378   23.1481 H   0  0  0  0  0  0  0  0  0  0  0  0
  1  2  1  0  0  0  0
  1  3  2  0  0  0  0
  1  4  1  0  0  0  0
  4  5  1  0  0  0  0
  4  6  1  0  0  0  0
  4  7  1  0  0  0  0
  7  8  1  0  0  0  0
  7  9  1  0  0  0  0
  7 10  1  0  0  0  0
 10 11  1  0  0  0  0
 10 12  1  0  0  0  0
 10 13  1  0  0  0  0
 13 14  1  0  0  0  0
 13 15  1  0  0  0  0
 13 16  1  0  0  0  0
 16 17  1  0  0  0  0
 16 18  1  0  0  0  0
 16 19  1  0  0  0  0
 19 20  1  0  0  0  0
 19 21  1  0  0  0  0
 19 22  1  0  0  0  0
 22 23  1  0  0  0  0
 22 24  1  0  0  0  0
 22 25  1  0  0  0  0
M  END
> <VConfSearch Rank>
509

> <Conf_Id>
17

> <Delta U+W>
0.219

> <U+W>
-51.411

> <U>
7.701

> <W>
-59.111

> <W(PB)>
-61.599

> <W(SA)>
2.488

> <Valence>
8.550

> <Coulomb>
-1.988

> <VdW>
1.139

> <VdW6>
-8.988

> <VdW12>
10.127

> <Bond>
0.191

> <Angle>
2.738

> <Pdih>
5.621

> <Idih>
0.001

> <Tether>
0.000

$$$$
VeraChem MOL file


 25 24  0  0  0  0  0  0  0  0999 V2000     
   21.2673   15.7650   23.3965 C   0  0  0  0  0  0  0  0  0  0  0  0
   22.2918   15.6851   22.7477 O   0  5  0  0  0  0  0  0  0  0  0  0
   20.2329   15.2040   23.0926 O   0  0  0  0  0  0  0  0  0  0  0  0
   21.2836   16.5998   24.6740 C   0  0  0  0  0  0  0  0  0  0  0  0
   22.3246   16.7293   24.9941 H   0  0  0  0  0  0  0  0  0  0  0  0
   20.7821   16.0155   25.4544 H   0  0  0  0  0  0  0  0  0  0  0  0
   20.5897   17.9794   24.5328 C   0  0  0  0  0  0  0  0  0  0  0  0
   19.5570   17.8247   24.1936 H   0  0  0  0  0  0  0  0  0  0  0  0
   20.5319   18.4526   25.5223 H   0  0  0  0  0  0  0  0  0  0  0  0
   21.3376   18.9212   23.5589 C   0  0  0  0  0  0  0  0  0  0  0  0
   21.3392   18.4886   22.5489 H   0  0  0  0  0  0  0  0  0  0  0  0
   22.3898   18.9907   23.8669 H   0  0  0  0  0  0  0  0  0  0  0  0
   20.7455   20.3496   23.5067 C   0  0  0  0  0  0  0  0  0  0  0  0
   20.7510   20.7876   24.5141 H   0  0  0  0  0  0  0  0  0  0  0  0
   21.4051   20.9770   22.8916 H   0  0  0  0  0  0  0  0  0  0  0  0
   19.3146   20.4023   22.9228 C   0  0  0  0  0  0  0  0  0  0  0  0
   18.6258   19.8417   23.5679 H   0  0  0  0  0  0  0  0  0  0  0  0
   19.3017   19.9143   21.9386 H   0  0  0  0  0  0  0  0  0  0  0  0
   18.8080   21.8535   22.7849 C   0  0  0  0  0  0  0  0  0  0  0  0
   18.8215   22.3451   23.7675 H   0  0  0  0  0  0  0  0  0  0  0  0
   19.4858   22.4227   22.1337 H   0  0  0  0  0  0  0  0  0  0  0  0
   17.3797   21.9042   22.2060 C   0  0  0  0  0  0  0  0  0  0  0  0
   16.6737   21.3693   22.8548 H   0  0  0  0  0  0  0  0  0  0  0  0
   17.0359   22.9427   22.1145 H   0  0  0  0  0  0  0  0  0  0  0  0
   17.3436   21.4460   21.2089 H   0  0  0  0  0  0  0  0  0  0  0  0
  1  2  1  0  0  0  0
  1  3  2  0  0  0  0
  1  4  1  0  0  0  0
  4  5  1  0  0  0  0
  4  6  1  0  0  0  0
  4  7  1  0  0  0  0
  7  8  1  0  0  0  0
  7  9  1  0  0  0  0
  7 10  1  0  0  0  0
 10 11  1  0  0  0  0
 10 12  1  0  0  0  0
 10 13  1  0  0  0  0
 13 14  1  0  0  0  0
 13 15  1  0  0  0  0
 13 16  1  0  0  0  0
 16 17  1  0  0  0  0
 16 18  1  0  0  0  0
 16 19  1  0  0  0  0
 19 20  1  0  0  0  0
 19 21  1  0  0  0  0
 19 22  1  0  0  0  0
 22 23  1  0  0  0  0
 22 24  1  0  0  0  0
 22 25  1  0  0  0  0
M  END
> <VConfSearch Rank>
510

> <Conf_Id>
142

> <Delta U+W>
0.593

> <U+W>
-51.037

> <U>
8.903

> <W>
-59.940

> <W(PB)>
-62.418

> <W(SA)>
2.478

> <Valence>
8.305

> <Coulomb>
-0.223

> <VdW>
0.821

> <VdW6>
-9.236

> <VdW12>
10.057

> <Bond>
0.173

> <Angle>
2.663

> <Pdih>
5.469

> <Idih>
0.001

> <Tether>
0.000

$$$$
VeraChem MOL file


 25 24  0  0  0  0  0  0  0  0999 V2000     
   21.4671   21.7014   21.2881 C   0  0  0  0  0  0  0  0  0  0  0  0
   21.6545   22.9023   21.2991 O   0  5  0  0  0  0  0  0  0  0  0  0
   22.2588   20.9019   20.8285 O   0  0  0  0  0  0  0  0  0  0  0  0
   20.1534   21.1739   21.8580 C   0  0  0  0  0  0  0  0  0  0  0  0
   20.0180   20.1376   21.5278 H   0  0  0  0  0  0  0  0  0  0  0  0
   19.3432   21.7538   21.4009 H   0  0  0  0  0  0  0  0  0  0  0  0
   20.0479   21.2731   23.4043 C   0  0  0  0  0  0  0  0  0  0  0  0
   20.1188   22.3304   23.6947 H   0  0  0  0  0  0  0  0  0  0  0  0
   19.0507   20.9410   23.7209 H   0  0  0  0  0  0  0  0  0  0  0  0
   21.1324   20.4746   24.1730 C   0  0  0  0  0  0  0  0  0  0  0  0
   20.9752   20.6143   25.2511 H   0  0  0  0  0  0  0  0  0  0  0  0
   22.1180   20.9078   23.9536 H   0  0  0  0  0  0  0  0  0  0  0  0
   21.1795   18.9569   23.8654 C   0  0  0  0  0  0  0  0  0  0  0  0
   21.4472   18.7975   22.8122 H   0  0  0  0  0  0  0  0  0  0  0  0
   21.9917   18.5105   24.4549 H   0  0  0  0  0  0  0  0  0  0  0  0
   19.8597   18.2193   24.1888 C   0  0  0  0  0  0  0  0  0  0  0  0
   19.0513   18.6052   23.5542 H   0  0  0  0  0  0  0  0  0  0  0  0
   19.5737   18.4182   25.2306 H   0  0  0  0  0  0  0  0  0  0  0  0
   19.9888   16.6971   23.9706 C   0  0  0  0  0  0  0  0  0  0  0  0
   20.2774   16.4961   22.9295 H   0  0  0  0  0  0  0  0  0  0  0  0
   20.7906   16.2978   24.6070 H   0  0  0  0  0  0  0  0  0  0  0  0
   18.6700   15.9636   24.2877 C   0  0  0  0  0  0  0  0  0  0  0  0
   17.8569   16.3211   23.6424 H   0  0  0  0  0  0  0  0  0  0  0  0
   18.7799   14.8832   24.1274 H   0  0  0  0  0  0  0  0  0  0  0  0
   18.3736   16.1229   25.3327 H   0  0  0  0  0  0  0  0  0  0  0  0
  1  2  1  0  0  0  0
  1  3  2  0  0  0  0
  1  4  1  0  0  0  0
  4  5  1  0  0  0  0
  4  6  1  0  0  0  0
  4  7  1  0  0  0  0
  7  8  1  0  0  0  0
  7  9  1  0  0  0  0
  7 10  1  0  0  0  0
 10 11  1  0  0  0  0
 10 12  1  0  0  0  0
 10 13  1  0  0  0  0
 13 14  1  0  0  0  0
 13 15  1  0  0  0  0
 13 16  1  0  0  0  0
 16 17  1  0  0  0  0
 16 18  1  0  0  0  0
 16 19  1  0  0  0  0
 19 20  1  0  0  0  0
 19 21  1  0  0  0  0
 19 22  1  0  0  0  0
 22 23  1  0  0  0  0
 22 24  1  0  0  0  0
 22 25  1  0  0  0  0
M  END
> <VConfSearch Rank>
511

> <Conf_Id>
135

> <Delta U+W>
1.314

> <U+W>
-50.316

> <U>
9.773

> <W>
-60.088

> <W(PB)>
-62.535

> <W(SA)>
2.447

> <Valence>
8.741

> <Coulomb>
0.479

> <VdW>
0.552

> <VdW6>
-10.627

> <VdW12>
11.179

> <Bond>
0.227

> <Angle>
3.155

> <Pdih>
5.358

> <Idih>
0.001

> <Tether>
0.000

$$$$
VeraChem MOL file


 25 24  0  0  0  0  0  0  0  0999 V2000     
   22.8788   16.4179   24.7602 C   0  0  0  0  0  0  0  0  0  0  0  0
   23.4420   15.7783   23.8940 O   0  5  0  0  0  0  0  0  0  0  0  0
   23.3053   16.5399   25.8916 O   0  0  0  0  0  0  0  0  0  0  0  0
   21.5768   17.1252   24.4017 C   0  0  0  0  0  0  0  0  0  0  0  0
   20.9483   17.1558   25.2997 H   0  0  0  0  0  0  0  0  0  0  0  0
   21.0565   16.5078   23.6611 H   0  0  0  0  0  0  0  0  0  0  0  0
   21.8044   18.5603   23.8589 C   0  0  0  0  0  0  0  0  0  0  0  0
   22.4118   19.1171   24.5859 H   0  0  0  0  0  0  0  0  0  0  0  0
   22.3943   18.5148   22.9330 H   0  0  0  0  0  0  0  0  0  0  0  0
   20.4943   19.3448   23.6075 C   0  0  0  0  0  0  0  0  0  0  0  0
   20.7630   20.3839   23.3794 H   0  0  0  0  0  0  0  0  0  0  0  0
   19.8947   19.3674   24.5276 H   0  0  0  0  0  0  0  0  0  0  0  0
   19.6489   18.7762   22.4429 C   0  0  0  0  0  0  0  0  0  0  0  0
   20.2359   18.8123   21.5152 H   0  0  0  0  0  0  0  0  0  0  0  0
   19.4319   17.7172   22.6295 H   0  0  0  0  0  0  0  0  0  0  0  0
   18.2979   19.5034   22.2251 C   0  0  0  0  0  0  0  0  0  0  0  0
   17.6637   19.3931   23.1153 H   0  0  0  0  0  0  0  0  0  0  0  0
   17.7688   18.9812   21.4163 H   0  0  0  0  0  0  0  0  0  0  0  0
   18.4195   20.9977   21.8345 C   0  0  0  0  0  0  0  0  0  0  0  0
   19.3784   21.1836   21.3313 H   0  0  0  0  0  0  0  0  0  0  0  0
   17.6383   21.2336   21.0988 H   0  0  0  0  0  0  0  0  0  0  0  0
   18.2496   21.9552   23.0352 C   0  0  0  0  0  0  0  0  0  0  0  0
   19.0067   21.7795   23.8078 H   0  0  0  0  0  0  0  0  0  0  0  0
   18.3387   22.9995   22.7092 H   0  0  0  0  0  0  0  0  0  0  0  0
   17.2611   21.8308   23.4961 H   0  0  0  0  0  0  0  0  0  0  0  0
  1  2  1  0  0  0  0
  1  3  2  0  0  0  0
  1  4  1  0  0  0  0
  4  5  1  0  0  0  0
  4  6  1  0  0  0  0
  4  7  1  0  0  0  0
  7  8  1  0  0  0  0
  7  9  1  0  0  0  0
  7 10  1  0  0  0  0
 10 11  1  0  0  0  0
 10 12  1  0  0  0  0
 10 13  1  0  0  0  0
 13 14  1  0  0  0  0
 13 15  1  0  0  0  0
 13 16  1  0  0  0  0
 16 17  1  0  0  0  0
 16 18  1  0  0  0  0
 16 19  1  0  0  0  0
 19 20  1  0  0  0  0
 19 21  1  0  0  0  0
 19 22  1  0  0  0  0
 22 23  1  0  0  0  0
 22 24  1  0  0  0  0
 22 25  1  0  0  0  0
M  END
> <VConfSearch Rank>
512

> <Conf_Id>
19

> <Delta U+W>
3.222

> <U+W>
-48.407

> <U>
10.617

> <W>
-59.025

> <W(PB)>
-61.462

> <W(SA)>
2.437

> <Valence>
11.188

> <Coulomb>
-1.778

> <VdW>
1.208

> <VdW6>
-9.786

> <VdW12>
10.993

> <Bond>
0.241

> <Angle>
3.294

> <Pdih>
7.653

> <Idih>
0.001

> <Tether>
0.000

$$$$
VeraChem MOL file


 25 24  0  0  0  0  0  0  0  0999 V2000     
   22.6040   19.4161   19.8808 C   0  0  0  0  0  0  0  0  0  0  0  0
   22.0114   19.2967   18.8266 O   0  5  0  0  0  0  0  0  0  0  0  0
   23.8002   19.2410   20.0040 O   0  0  0  0  0  0  0  0  0  0  0  0
   21.7986   19.7829   21.1221 C   0  0  0  0  0  0  0  0  0  0  0  0
   20.9778   20.4353   20.8046 H   0  0  0  0  0  0  0  0  0  0  0  0
   22.4447   20.3711   21.7847 H   0  0  0  0  0  0  0  0  0  0  0  0
   21.2539   18.5391   21.8720 C   0  0  0  0  0  0  0  0  0  0  0  0
   20.5703   17.9832   21.2156 H   0  0  0  0  0  0  0  0  0  0  0  0
   22.0941   17.8642   22.0866 H   0  0  0  0  0  0  0  0  0  0  0  0
   20.5418   18.8787   23.2033 C   0  0  0  0  0  0  0  0  0  0  0  0
   21.2185   19.4561   23.8478 H   0  0  0  0  0  0  0  0  0  0  0  0
   20.3363   17.9354   23.7250 H   0  0  0  0  0  0  0  0  0  0  0  0
   19.2130   19.6484   23.0131 C   0  0  0  0  0  0  0  0  0  0  0  0
   19.3971   20.5612   22.4331 H   0  0  0  0  0  0  0  0  0  0  0  0
   18.5207   19.0384   22.4171 H   0  0  0  0  0  0  0  0  0  0  0  0
   18.5237   20.0622   24.3379 C   0  0  0  0  0  0  0  0  0  0  0  0
   17.6285   20.6430   24.0766 H   0  0  0  0  0  0  0  0  0  0  0  0
   19.1709   20.7494   24.8998 H   0  0  0  0  0  0  0  0  0  0  0  0
   18.0848   18.8807   25.2389 C   0  0  0  0  0  0  0  0  0  0  0  0
   17.1234   19.1335   25.7068 H   0  0  0  0  0  0  0  0  0  0  0  0
   17.9015   17.9845   24.6304 H   0  0  0  0  0  0  0  0  0  0  0  0
   19.0958   18.5671   26.3645 C   0  0  0  0  0  0  0  0  0  0  0  0
   19.2252   19.4343   27.0251 H   0  0  0  0  0  0  0  0  0  0  0  0
   18.7404   17.7286   26.9773 H   0  0  0  0  0  0  0  0  0  0  0  0
   20.0801   18.2970   25.9655 H   0  0  0  0  0  0  0  0  0  0  0  0
  1  2  1  0  0  0  0
  1  3  2  0  0  0  0
  1  4  1  0  0  0  0
  4  5  1  0  0  0  0
  4  6  1  0  0  0  0
  4  7  1  0  0  0  0
  7  8  1  0  0  0  0
  7  9  1  0  0  0  0
  7 10  1  0  0  0  0
 10 11  1  0  0  0  0
 10 12  1  0  0  0  0
 10 13  1  0  0  0  0
 13 14  1  0  0  0  0
 13 15  1  0  0  0  0
 13 16  1  0  0  0  0
 16 17  1  0  0  0  0
 16 18  1  0  0  0  0
 16 19  1  0  0  0  0
 19 20  1  0  0  0  0
 19 21  1  0  0  0  0
 19 22  1  0  0  0  0
 22 23  1  0  0  0  0
 22 24  1  0  0  0  0
 22 25  1  0  0  0  0
M  END
> <VConfSearch Rank>
513

> <Conf_Id>
20

> <Delta U+W>
3.224

> <U+W>
-48.406

> <U>
10.617

> <W>
-59.023

> <W(PB)>
-61.467

> <W(SA)>
2.444

> <Valence>
11.188

> <Coulomb>
-1.778

> <VdW>
1.208

> <VdW6>
-9.786

> <VdW12>
10.993

> <Bond>
0.241

> <Angle>
3.294

> <Pdih>
7.653

> <Idih>
0.001

> <Tether>
0.000

$$$$
VeraChem MOL file


 25 24  0  0  0  0  0  0  0  0999 V2000     
   16.8663   20.3355   23.5944 C   0  0  0  0  0  0  0  0  0  0  0  0
   16.2018   19.4827   23.0386 O   0  5  0  0  0  0  0  0  0  0  0  0
   17.2046   21.3746   23.0624 O   0  0  0  0  0  0  0  0  0  0  0  0
   17.2412   20.1217   25.0597 C   0  0  0  0  0  0  0  0  0  0  0  0
   16.2983   20.0926   25.6178 H   0  0  0  0  0  0  0  0  0  0  0  0
   17.7914   21.0000   25.4187 H   0  0  0  0  0  0  0  0  0  0  0  0
   18.0449   18.8244   25.3564 C   0  0  0  0  0  0  0  0  0  0  0  0
   17.9352   18.5945   26.4249 H   0  0  0  0  0  0  0  0  0  0  0  0
   17.5994   17.9764   24.8179 H   0  0  0  0  0  0  0  0  0  0  0  0
   19.5599   18.9134   25.0464 C   0  0  0  0  0  0  0  0  0  0  0  0
   20.0420   18.0054   25.4337 H   0  0  0  0  0  0  0  0  0  0  0  0
   20.0010   19.7556   25.5968 H   0  0  0  0  0  0  0  0  0  0  0  0
   19.8885   19.0470   23.5421 C   0  0  0  0  0  0  0  0  0  0  0  0
   19.3615   18.2649   22.9785 H   0  0  0  0  0  0  0  0  0  0  0  0
   19.5279   20.0127   23.1662 H   0  0  0  0  0  0  0  0  0  0  0  0
   21.4063   18.9422   23.2775 C   0  0  0  0  0  0  0  0  0  0  0  0
   21.7775   17.9748   23.6426 H   0  0  0  0  0  0  0  0  0  0  0  0
   21.9319   19.7219   23.8457 H   0  0  0  0  0  0  0  0  0  0  0  0
   21.7365   19.0869   21.7771 C   0  0  0  0  0  0  0  0  0  0  0  0
   21.2128   18.3078   21.2060 H   0  0  0  0  0  0  0  0  0  0  0  0
   21.3680   20.0544   21.4087 H   0  0  0  0  0  0  0  0  0  0  0  0
   23.2526   18.9824   21.5160 C   0  0  0  0  0  0  0  0  0  0  0  0
   23.6420   18.0106   21.8467 H   0  0  0  0  0  0  0  0  0  0  0  0
   23.4689   19.0875   20.4449 H   0  0  0  0  0  0  0  0  0  0  0  0
   23.7985   19.7706   22.0509 H   0  0  0  0  0  0  0  0  0  0  0  0
  1  2  1  0  0  0  0
  1  3  2  0  0  0  0
  1  4  1  0  0  0  0
  4  5  1  0  0  0  0
  4  6  1  0  0  0  0
  4  7  1  0  0  0  0
  7  8  1  0  0  0  0
  7  9  1  0  0  0  0
  7 10  1  0  0  0  0
 10 11  1  0  0  0  0
 10 12  1  0  0  0  0
 10 13  1  0  0  0  0
 13 14  1  0  0  0  0
 13 15  1  0  0  0  0
 13 16  1  0  0  0  0
 16 17  1  0  0  0  0
 16 18  1  0  0  0  0
 16 19  1  0  0  0  0
 19 20  1  0  0  0  0
 19 21  1  0  0  0  0
 19 22  1  0  0  0  0
 22 23  1  0  0  0  0
 22 24  1  0  0  0  0
 22 25  1  0  0  0  0
M  END
> <VConfSearch Rank>
514

> <Conf_Id>
24

> <Delta U+W>
1.784

> <U+W>
-49.846

> <U>
10.904

> <W>
-60.749

> <W(PB)>
-63.220

> <W(SA)>
2.471

> <Valence>
9.445

> <Coulomb>
0.780

> <VdW>
0.679

> <VdW6>
-10.008

> <VdW12>
10.687

> <Bond>
0.201

> <Angle>
3.198

> <Pdih>
6.039

> <Idih>
0.006

> <Tether>
0.000

$$$$
VeraChem MOL file


 25 24  0  0  0  0  0  0  0  0999 V2000     
   22.9116   19.0909   21.9534 C   0  0  0  0  0  0  0  0  0  0  0  0
   22.8284   18.2370   21.0922 O   0  5  0  0  0  0  0  0  0  0  0  0
   22.7693   20.2783   21.7364 O   0  0  0  0  0  0  0  0  0  0  0  0
   23.2800   18.6574   23.3710 C   0  0  0  0  0  0  0  0  0  0  0  0
   23.3625   19.5478   24.0060 H   0  0  0  0  0  0  0  0  0  0  0  0
   24.2841   18.2223   23.3088 H   0  0  0  0  0  0  0  0  0  0  0  0
   22.3188   17.6211   24.0187 C   0  0  0  0  0  0  0  0  0  0  0  0
   22.0754   16.8319   23.2938 H   0  0  0  0  0  0  0  0  0  0  0  0
   22.8576   17.1239   24.8365 H   0  0  0  0  0  0  0  0  0  0  0  0
   21.0178   18.2211   24.6072 C   0  0  0  0  0  0  0  0  0  0  0  0
   21.2684   19.0006   25.3396 H   0  0  0  0  0  0  0  0  0  0  0  0
   20.4981   17.4297   25.1646 H   0  0  0  0  0  0  0  0  0  0  0  0
   20.0528   18.7966   23.5460 C   0  0  0  0  0  0  0  0  0  0  0  0
   20.5053   19.6743   23.0678 H   0  0  0  0  0  0  0  0  0  0  0  0
   19.8848   18.0507   22.7570 H   0  0  0  0  0  0  0  0  0  0  0  0
   18.6998   19.2069   24.1670 C   0  0  0  0  0  0  0  0  0  0  0  0
   18.8702   19.9490   24.9590 H   0  0  0  0  0  0  0  0  0  0  0  0
   18.2328   18.3332   24.6420 H   0  0  0  0  0  0  0  0  0  0  0  0
   17.7396   19.7923   23.1102 C   0  0  0  0  0  0  0  0  0  0  0  0
   18.2027   20.6678   22.6340 H   0  0  0  0  0  0  0  0  0  0  0  0
   17.5666   19.0520   22.3168 H   0  0  0  0  0  0  0  0  0  0  0  0
   16.3897   20.2015   23.7331 C   0  0  0  0  0  0  0  0  0  0  0  0
   16.5307   20.9652   24.5092 H   0  0  0  0  0  0  0  0  0  0  0  0
   15.7202   20.6154   22.9680 H   0  0  0  0  0  0  0  0  0  0  0  0
   15.8897   19.3372   24.1895 H   0  0  0  0  0  0  0  0  0  0  0  0
  1  2  1  0  0  0  0
  1  3  2  0  0  0  0
  1  4  1  0  0  0  0
  4  5  1  0  0  0  0
  4  6  1  0  0  0  0
  4  7  1  0  0  0  0
  7  8  1  0  0  0  0
  7  9  1  0  0  0  0
  7 10  1  0  0  0  0
 10 11  1  0  0  0  0
 10 12  1  0  0  0  0
 10 13  1  0  0  0  0
 13 14  1  0  0  0  0
 13 15  1  0  0  0  0
 13 16  1  0  0  0  0
 16 17  1  0  0  0  0
 16 18  1  0  0  0  0
 16 19  1  0  0  0  0
 19 20  1  0  0  0  0
 19 21  1  0  0  0  0
 19 22  1  0  0  0  0
 22 23  1  0  0  0  0
 22 24  1  0  0  0  0
 22 25  1  0  0  0  0
M  END
> <VConfSearch Rank>
515

> <Conf_Id>
9

> <Delta U+W>
1.764

> <U+W>
-49.865

> <U>
10.902

> <W>
-60.768

> <W(PB)>
-63.223

> <W(SA)>
2.456

> <Valence>
9.445

> <Coulomb>
0.778

> <VdW>
0.679

> <VdW6>
-10.007

> <VdW12>
10.687

> <Bond>
0.201

> <Angle>
3.198

> <Pdih>
6.040

> <Idih>
0.006

> <Tether>
0.000

$$$$
VeraChem MOL file


 25 24  0  0  0  0  0  0  0  0999 V2000     
   23.6408   18.5735   23.3544 C   0  0  0  0  0  0  0  0  0  0  0  0
   23.5387   17.6499   24.1375 O   0  5  0  0  0  0  0  0  0  0  0  0
   24.6332   18.7819   22.6847 O   0  0  0  0  0  0  0  0  0  0  0  0
   22.4505   19.5110   23.1874 C   0  0  0  0  0  0  0  0  0  0  0  0
   22.8377   20.5126   22.9658 H   0  0  0  0  0  0  0  0  0  0  0  0
   21.9365   19.5740   24.1515 H   0  0  0  0  0  0  0  0  0  0  0  0
   21.4812   19.0553   22.0647 C   0  0  0  0  0  0  0  0  0  0  0  0
   22.0482   19.0175   21.1242 H   0  0  0  0  0  0  0  0  0  0  0  0
   21.1371   18.0293   22.2553 H   0  0  0  0  0  0  0  0  0  0  0  0
   20.2682   20.0011   21.8739 C   0  0  0  0  0  0  0  0  0  0  0  0
   20.0240   20.0309   20.8032 H   0  0  0  0  0  0  0  0  0  0  0  0
   20.5401   21.0300   22.1464 H   0  0  0  0  0  0  0  0  0  0  0  0
   18.9868   19.5699   22.6308 C   0  0  0  0  0  0  0  0  0  0  0  0
   18.1764   20.2590   22.3573 H   0  0  0  0  0  0  0  0  0  0  0  0
   18.6800   18.5764   22.2782 H   0  0  0  0  0  0  0  0  0  0  0  0
   19.1336   19.5541   24.1707 C   0  0  0  0  0  0  0  0  0  0  0  0
   19.5866   20.4996   24.4984 H   0  0  0  0  0  0  0  0  0  0  0  0
   19.8199   18.7512   24.4699 H   0  0  0  0  0  0  0  0  0  0  0  0
   17.7888   19.3689   24.9115 C   0  0  0  0  0  0  0  0  0  0  0  0
   17.9644   19.4676   25.9916 H   0  0  0  0  0  0  0  0  0  0  0  0
   17.0979   20.1771   24.6345 H   0  0  0  0  0  0  0  0  0  0  0  0
   17.1254   18.0018   24.6372 C   0  0  0  0  0  0  0  0  0  0  0  0
   17.8077   17.1778   24.8833 H   0  0  0  0  0  0  0  0  0  0  0  0
   16.2201   17.8849   25.2469 H   0  0  0  0  0  0  0  0  0  0  0  0
   16.8323   17.9035   23.5845 H   0  0  0  0  0  0  0  0  0  0  0  0
  1  2  1  0  0  0  0
  1  3  2  0  0  0  0
  1  4  1  0  0  0  0
  4  5  1  0  0  0  0
  4  6  1  0  0  0  0
  4  7  1  0  0  0  0
  7  8  1  0  0  0  0
  7  9  1  0  0  0  0
  7 10  1  0  0  0  0
 10 11  1  0  0  0  0
 10 12  1  0  0  0  0
 10 13  1  0  0  0  0
 13 14  1  0  0  0  0
 13 15  1  0  0  0  0
 13 16  1  0  0  0  0
 16 17  1  0  0  0  0
 16 18  1  0  0  0  0
 16 19  1  0  0  0  0
 19 20  1  0  0  0  0
 19 21  1  0  0  0  0
 19 22  1  0  0  0  0
 22 23  1  0  0  0  0
 22 24  1  0  0  0  0
 22 25  1  0  0  0  0
M  END
> <VConfSearch Rank>
516

> <Conf_Id>
89

> <Delta U+W>
2.903

> <U+W>
-48.726

> <U>
10.996

> <W>
-59.723

> <W(PB)>
-62.151

> <W(SA)>
2.428

> <Valence>
10.985

> <Coulomb>
-0.995

> <VdW>
1.006

> <VdW6>
-10.062

> <VdW12>
11.069

> <Bond>
0.238

> <Angle>
3.202

> <Pdih>
7.544

> <Idih>
0.001

> <Tether>
0.000

$$$$
VeraChem MOL file


 25 24  0  0  0  0  0  0  0  0999 V2000     
   17.2688   18.9053   21.4618 C   0  0  0  0  0  0  0  0  0  0  0  0
   16.4190   18.8621   22.3297 O   0  5  0  0  0  0  0  0  0  0  0  0
   17.3846   19.8308   20.6824 O   0  0  0  0  0  0  0  0  0  0  0  0
   18.1975   17.7029   21.3032 C   0  0  0  0  0  0  0  0  0  0  0  0
   17.9776   17.2726   20.3194 H   0  0  0  0  0  0  0  0  0  0  0  0
   17.9268   16.9424   22.0456 H   0  0  0  0  0  0  0  0  0  0  0  0
   19.7170   18.0218   21.3871 C   0  0  0  0  0  0  0  0  0  0  0  0
   20.2609   17.2064   20.8914 H   0  0  0  0  0  0  0  0  0  0  0  0
   19.9426   18.9292   20.8096 H   0  0  0  0  0  0  0  0  0  0  0  0
   20.2775   18.1543   22.8252 C   0  0  0  0  0  0  0  0  0  0  0  0
   21.3709   18.2060   22.7519 H   0  0  0  0  0  0  0  0  0  0  0  0
   20.0488   17.2442   23.3961 H   0  0  0  0  0  0  0  0  0  0  0  0
   19.7571   19.3940   23.5925 C   0  0  0  0  0  0  0  0  0  0  0  0
   19.9289   20.3012   22.9974 H   0  0  0  0  0  0  0  0  0  0  0  0
   18.6716   19.3081   23.7237 H   0  0  0  0  0  0  0  0  0  0  0  0
   20.3894   19.5634   24.9949 C   0  0  0  0  0  0  0  0  0  0  0  0
   20.2453   18.6433   25.5776 H   0  0  0  0  0  0  0  0  0  0  0  0
   19.8441   20.3553   25.5263 H   0  0  0  0  0  0  0  0  0  0  0  0
   21.8905   19.9309   24.9590 C   0  0  0  0  0  0  0  0  0  0  0  0
   22.4707   19.1167   24.5059 H   0  0  0  0  0  0  0  0  0  0  0  0
   22.0393   20.8194   24.3301 H   0  0  0  0  0  0  0  0  0  0  0  0
   22.4384   20.2077   26.3736 C   0  0  0  0  0  0  0  0  0  0  0  0
   22.3267   19.3253   27.0173 H   0  0  0  0  0  0  0  0  0  0  0  0
   23.5050   20.4640   26.3320 H   0  0  0  0  0  0  0  0  0  0  0  0
   21.9071   21.0451   26.8444 H   0  0  0  0  0  0  0  0  0  0  0  0
  1  2  1  0  0  0  0
  1  3  2  0  0  0  0
  1  4  1  0  0  0  0
  4  5  1  0  0  0  0
  4  6  1  0  0  0  0
  4  7  1  0  0  0  0
  7  8  1  0  0  0  0
  7  9  1  0  0  0  0
  7 10  1  0  0  0  0
 10 11  1  0  0  0  0
 10 12  1  0  0  0  0
 10 13  1  0  0  0  0
 13 14  1  0  0  0  0
 13 15  1  0  0  0  0
 13 16  1  0  0  0  0
 16 17  1  0  0  0  0
 16 18  1  0  0  0  0
 16 19  1  0  0  0  0
 19 20  1  0  0  0  0
 19 21  1  0  0  0  0
 19 22  1  0  0  0  0
 22 23  1  0  0  0  0
 22 24  1  0  0  0  0
 22 25  1  0  0  0  0
M  END
> <VConfSearch Rank>
517

> <Conf_Id>
114

> <Delta U+W>
2.758

> <U+W>
-48.871

> <U>
11.422

> <W>
-60.293

> <W(PB)>
-62.719

> <W(SA)>
2.425

> <Valence>
10.135

> <Coulomb>
0.369

> <VdW>
0.918

> <VdW6>
-10.482

> <VdW12>
11.400

> <Bond>
0.245

> <Angle>
3.539

> <Pdih>
6.346

> <Idih>
0.006

> <Tether>
0.000

$$$$
VeraChem MOL file


 25 24  0  0  0  0  0  0  0  0999 V2000     
   18.8825   18.1263   26.8509 C   0  0  0  0  0  0  0  0  0  0  0  0
   18.3326   17.0525   26.7036 O   0  5  0  0  0  0  0  0  0  0  0  0
   19.8415   18.2970   27.5777 O   0  0  0  0  0  0  0  0  0  0  0  0
   18.3272   19.3324   26.0986 C   0  0  0  0  0  0  0  0  0  0  0  0
   18.2754   20.1666   26.8081 H   0  0  0  0  0  0  0  0  0  0  0  0
   17.2973   19.1107   25.7935 H   0  0  0  0  0  0  0  0  0  0  0  0
   19.1733   19.7504   24.8680 C   0  0  0  0  0  0  0  0  0  0  0  0
   18.7790   20.6943   24.4681 H   0  0  0  0  0  0  0  0  0  0  0  0
   20.2021   19.9491   25.1960 H   0  0  0  0  0  0  0  0  0  0  0  0
   19.1636   18.6786   23.7516 C   0  0  0  0  0  0  0  0  0  0  0  0
   18.1219   18.4292   23.5075 H   0  0  0  0  0  0  0  0  0  0  0  0
   19.6248   17.7516   24.1193 H   0  0  0  0  0  0  0  0  0  0  0  0
   19.8761   19.1295   22.4541 C   0  0  0  0  0  0  0  0  0  0  0  0
   19.6891   18.3705   21.6839 H   0  0  0  0  0  0  0  0  0  0  0  0
   19.4227   20.0613   22.0897 H   0  0  0  0  0  0  0  0  0  0  0  0
   21.4032   19.3226   22.6247 C   0  0  0  0  0  0  0  0  0  0  0  0
   21.8555   18.3916   22.9926 H   0  0  0  0  0  0  0  0  0  0  0  0
   21.5918   20.0846   23.3915 H   0  0  0  0  0  0  0  0  0  0  0  0
   22.1156   19.7657   21.3253 C   0  0  0  0  0  0  0  0  0  0  0  0
   21.6580   20.6907   20.9480 H   0  0  0  0  0  0  0  0  0  0  0  0
   23.1597   20.0114   21.5635 H   0  0  0  0  0  0  0  0  0  0  0  0
   22.1011   18.6888   20.2186 C   0  0  0  0  0  0  0  0  0  0  0  0
   22.6998   19.0150   19.3583 H   0  0  0  0  0  0  0  0  0  0  0  0
   22.5228   17.7436   20.5844 H   0  0  0  0  0  0  0  0  0  0  0  0
   21.0828   18.4957   19.8590 H   0  0  0  0  0  0  0  0  0  0  0  0
  1  2  1  0  0  0  0
  1  3  2  0  0  0  0
  1  4  1  0  0  0  0
  4  5  1  0  0  0  0
  4  6  1  0  0  0  0
  4  7  1  0  0  0  0
  7  8  1  0  0  0  0
  7  9  1  0  0  0  0
  7 10  1  0  0  0  0
 10 11  1  0  0  0  0
 10 12  1  0  0  0  0
 10 13  1  0  0  0  0
 13 14  1  0  0  0  0
 13 15  1  0  0  0  0
 13 16  1  0  0  0  0
 16 17  1  0  0  0  0
 16 18  1  0  0  0  0
 16 19  1  0  0  0  0
 19 20  1  0  0  0  0
 19 21  1  0  0  0  0
 19 22  1  0  0  0  0
 22 23  1  0  0  0  0
 22 24  1  0  0  0  0
 22 25  1  0  0  0  0
M  END
> <VConfSearch Rank>
518

> <Conf_Id>
87

> <Delta U+W>
1.453

> <U+W>
-50.176

> <U>
9.763

> <W>
-59.940

> <W(PB)>
-62.392

> <W(SA)>
2.452

> <Valence>
8.883

> <Coulomb>
-0.122

> <VdW>
1.003

> <VdW6>
-9.782

> <VdW12>
10.785

> <Bond>
0.212

> <Angle>
2.940

> <Pdih>
5.730

> <Idih>
0.001

> <Tether>
0.000

$$$$
VeraChem MOL file


 25 24  0  0  0  0  0  0  0  0999 V2000     
   20.4819   22.3940   21.1771 C   0  0  0  0  0  0  0  0  0  0  0  0
   20.7162   23.2266   22.0307 O   0  5  0  0  0  0  0  0  0  0  0  0
   20.9336   22.4398   20.0499 O   0  0  0  0  0  0  0  0  0  0  0  0
   19.5864   21.2167   21.5464 C   0  0  0  0  0  0  0  0  0  0  0  0
   19.0266   20.9208   20.6511 H   0  0  0  0  0  0  0  0  0  0  0  0
   18.8554   21.5637   22.2865 H   0  0  0  0  0  0  0  0  0  0  0  0
   20.3797   20.0099   22.1051 C   0  0  0  0  0  0  0  0  0  0  0  0
   21.1132   19.6790   21.3570 H   0  0  0  0  0  0  0  0  0  0  0  0
   20.9464   20.3354   22.9875 H   0  0  0  0  0  0  0  0  0  0  0  0
   19.4478   18.8338   22.4778 C   0  0  0  0  0  0  0  0  0  0  0  0
   18.8399   18.5683   21.6023 H   0  0  0  0  0  0  0  0  0  0  0  0
   18.7402   19.1520   23.2545 H   0  0  0  0  0  0  0  0  0  0  0  0
   20.2092   17.5679   22.9448 C   0  0  0  0  0  0  0  0  0  0  0  0
   19.4829   16.7660   23.1316 H   0  0  0  0  0  0  0  0  0  0  0  0
   20.8406   17.2101   22.1203 H   0  0  0  0  0  0  0  0  0  0  0  0
   21.0980   17.7554   24.2029 C   0  0  0  0  0  0  0  0  0  0  0  0
   21.9258   18.4361   23.9649 H   0  0  0  0  0  0  0  0  0  0  0  0
   21.5671   16.7925   24.4463 H   0  0  0  0  0  0  0  0  0  0  0  0
   20.3606   18.2820   25.4587 C   0  0  0  0  0  0  0  0  0  0  0  0
   21.0911   18.3977   26.2711 H   0  0  0  0  0  0  0  0  0  0  0  0
   19.9579   19.2855   25.2673 H   0  0  0  0  0  0  0  0  0  0  0  0
   19.2281   17.3482   25.9377 C   0  0  0  0  0  0  0  0  0  0  0  0
   19.6061   16.3338   26.1196 H   0  0  0  0  0  0  0  0  0  0  0  0
   18.7930   17.7206   26.8741 H   0  0  0  0  0  0  0  0  0  0  0  0
   18.4213   17.2876   25.1966 H   0  0  0  0  0  0  0  0  0  0  0  0
  1  2  1  0  0  0  0
  1  3  2  0  0  0  0
  1  4  1  0  0  0  0
  4  5  1  0  0  0  0
  4  6  1  0  0  0  0
  4  7  1  0  0  0  0
  7  8  1  0  0  0  0
  7  9  1  0  0  0  0
  7 10  1  0  0  0  0
 10 11  1  0  0  0  0
 10 12  1  0  0  0  0
 10 13  1  0  0  0  0
 13 14  1  0  0  0  0
 13 15  1  0  0  0  0
 13 16  1  0  0  0  0
 16 17  1  0  0  0  0
 16 18  1  0  0  0  0
 16 19  1  0  0  0  0
 19 20  1  0  0  0  0
 19 21  1  0  0  0  0
 19 22  1  0  0  0  0
 22 23  1  0  0  0  0
 22 24  1  0  0  0  0
 22 25  1  0  0  0  0
M  END
> <VConfSearch Rank>
519

> <Conf_Id>
29

> <Delta U+W>
0.850

> <U+W>
-50.780

> <U>
8.646

> <W>
-59.426

> <W(PB)>
-61.868

> <W(SA)>
2.442

> <Valence>
8.924

> <Coulomb>
-1.171

> <VdW>
0.894

> <VdW6>
-10.223

> <VdW12>
11.117

> <Bond>
0.231

> <Angle>
3.232

> <Pdih>
5.461

> <Idih>
0.001

> <Tether>
0.000

$$$$
VeraChem MOL file


 25 24  0  0  0  0  0  0  0  0999 V2000     
   17.7610   16.0593   22.3423 C   0  0  0  0  0  0  0  0  0  0  0  0
   18.3860   15.5896   21.4120 O   0  5  0  0  0  0  0  0  0  0  0  0
   16.5505   16.0066   22.4351 O   0  0  0  0  0  0  0  0  0  0  0  0
   18.5370   16.7709   23.4448 C   0  0  0  0  0  0  0  0  0  0  0  0
   19.5147   16.2839   23.5421 H   0  0  0  0  0  0  0  0  0  0  0  0
   18.0028   16.6184   24.3902 H   0  0  0  0  0  0  0  0  0  0  0  0
   18.7196   18.2841   23.1711 C   0  0  0  0  0  0  0  0  0  0  0  0
   19.2382   18.4113   22.2115 H   0  0  0  0  0  0  0  0  0  0  0  0
   17.7332   18.7567   23.0677 H   0  0  0  0  0  0  0  0  0  0  0  0
   19.5154   18.9793   24.2998 C   0  0  0  0  0  0  0  0  0  0  0  0
   20.5162   18.5345   24.3773 H   0  0  0  0  0  0  0  0  0  0  0  0
   19.0195   18.7826   25.2600 H   0  0  0  0  0  0  0  0  0  0  0  0
   19.6330   20.5133   24.1168 C   0  0  0  0  0  0  0  0  0  0  0  0
   18.6256   20.9505   24.1372 H   0  0  0  0  0  0  0  0  0  0  0  0
   20.1568   20.9347   24.9848 H   0  0  0  0  0  0  0  0  0  0  0  0
   20.3455   20.9731   22.8173 C   0  0  0  0  0  0  0  0  0  0  0  0
   20.3851   22.0707   22.8099 H   0  0  0  0  0  0  0  0  0  0  0  0
   19.7343   20.6932   21.9493 H   0  0  0  0  0  0  0  0  0  0  0  0
   21.7790   20.4213   22.6206 C   0  0  0  0  0  0  0  0  0  0  0  0
   21.7541   19.3267   22.5355 H   0  0  0  0  0  0  0  0  0  0  0  0
   22.1684   20.7916   21.6624 H   0  0  0  0  0  0  0  0  0  0  0  0
   22.7518   20.8351   23.7459 C   0  0  0  0  0  0  0  0  0  0  0  0
   22.4583   20.3961   24.7077 H   0  0  0  0  0  0  0  0  0  0  0  0
   23.7695   20.4917   23.5197 H   0  0  0  0  0  0  0  0  0  0  0  0
   22.7798   21.9265   23.8592 H   0  0  0  0  0  0  0  0  0  0  0  0
  1  2  1  0  0  0  0
  1  3  2  0  0  0  0
  1  4  1  0  0  0  0
  4  5  1  0  0  0  0
  4  6  1  0  0  0  0
  4  7  1  0  0  0  0
  7  8  1  0  0  0  0
  7  9  1  0  0  0  0
  7 10  1  0  0  0  0
 10 11  1  0  0  0  0
 10 12  1  0  0  0  0
 10 13  1  0  0  0  0
 13 14  1  0  0  0  0
 13 15  1  0  0  0  0
 13 16  1  0  0  0  0
 16 17  1  0  0  0  0
 16 18  1  0  0  0  0
 16 19  1  0  0  0  0
 19 20  1  0  0  0  0
 19 21  1  0  0  0  0
 19 22  1  0  0  0  0
 22 23  1  0  0  0  0
 22 24  1  0  0  0  0
 22 25  1  0  0  0  0
M  END
> <VConfSearch Rank>
520

> <Conf_Id>
30

> <Delta U+W>
0.843

> <U+W>
-50.787

> <U>
8.647

> <W>
-59.434

> <W(PB)>
-61.861

> <W(SA)>
2.428

> <Valence>
8.924

> <Coulomb>
-1.170

> <VdW>
0.894

> <VdW6>
-10.224

> <VdW12>
11.118

> <Bond>
0.231

> <Angle>
3.232

> <Pdih>
5.460

> <Idih>
0.000

> <Tether>
0.000

$$$$
VeraChem MOL file


 25 24  0  0  0  0  0  0  0  0999 V2000     
   18.0758   15.4795   25.2458 C   0  0  0  0  0  0  0  0  0  0  0  0
   17.5347   15.0912   24.2285 O   0  5  0  0  0  0  0  0  0  0  0  0
   17.9671   14.9111   26.3141 O   0  0  0  0  0  0  0  0  0  0  0  0
   18.9407   16.7406   25.2111 C   0  0  0  0  0  0  0  0  0  0  0  0
   19.9398   16.4615   25.5657 H   0  0  0  0  0  0  0  0  0  0  0  0
   18.5247   17.4425   25.9434 H   0  0  0  0  0  0  0  0  0  0  0  0
   19.0495   17.4310   23.8255 C   0  0  0  0  0  0  0  0  0  0  0  0
   19.4609   16.7202   23.0954 H   0  0  0  0  0  0  0  0  0  0  0  0
   18.0445   17.7021   23.4735 H   0  0  0  0  0  0  0  0  0  0  0  0
   19.9386   18.6924   23.8806 C   0  0  0  0  0  0  0  0  0  0  0  0
   20.9427   18.4189   24.2328 H   0  0  0  0  0  0  0  0  0  0  0  0
   19.5254   19.4014   24.6111 H   0  0  0  0  0  0  0  0  0  0  0  0
   20.0455   19.3776   22.5012 C   0  0  0  0  0  0  0  0  0  0  0  0
   20.4587   18.6687   21.7705 H   0  0  0  0  0  0  0  0  0  0  0  0
   19.0415   19.6512   22.1487 H   0  0  0  0  0  0  0  0  0  0  0  0
   20.9343   20.6389   22.5555 C   0  0  0  0  0  0  0  0  0  0  0  0
   21.9384   20.3654   22.9079 H   0  0  0  0  0  0  0  0  0  0  0  0
   20.5212   21.3479   23.2861 H   0  0  0  0  0  0  0  0  0  0  0  0
   21.0412   21.3238   21.1768 C   0  0  0  0  0  0  0  0  0  0  0  0
   21.4559   20.6180   20.4437 H   0  0  0  0  0  0  0  0  0  0  0  0
   20.0388   21.6005   20.8219 H   0  0  0  0  0  0  0  0  0  0  0  0
   21.9296   22.5828   21.2352 C   0  0  0  0  0  0  0  0  0  0  0  0
   22.9483   22.3301   21.5575 H   0  0  0  0  0  0  0  0  0  0  0  0
   21.9945   23.0567   20.2472 H   0  0  0  0  0  0  0  0  0  0  0  0
   21.5205   23.3200   21.9385 H   0  0  0  0  0  0  0  0  0  0  0  0
  1  2  1  0  0  0  0
  1  3  2  0  0  0  0
  1  4  1  0  0  0  0
  4  5  1  0  0  0  0
  4  6  1  0  0  0  0
  4  7  1  0  0  0  0
  7  8  1  0  0  0  0
  7  9  1  0  0  0  0
  7 10  1  0  0  0  0
 10 11  1  0  0  0  0
 10 12  1  0  0  0  0
 10 13  1  0  0  0  0
 13 14  1  0  0  0  0
 13 15  1  0  0  0  0
 13 16  1  0  0  0  0
 16 17  1  0  0  0  0
 16 18  1  0  0  0  0
 16 19  1  0  0  0  0
 19 20  1  0  0  0  0
 19 21  1  0  0  0  0
 19 22  1  0  0  0  0
 22 23  1  0  0  0  0
 22 24  1  0  0  0  0
 22 25  1  0  0  0  0
M  END
> <VConfSearch Rank>
521

> <Conf_Id>
0

> <Delta U+W>
0.000

> <U+W>
-51.629

> <U>
6.586

> <W>
-58.216

> <W(PB)>
-60.757

> <W(SA)>
2.541

> <Valence>
8.027

> <Coulomb>
-2.892

> <VdW>
1.451

> <VdW6>
-7.931

> <VdW12>
9.383

> <Bond>
0.149

> <Angle>
2.726

> <Pdih>
5.152

> <Idih>
0.000

> <Tether>
0.000

$$$$
VeraChem MOL file


 25 24  0  0  0  0  0  0  0  0999 V2000     
   22.8916   22.9104   23.2045 C   0  0  0  0  0  0  0  0  0  0  0  0
   23.1482   23.3640   22.1068 O   0  5  0  0  0  0  0  0  0  0  0  0
   22.7943   23.5891   24.2077 O   0  0  0  0  0  0  0  0  0  0  0  0
   22.6561   21.4091   23.3257 C   0  0  0  0  0  0  0  0  0  0  0  0
   22.9974   21.0897   24.3177 H   0  0  0  0  0  0  0  0  0  0  0  0
   23.2896   20.9042   22.5866 H   0  0  0  0  0  0  0  0  0  0  0  0
   21.1732   21.0144   23.1177 C   0  0  0  0  0  0  0  0  0  0  0  0
   20.5511   21.5383   23.8566 H   0  0  0  0  0  0  0  0  0  0  0  0
   20.8433   21.3529   22.1256 H   0  0  0  0  0  0  0  0  0  0  0  0
   20.9606   19.4904   23.2450 C   0  0  0  0  0  0  0  0  0  0  0  0
   21.2923   19.1550   24.2373 H   0  0  0  0  0  0  0  0  0  0  0  0
   21.5848   18.9695   22.5060 H   0  0  0  0  0  0  0  0  0  0  0  0
   19.4815   19.0999   23.0370 C   0  0  0  0  0  0  0  0  0  0  0  0
   18.8571   19.6205   23.7760 H   0  0  0  0  0  0  0  0  0  0  0  0
   19.1496   19.4351   22.0447 H   0  0  0  0  0  0  0  0  0  0  0  0
   19.2682   17.5760   23.1641 C   0  0  0  0  0  0  0  0  0  0  0  0
   19.5999   17.2404   24.1563 H   0  0  0  0  0  0  0  0  0  0  0  0
   19.8925   17.0550   22.4253 H   0  0  0  0  0  0  0  0  0  0  0  0
   17.7898   17.1855   22.9561 C   0  0  0  0  0  0  0  0  0  0  0  0
   17.1624   17.7033   23.6948 H   0  0  0  0  0  0  0  0  0  0  0  0
   17.4549   17.5179   21.9637 H   0  0  0  0  0  0  0  0  0  0  0  0
   17.5809   15.6631   23.0839 C   0  0  0  0  0  0  0  0  0  0  0  0
   16.5250   15.4034   22.9332 H   0  0  0  0  0  0  0  0  0  0  0  0
   18.1733   15.1211   22.3351 H   0  0  0  0  0  0  0  0  0  0  0  0
   17.8786   15.3079   24.0792 H   0  0  0  0  0  0  0  0  0  0  0  0
  1  2  1  0  0  0  0
  1  3  2  0  0  0  0
  1  4  1  0  0  0  0
  4  5  1  0  0  0  0
  4  6  1  0  0  0  0
  4  7  1  0  0  0  0
  7  8  1  0  0  0  0
  7  9  1  0  0  0  0
  7 10  1  0  0  0  0
 10 11  1  0  0  0  0
 10 12  1  0  0  0  0
 10 13  1  0  0  0  0
 13 14  1  0  0  0  0
 13 15  1  0  0  0  0
 13 16  1  0  0  0  0
 16 17  1  0  0  0  0
 16 18  1  0  0  0  0
 16 19  1  0  0  0  0
 19 20  1  0  0  0  0
 19 21  1  0  0  0  0
 19 22  1  0  0  0  0
 22 23  1  0  0  0  0
 22 24  1  0  0  0  0
 22 25  1  0  0  0  0
M  END
> <VConfSearch Rank>
522

> <Conf_Id>
27

> <Delta U+W>
-1.297

> <U+W>
-52.926

> <U>
5.617

> <W>
-58.543

> <W(PB)>
-61.065

> <W(SA)>
2.522

> <Valence>
7.531

> <Coulomb>
-2.818

> <VdW>
0.904

> <VdW6>
-7.640

> <VdW12>
8.544

> <Bond>
0.115

> <Angle>
2.271

> <Pdih>
5.144

> <Idih>
0.001

> <Tether>
0.000

$$$$
VeraChem MOL file


 25 24  0  0  0  0  0  0  0  0999 V2000     
   22.0666   18.5564   19.7980 C   0  0  0  0  0  0  0  0  0  0  0  0
   23.2613   18.3559   19.8955 O   0  5  0  0  0  0  0  0  0  0  0  0
   21.2751   17.7248   19.3994 O   0  0  0  0  0  0  0  0  0  0  0  0
   21.5356   19.9348   20.1817 C   0  0  0  0  0  0  0  0  0  0  0  0
   20.5468   20.0682   19.7265 H   0  0  0  0  0  0  0  0  0  0  0  0
   22.1981   20.6799   19.7259 H   0  0  0  0  0  0  0  0  0  0  0  0
   21.4582   20.1769   21.7116 C   0  0  0  0  0  0  0  0  0  0  0  0
   22.4494   20.0125   22.1567 H   0  0  0  0  0  0  0  0  0  0  0  0
   21.2006   21.2291   21.8933 H   0  0  0  0  0  0  0  0  0  0  0  0
   20.4163   19.2703   22.4047 C   0  0  0  0  0  0  0  0  0  0  0  0
   20.6771   18.2153   22.2422 H   0  0  0  0  0  0  0  0  0  0  0  0
   19.4300   19.4284   21.9473 H   0  0  0  0  0  0  0  0  0  0  0  0
   20.3333   19.5503   23.9208 C   0  0  0  0  0  0  0  0  0  0  0  0
   21.3200   19.3919   24.3773 H   0  0  0  0  0  0  0  0  0  0  0  0
   20.0697   20.6040   24.0857 H   0  0  0  0  0  0  0  0  0  0  0  0
   19.2931   18.6442   24.6142 C   0  0  0  0  0  0  0  0  0  0  0  0
   19.5565   17.5904   24.4492 H   0  0  0  0  0  0  0  0  0  0  0  0
   18.3064   18.8022   24.1576 H   0  0  0  0  0  0  0  0  0  0  0  0
   19.2101   18.9234   26.1296 C   0  0  0  0  0  0  0  0  0  0  0  0
   20.1951   18.7645   26.5900 H   0  0  0  0  0  0  0  0  0  0  0  0
   18.9449   19.9763   26.2984 H   0  0  0  0  0  0  0  0  0  0  0  0
   18.1704   18.0164   26.8183 C   0  0  0  0  0  0  0  0  0  0  0  0
   18.4286   16.9568   26.6921 H   0  0  0  0  0  0  0  0  0  0  0  0
   18.1246   18.2282   27.8944 H   0  0  0  0  0  0  0  0  0  0  0  0
   17.1689   18.1777   26.3982 H   0  0  0  0  0  0  0  0  0  0  0  0
  1  2  1  0  0  0  0
  1  3  2  0  0  0  0
  1  4  1  0  0  0  0
  4  5  1  0  0  0  0
  4  6  1  0  0  0  0
  4  7  1  0  0  0  0
  7  8  1  0  0  0  0
  7  9  1  0  0  0  0
  7 10  1  0  0  0  0
 10 11  1  0  0  0  0
 10 12  1  0  0  0  0
 10 13  1  0  0  0  0
 13 14  1  0  0  0  0
 13 15  1  0  0  0  0
 13 16  1  0  0  0  0
 16 17  1  0  0  0  0
 16 18  1  0  0  0  0
 16 19  1  0  0  0  0
 19 20  1  0  0  0  0
 19 21  1  0  0  0  0
 19 22  1  0  0  0  0
 22 23  1  0  0  0  0
 22 24  1  0  0  0  0
 22 25  1  0  0  0  0
M  END
> <VConfSearch Rank>
523

> <Conf_Id>
37

> <Delta U+W>
-0.230

> <U+W>
-51.860

> <U>
7.816

> <W>
-59.675

> <W(PB)>
-62.180

> <W(SA)>
2.505

> <Valence>
7.785

> <Coulomb>
-0.713

> <VdW>
0.744

> <VdW6>
-8.514

> <VdW12>
9.259

> <Bond>
0.136

> <Angle>
2.433

> <Pdih>
5.216

> <Idih>
0.000

> <Tether>
0.000

$$$$
VeraChem MOL file


 25 24  0  0  0  0  0  0  0  0999 V2000     
   22.9200   17.4174   21.3460 C   0  0  0  0  0  0  0  0  0  0  0  0
   23.7941   16.9814   22.0691 O   0  5  0  0  0  0  0  0  0  0  0  0
   23.0958   18.3115   20.5418 O   0  0  0  0  0  0  0  0  0  0  0  0
   21.5299   16.7953   21.4434 C   0  0  0  0  0  0  0  0  0  0  0  0
   21.6582   15.7066   21.4578 H   0  0  0  0  0  0  0  0  0  0  0  0
   20.9732   17.0373   20.5299 H   0  0  0  0  0  0  0  0  0  0  0  0
   20.7269   17.2391   22.6936 C   0  0  0  0  0  0  0  0  0  0  0  0
   19.8058   16.6439   22.7554 H   0  0  0  0  0  0  0  0  0  0  0  0
   21.3092   17.0155   23.5984 H   0  0  0  0  0  0  0  0  0  0  0  0
   20.3623   18.7404   22.6636 C   0  0  0  0  0  0  0  0  0  0  0  0
   19.7920   18.9614   21.7510 H   0  0  0  0  0  0  0  0  0  0  0  0
   21.2798   19.3434   22.6194 H   0  0  0  0  0  0  0  0  0  0  0  0
   19.5366   19.1531   23.9012 C   0  0  0  0  0  0  0  0  0  0  0  0
   18.6172   18.5534   23.9459 H   0  0  0  0  0  0  0  0  0  0  0  0
   20.1078   18.9318   24.8133 H   0  0  0  0  0  0  0  0  0  0  0  0
   19.1725   20.6533   23.8723 C   0  0  0  0  0  0  0  0  0  0  0  0
   18.6016   20.8748   22.9601 H   0  0  0  0  0  0  0  0  0  0  0  0
   20.0919   21.2531   23.8274 H   0  0  0  0  0  0  0  0  0  0  0  0
   18.3478   21.0664   25.1094 C   0  0  0  0  0  0  0  0  0  0  0  0
   17.4263   20.4695   25.1565 H   0  0  0  0  0  0  0  0  0  0  0  0
   18.9167   20.8480   26.0237 H   0  0  0  0  0  0  0  0  0  0  0  0
   17.9863   22.5650   25.0766 C   0  0  0  0  0  0  0  0  0  0  0  0
   17.3893   22.8058   24.1872 H   0  0  0  0  0  0  0  0  0  0  0  0
   17.4005   22.8412   25.9630 H   0  0  0  0  0  0  0  0  0  0  0  0
   18.8909   23.1870   25.0610 H   0  0  0  0  0  0  0  0  0  0  0  0
  1  2  1  0  0  0  0
  1  3  2  0  0  0  0
  1  4  1  0  0  0  0
  4  5  1  0  0  0  0
  4  6  1  0  0  0  0
  4  7  1  0  0  0  0
  7  8  1  0  0  0  0
  7  9  1  0  0  0  0
  7 10  1  0  0  0  0
 10 11  1  0  0  0  0
 10 12  1  0  0  0  0
 10 13  1  0  0  0  0
 13 14  1  0  0  0  0
 13 15  1  0  0  0  0
 13 16  1  0  0  0  0
 16 17  1  0  0  0  0
 16 18  1  0  0  0  0
 16 19  1  0  0  0  0
 19 20  1  0  0  0  0
 19 21  1  0  0  0  0
 19 22  1  0  0  0  0
 22 23  1  0  0  0  0
 22 24  1  0  0  0  0
 22 25  1  0  0  0  0
M  END
> <VConfSearch Rank>
524

> <Conf_Id>
54

> <Delta U+W>
-0.224

> <U+W>
-51.854

> <U>
7.816

> <W>
-59.670

> <W(PB)>
-62.157

> <W(SA)>
2.487

> <Valence>
7.785

> <Coulomb>
-0.713

> <VdW>
0.744

> <VdW6>
-8.515

> <VdW12>
9.259

> <Bond>
0.136

> <Angle>
2.433

> <Pdih>
5.215

> <Idih>
0.000

> <Tether>
0.000

$$$$
VeraChem MOL file


 25 24  0  0  0  0  0  0  0  0999 V2000     
   17.7399   16.4425   21.4351 C   0  0  0  0  0  0  0  0  0  0  0  0
   17.4391   15.6375   22.2945 O   0  5  0  0  0  0  0  0  0  0  0  0
   16.9302   16.9870   20.7105 O   0  0  0  0  0  0  0  0  0  0  0  0
   19.2166   16.7756   21.2411 C   0  0  0  0  0  0  0  0  0  0  0  0
   19.4206   16.7412   20.1644 H   0  0  0  0  0  0  0  0  0  0  0  0
   19.8183   15.9839   21.7036 H   0  0  0  0  0  0  0  0  0  0  0  0
   19.6316   18.1607   21.8023 C   0  0  0  0  0  0  0  0  0  0  0  0
   20.6584   18.3721   21.4786 H   0  0  0  0  0  0  0  0  0  0  0  0
   18.9928   18.9382   21.3609 H   0  0  0  0  0  0  0  0  0  0  0  0
   19.5461   18.2254   23.3465 C   0  0  0  0  0  0  0  0  0  0  0  0
   20.2198   17.4782   23.7875 H   0  0  0  0  0  0  0  0  0  0  0  0
   18.5305   17.9493   23.6617 H   0  0  0  0  0  0  0  0  0  0  0  0
   19.8701   19.6229   23.9272 C   0  0  0  0  0  0  0  0  0  0  0  0
   19.2088   20.3725   23.4719 H   0  0  0  0  0  0  0  0  0  0  0  0
   19.6316   19.6073   24.9982 H   0  0  0  0  0  0  0  0  0  0  0  0
   21.3483   20.0443   23.7371 C   0  0  0  0  0  0  0  0  0  0  0  0
   21.5873   20.0678   22.6665 H   0  0  0  0  0  0  0  0  0  0  0  0
   22.0092   19.2917   24.1881 H   0  0  0  0  0  0  0  0  0  0  0  0
   21.6709   21.4367   24.3284 C   0  0  0  0  0  0  0  0  0  0  0  0
   22.6913   21.7162   24.0321 H   0  0  0  0  0  0  0  0  0  0  0  0
   21.0032   22.1905   23.8888 H   0  0  0  0  0  0  0  0  0  0  0  0
   21.5718   21.4883   25.8687 C   0  0  0  0  0  0  0  0  0  0  0  0
   20.5406   21.3357   26.2104 H   0  0  0  0  0  0  0  0  0  0  0  0
   22.2053   20.7191   26.3293 H   0  0  0  0  0  0  0  0  0  0  0  0
   21.9029   22.4662   26.2416 H   0  0  0  0  0  0  0  0  0  0  0  0
  1  2  1  0  0  0  0
  1  3  2  0  0  0  0
  1  4  1  0  0  0  0
  4  5  1  0  0  0  0
  4  6  1  0  0  0  0
  4  7  1  0  0  0  0
  7  8  1  0  0  0  0
  7  9  1  0  0  0  0
  7 10  1  0  0  0  0
 10 11  1  0  0  0  0
 10 12  1  0  0  0  0
 10 13  1  0  0  0  0
 13 14  1  0  0  0  0
 13 15  1  0  0  0  0
 13 16  1  0  0  0  0
 16 17  1  0  0  0  0
 16 18  1  0  0  0  0
 16 19  1  0  0  0  0
 19 20  1  0  0  0  0
 19 21  1  0  0  0  0
 19 22  1  0  0  0  0
 22 23  1  0  0  0  0
 22 24  1  0  0  0  0
 22 25  1  0  0  0  0
M  END
> <VConfSearch Rank>
525

> <Conf_Id>
101

> <Delta U+W>
1.534

> <U+W>
-50.095

> <U>
9.416

> <W>
-59.512

> <W(PB)>
-61.988

> <W(SA)>
2.476

> <Valence>
8.939

> <Coulomb>
-0.615

> <VdW>
1.092

> <VdW6>
-9.710

> <VdW12>
10.802

> <Bond>
0.216

> <Angle>
2.979

> <Pdih>
5.743

> <Idih>
0.000

> <Tether>
0.000

$$$$
VeraChem MOL file


 25 24  0  0  0  0  0  0  0  0999 V2000     
   16.8585   19.1453   20.6055 C   0  0  0  0  0  0  0  0  0  0  0  0
   17.0879   19.9660   19.7392 O   0  5  0  0  0  0  0  0  0  0  0  0
   16.0711   18.2292   20.4731 O   0  0  0  0  0  0  0  0  0  0  0  0
   17.6170   19.2578   21.9232 C   0  0  0  0  0  0  0  0  0  0  0  0
   16.9678   18.8804   22.7222 H   0  0  0  0  0  0  0  0  0  0  0  0
   17.7883   20.3222   22.1180 H   0  0  0  0  0  0  0  0  0  0  0  0
   18.9583   18.4792   21.9107 C   0  0  0  0  0  0  0  0  0  0  0  0
   18.7580   17.4398   21.6159 H   0  0  0  0  0  0  0  0  0  0  0  0
   19.6194   18.8979   21.1393 H   0  0  0  0  0  0  0  0  0  0  0  0
   19.6861   18.4737   23.2763 C   0  0  0  0  0  0  0  0  0  0  0  0
   20.5387   17.7865   23.2026 H   0  0  0  0  0  0  0  0  0  0  0  0
   19.0200   18.0639   24.0476 H   0  0  0  0  0  0  0  0  0  0  0  0
   20.1916   19.8716   23.7102 C   0  0  0  0  0  0  0  0  0  0  0  0
   20.8580   20.2808   22.9397 H   0  0  0  0  0  0  0  0  0  0  0  0
   19.3422   20.5628   23.7764 H   0  0  0  0  0  0  0  0  0  0  0  0
   20.9088   19.8710   25.0842 C   0  0  0  0  0  0  0  0  0  0  0  0
   20.1993   19.5410   25.8552 H   0  0  0  0  0  0  0  0  0  0  0  0
   21.1748   20.9054   25.3410 H   0  0  0  0  0  0  0  0  0  0  0  0
   22.1828   18.9941   25.1712 C   0  0  0  0  0  0  0  0  0  0  0  0
   22.5928   19.0745   26.1873 H   0  0  0  0  0  0  0  0  0  0  0  0
   21.9259   17.9358   25.0323 H   0  0  0  0  0  0  0  0  0  0  0  0
   23.2772   19.4016   24.1612 C   0  0  0  0  0  0  0  0  0  0  0  0
   23.5329   20.4640   24.2661 H   0  0  0  0  0  0  0  0  0  0  0  0
   24.1903   18.8154   24.3266 H   0  0  0  0  0  0  0  0  0  0  0  0
   22.9516   19.2253   23.1282 H   0  0  0  0  0  0  0  0  0  0  0  0
  1  2  1  0  0  0  0
  1  3  2  0  0  0  0
  1  4  1  0  0  0  0
  4  5  1  0  0  0  0
  4  6  1  0  0  0  0
  4  7  1  0  0  0  0
  7  8  1  0  0  0  0
  7  9  1  0  0  0  0
  7 10  1  0  0  0  0
 10 11  1  0  0  0  0
 10 12  1  0  0  0  0
 10 13  1  0  0  0  0
 13 14  1  0  0  0  0
 13 15  1  0  0  0  0
 13 16  1  0  0  0  0
 16 17  1  0  0  0  0
 16 18  1  0  0  0  0
 16 19  1  0  0  0  0
 19 20  1  0  0  0  0
 19 21  1  0  0  0  0
 19 22  1  0  0  0  0
 22 23  1  0  0  0  0
 22 24  1  0  0  0  0
 22 25  1  0  0  0  0
M  END
> <VConfSearch Rank>
526

> <Conf_Id>
75

> <Delta U+W>
1.014

> <U+W>
-50.615

> <U>
8.474

> <W>
-59.089

> <W(PB)>
-61.530

> <W(SA)>
2.441

> <Valence>
9.080

> <Coulomb>
-1.772

> <VdW>
1.165

> <VdW6>
-9.830

> <VdW12>
10.996

> <Bond>
0.240

> <Angle>
3.225

> <Pdih>
5.615

> <Idih>
0.001

> <Tether>
0.000

$$$$
VeraChem MOL file


 25 24  0  0  0  0  0  0  0  0999 V2000     
   19.5949   15.9303   20.6055 C   0  0  0  0  0  0  0  0  0  0  0  0
   18.6848   15.2362   21.0139 O   0  5  0  0  0  0  0  0  0  0  0  0
   19.9265   15.9874   19.4378 O   0  0  0  0  0  0  0  0  0  0  0  0
   20.3486   16.7937   21.6108 C   0  0  0  0  0  0  0  0  0  0  0  0
   21.3881   16.8813   21.2728 H   0  0  0  0  0  0  0  0  0  0  0  0
   20.3632   16.2643   22.5710 H   0  0  0  0  0  0  0  0  0  0  0  0
   19.7227   18.1995   21.7848 C   0  0  0  0  0  0  0  0  0  0  0  0
   19.7035   18.7113   20.8126 H   0  0  0  0  0  0  0  0  0  0  0  0
   18.6786   18.0938   22.1106 H   0  0  0  0  0  0  0  0  0  0  0  0
   20.5024   19.0532   22.8082 C   0  0  0  0  0  0  0  0  0  0  0  0
   21.5454   19.1557   22.4788 H   0  0  0  0  0  0  0  0  0  0  0  0
   20.5270   18.5310   23.7720 H   0  0  0  0  0  0  0  0  0  0  0  0
   19.8770   20.4582   22.9740 C   0  0  0  0  0  0  0  0  0  0  0  0
   19.8994   20.9598   21.9969 H   0  0  0  0  0  0  0  0  0  0  0  0
   18.8173   20.3750   23.2512 H   0  0  0  0  0  0  0  0  0  0  0  0
   20.6260   21.3470   23.9995 C   0  0  0  0  0  0  0  0  0  0  0  0
   20.6047   22.3825   23.6334 H   0  0  0  0  0  0  0  0  0  0  0  0
   21.6876   21.0677   24.0423 H   0  0  0  0  0  0  0  0  0  0  0  0
   20.0175   21.3443   25.4237 C   0  0  0  0  0  0  0  0  0  0  0  0
   20.5724   22.0641   26.0411 H   0  0  0  0  0  0  0  0  0  0  0  0
   18.9820   21.7095   25.3822 H   0  0  0  0  0  0  0  0  0  0  0  0
   20.0472   19.9687   26.1217 C   0  0  0  0  0  0  0  0  0  0  0  0
   21.0608   19.5473   26.1193 H   0  0  0  0  0  0  0  0  0  0  0  0
   19.7209   20.0608   27.1656 H   0  0  0  0  0  0  0  0  0  0  0  0
   19.3726   19.2593   25.6264 H   0  0  0  0  0  0  0  0  0  0  0  0
  1  2  1  0  0  0  0
  1  3  2  0  0  0  0
  1  4  1  0  0  0  0
  4  5  1  0  0  0  0
  4  6  1  0  0  0  0
  4  7  1  0  0  0  0
  7  8  1  0  0  0  0
  7  9  1  0  0  0  0
  7 10  1  0  0  0  0
 10 11  1  0  0  0  0
 10 12  1  0  0  0  0
 10 13  1  0  0  0  0
 13 14  1  0  0  0  0
 13 15  1  0  0  0  0
 13 16  1  0  0  0  0
 16 17  1  0  0  0  0
 16 18  1  0  0  0  0
 16 19  1  0  0  0  0
 19 20  1  0  0  0  0
 19 21  1  0  0  0  0
 19 22  1  0  0  0  0
 22 23  1  0  0  0  0
 22 24  1  0  0  0  0
 22 25  1  0  0  0  0
M  END
> <VConfSearch Rank>
527

> <Conf_Id>
125

> <Delta U+W>
2.314

> <U+W>
-49.315

> <U>
9.740

> <W>
-59.054

> <W(PB)>
-61.488

> <W(SA)>
2.433

> <Valence>
10.506

> <Coulomb>
-1.761

> <VdW>
0.994

> <VdW6>
-9.209

> <VdW12>
10.203

> <Bond>
0.193

> <Angle>
2.979

> <Pdih>
7.334

> <Idih>
0.001

> <Tether>
0.000

$$$$
VeraChem MOL file


 25 24  0  0  0  0  0  0  0  0999 V2000     
   20.7545   18.4660   19.3197 C   0  0  0  0  0  0  0  0  0  0  0  0
   21.7171   19.1489   19.0302 O   0  5  0  0  0  0  0  0  0  0  0  0
   20.0890   17.8601   18.5032 O   0  0  0  0  0  0  0  0  0  0  0  0
   20.3444   18.3841   20.7857 C   0  0  0  0  0  0  0  0  0  0  0  0
   21.2564   18.4440   21.3902 H   0  0  0  0  0  0  0  0  0  0  0  0
   19.9018   17.3962   20.9604 H   0  0  0  0  0  0  0  0  0  0  0  0
   19.3446   19.4980   21.1917 C   0  0  0  0  0  0  0  0  0  0  0  0
   19.8161   20.4812   21.0565 H   0  0  0  0  0  0  0  0  0  0  0  0
   18.4867   19.4687   20.5056 H   0  0  0  0  0  0  0  0  0  0  0  0
   18.8237   19.3628   22.6424 C   0  0  0  0  0  0  0  0  0  0  0  0
   18.3444   18.3827   22.7715 H   0  0  0  0  0  0  0  0  0  0  0  0
   18.0397   20.1156   22.8021 H   0  0  0  0  0  0  0  0  0  0  0  0
   19.9255   19.5483   23.7114 C   0  0  0  0  0  0  0  0  0  0  0  0
   20.6792   18.7592   23.6029 H   0  0  0  0  0  0  0  0  0  0  0  0
   20.4362   20.5072   23.5494 H   0  0  0  0  0  0  0  0  0  0  0  0
   19.3421   19.5098   25.1430 C   0  0  0  0  0  0  0  0  0  0  0  0
   18.8714   18.5339   25.3244 H   0  0  0  0  0  0  0  0  0  0  0  0
   18.5439   20.2602   25.2245 H   0  0  0  0  0  0  0  0  0  0  0  0
   20.3924   19.7900   26.2431 C   0  0  0  0  0  0  0  0  0  0  0  0
   20.8615   20.7680   26.0677 H   0  0  0  0  0  0  0  0  0  0  0  0
   19.8778   19.8621   27.2112 H   0  0  0  0  0  0  0  0  0  0  0  0
   21.4827   18.7008   26.3400 C   0  0  0  0  0  0  0  0  0  0  0  0
   22.1020   18.6718   25.4348 H   0  0  0  0  0  0  0  0  0  0  0  0
   22.1477   18.8981   27.1907 H   0  0  0  0  0  0  0  0  0  0  0  0
   21.0353   17.7087   26.4837 H   0  0  0  0  0  0  0  0  0  0  0  0
  1  2  1  0  0  0  0
  1  3  2  0  0  0  0
  1  4  1  0  0  0  0
  4  5  1  0  0  0  0
  4  6  1  0  0  0  0
  4  7  1  0  0  0  0
  7  8  1  0  0  0  0
  7  9  1  0  0  0  0
  7 10  1  0  0  0  0
 10 11  1  0  0  0  0
 10 12  1  0  0  0  0
 10 13  1  0  0  0  0
 13 14  1  0  0  0  0
 13 15  1  0  0  0  0
 13 16  1  0  0  0  0
 16 17  1  0  0  0  0
 16 18  1  0  0  0  0
 16 19  1  0  0  0  0
 19 20  1  0  0  0  0
 19 21  1  0  0  0  0
 19 22  1  0  0  0  0
 22 23  1  0  0  0  0
 22 24  1  0  0  0  0
 22 25  1  0  0  0  0
M  END
> <VConfSearch Rank>
528

> <Conf_Id>
4

> <Delta U+W>
0.189

> <U+W>
-51.441

> <U>
7.701

> <W>
-59.141

> <W(PB)>
-61.609

> <W(SA)>
2.467

> <Valence>
8.550

> <Coulomb>
-1.988

> <VdW>
1.139

> <VdW6>
-8.988

> <VdW12>
10.127

> <Bond>
0.191

> <Angle>
2.738

> <Pdih>
5.621

> <Idih>
0.001

> <Tether>
0.000

$$$$
VeraChem MOL file


 25 24  0  0  0  0  0  0  0  0999 V2000     
   19.3221   15.7492   25.3504 C   0  0  0  0  0  0  0  0  0  0  0  0
   18.2729   15.3236   24.9092 O   0  5  0  0  0  0  0  0  0  0  0  0
   20.0249   15.1333   26.1272 O   0  0  0  0  0  0  0  0  0  0  0  0
   19.7947   17.1221   24.8856 C   0  0  0  0  0  0  0  0  0  0  0  0
   20.3612   17.5819   25.7041 H   0  0  0  0  0  0  0  0  0  0  0  0
   18.9060   17.7405   24.7170 H   0  0  0  0  0  0  0  0  0  0  0  0
   20.6654   17.0542   23.6040 C   0  0  0  0  0  0  0  0  0  0  0  0
   21.4936   16.3531   23.7773 H   0  0  0  0  0  0  0  0  0  0  0  0
   20.0722   16.6354   22.7793 H   0  0  0  0  0  0  0  0  0  0  0  0
   21.2539   18.4219   23.1830 C   0  0  0  0  0  0  0  0  0  0  0  0
   21.9451   18.2599   22.3446 H   0  0  0  0  0  0  0  0  0  0  0  0
   21.8543   18.8332   24.0059 H   0  0  0  0  0  0  0  0  0  0  0  0
   20.1792   19.4495   22.7584 C   0  0  0  0  0  0  0  0  0  0  0  0
   19.5488   19.0167   21.9699 H   0  0  0  0  0  0  0  0  0  0  0  0
   19.5245   19.6695   23.6103 H   0  0  0  0  0  0  0  0  0  0  0  0
   20.8171   20.7620   22.2469 C   0  0  0  0  0  0  0  0  0  0  0  0
   21.5194   20.5262   21.4358 H   0  0  0  0  0  0  0  0  0  0  0  0
   21.4108   21.2217   23.0488 H   0  0  0  0  0  0  0  0  0  0  0  0
   19.7831   21.7835   21.7184 C   0  0  0  0  0  0  0  0  0  0  0  0
   20.3215   22.6289   21.2683 H   0  0  0  0  0  0  0  0  0  0  0  0
   19.1908   21.3286   20.9124 H   0  0  0  0  0  0  0  0  0  0  0  0
   18.8397   22.3228   22.8155 C   0  0  0  0  0  0  0  0  0  0  0  0
   19.4109   22.7544   23.6477 H   0  0  0  0  0  0  0  0  0  0  0  0
   18.1884   23.1077   22.4097 H   0  0  0  0  0  0  0  0  0  0  0  0
   18.1946   21.5302   23.2147 H   0  0  0  0  0  0  0  0  0  0  0  0
  1  2  1  0  0  0  0
  1  3  2  0  0  0  0
  1  4  1  0  0  0  0
  4  5  1  0  0  0  0
  4  6  1  0  0  0  0
  4  7  1  0  0  0  0
  7  8  1  0  0  0  0
  7  9  1  0  0  0  0
  7 10  1  0  0  0  0
 10 11  1  0  0  0  0
 10 12  1  0  0  0  0
 10 13  1  0  0  0  0
 13 14  1  0  0  0  0
 13 15  1  0  0  0  0
 13 16  1  0  0  0  0
 16 17  1  0  0  0  0
 16 18  1  0  0  0  0
 16 19  1  0  0  0  0
 19 20  1  0  0  0  0
 19 21  1  0  0  0  0
 19 22  1  0  0  0  0
 22 23  1  0  0  0  0
 22 24  1  0  0  0  0
 22 25  1  0  0  0  0
M  END
> <VConfSearch Rank>
529

> <Conf_Id>
17

> <Delta U+W>
0.219

> <U+W>
-51.411

> <U>
7.701

> <W>
-59.111

> <W(PB)>
-61.599

> <W(SA)>
2.488

> <Valence>
8.550

> <Coulomb>
-1.988

> <VdW>
1.139

> <VdW6>
-8.988

> <VdW12>
10.127

> <Bond>
0.191

> <Angle>
2.738

> <Pdih>
5.621

> <Idih>
0.001

> <Tether>
0.000

$$$$
VeraChem MOL file


 25 24  0  0  0  0  0  0  0  0999 V2000     
   16.6986   20.4481   24.9133 C   0  0  0  0  0  0  0  0  0  0  0  0
   16.3851   21.5403   24.4824 O   0  5  0  0  0  0  0  0  0  0  0  0
   16.9589   20.2349   26.0812 O   0  0  0  0  0  0  0  0  0  0  0  0
   16.7502   19.2741   23.9396 C   0  0  0  0  0  0  0  0  0  0  0  0
   16.1627   19.5312   23.0499 H   0  0  0  0  0  0  0  0  0  0  0  0
   16.2456   18.4272   24.4192 H   0  0  0  0  0  0  0  0  0  0  0  0
   18.1873   18.8577   23.5318 C   0  0  0  0  0  0  0  0  0  0  0  0
   18.7605   18.6242   24.4388 H   0  0  0  0  0  0  0  0  0  0  0  0
   18.1369   17.9335   22.9407 H   0  0  0  0  0  0  0  0  0  0  0  0
   18.9095   19.9516   22.7092 C   0  0  0  0  0  0  0  0  0  0  0  0
   19.0282   20.8588   23.3176 H   0  0  0  0  0  0  0  0  0  0  0  0
   18.2772   20.2324   21.8559 H   0  0  0  0  0  0  0  0  0  0  0  0
   20.2908   19.5073   22.1721 C   0  0  0  0  0  0  0  0  0  0  0  0
   20.1735   18.6053   21.5561 H   0  0  0  0  0  0  0  0  0  0  0  0
   20.6728   20.2918   21.5046 H   0  0  0  0  0  0  0  0  0  0  0  0
   21.3302   19.2462   23.2867 C   0  0  0  0  0  0  0  0  0  0  0  0
   20.9994   18.4128   23.9199 H   0  0  0  0  0  0  0  0  0  0  0  0
   21.4045   20.1310   23.9337 H   0  0  0  0  0  0  0  0  0  0  0  0
   22.7205   18.9160   22.7041 C   0  0  0  0  0  0  0  0  0  0  0  0
   22.6493   18.0323   22.0548 H   0  0  0  0  0  0  0  0  0  0  0  0
   23.0661   19.7477   22.0746 H   0  0  0  0  0  0  0  0  0  0  0  0
   23.7550   18.6523   23.8168 C   0  0  0  0  0  0  0  0  0  0  0  0
   23.4505   17.8035   24.4430 H   0  0  0  0  0  0  0  0  0  0  0  0
   24.7370   18.4197   23.3849 H   0  0  0  0  0  0  0  0  0  0  0  0
   23.8689   19.5321   24.4636 H   0  0  0  0  0  0  0  0  0  0  0  0
  1  2  1  0  0  0  0
  1  3  2  0  0  0  0
  1  4  1  0  0  0  0
  4  5  1  0  0  0  0
  4  6  1  0  0  0  0
  4  7  1  0  0  0  0
  7  8  1  0  0  0  0
  7  9  1  0  0  0  0
  7 10  1  0  0  0  0
 10 11  1  0  0  0  0
 10 12  1  0  0  0  0
 10 13  1  0  0  0  0
 13 14  1  0  0  0  0
 13 15  1  0  0  0  0
 13 16  1  0  0  0  0
 16 17  1  0  0  0  0
 16 18  1  0  0  0  0
 16 19  1  0  0  0  0
 19 20  1  0  0  0  0
 19 21  1  0  0  0  0
 19 22  1  0  0  0  0
 22 23  1  0  0  0  0
 22 24  1  0  0  0  0
 22 25  1  0  0  0  0
M  END
> <VConfSearch Rank>
530

> <Conf_Id>
142

> <Delta U+W>
0.593

> <U+W>
-51.037

> <U>
8.903

> <W>
-59.940

> <W(PB)>
-62.418

> <W(SA)>
2.478

> <Valence>
8.305

> <Coulomb>
-0.223

> <VdW>
0.821

> <VdW6>
-9.236

> <VdW12>
10.057

> <Bond>
0.173

> <Angle>
2.663

> <Pdih>
5.469

> <Idih>
0.001

> <Tether>
0.000

$$$$
VeraChem MOL file


 25 24  0  0  0  0  0  0  0  0999 V2000     
   17.2648   19.7140   21.6243 C   0  0  0  0  0  0  0  0  0  0  0  0
   16.4135   20.5714   21.4916 O   0  5  0  0  0  0  0  0  0  0  0  0
   17.7330   19.0827   20.6973 O   0  0  0  0  0  0  0  0  0  0  0  0
   17.7501   19.3958   23.0358 C   0  0  0  0  0  0  0  0  0  0  0  0
   18.2872   18.4406   23.0158 H   0  0  0  0  0  0  0  0  0  0  0  0
   16.8619   19.2396   23.6588 H   0  0  0  0  0  0  0  0  0  0  0  0
   18.6331   20.5061   23.6679 C   0  0  0  0  0  0  0  0  0  0  0  0
   18.0420   21.4298   23.7356 H   0  0  0  0  0  0  0  0  0  0  0  0
   18.8771   20.2294   24.7017 H   0  0  0  0  0  0  0  0  0  0  0  0
   19.9380   20.8092   22.8869 C   0  0  0  0  0  0  0  0  0  0  0  0
   20.4839   21.6071   23.4085 H   0  0  0  0  0  0  0  0  0  0  0  0
   19.6777   21.2173   21.9006 H   0  0  0  0  0  0  0  0  0  0  0  0
   20.8861   19.6002   22.6875 C   0  0  0  0  0  0  0  0  0  0  0  0
   20.3935   18.8372   22.0700 H   0  0  0  0  0  0  0  0  0  0  0  0
   21.7590   19.9376   22.1123 H   0  0  0  0  0  0  0  0  0  0  0  0
   21.3711   18.9696   24.0133 C   0  0  0  0  0  0  0  0  0  0  0  0
   20.5157   18.5618   24.5675 H   0  0  0  0  0  0  0  0  0  0  0  0
   21.8234   19.7460   24.6453 H   0  0  0  0  0  0  0  0  0  0  0  0
   22.3960   17.8424   23.7674 C   0  0  0  0  0  0  0  0  0  0  0  0
   21.9463   17.0659   23.1331 H   0  0  0  0  0  0  0  0  0  0  0  0
   23.2612   18.2408   23.2196 H   0  0  0  0  0  0  0  0  0  0  0  0
   22.8741   17.2105   25.0901 C   0  0  0  0  0  0  0  0  0  0  0  0
   22.0321   16.7750   25.6442 H   0  0  0  0  0  0  0  0  0  0  0  0
   23.6018   16.4117   24.8966 H   0  0  0  0  0  0  0  0  0  0  0  0
   23.3558   17.9598   25.7318 H   0  0  0  0  0  0  0  0  0  0  0  0
  1  2  1  0  0  0  0
  1  3  2  0  0  0  0
  1  4  1  0  0  0  0
  4  5  1  0  0  0  0
  4  6  1  0  0  0  0
  4  7  1  0  0  0  0
  7  8  1  0  0  0  0
  7  9  1  0  0  0  0
  7 10  1  0  0  0  0
 10 11  1  0  0  0  0
 10 12  1  0  0  0  0
 10 13  1  0  0  0  0
 13 14  1  0  0  0  0
 13 15  1  0  0  0  0
 13 16  1  0  0  0  0
 16 17  1  0  0  0  0
 16 18  1  0  0  0  0
 16 19  1  0  0  0  0
 19 20  1  0  0  0  0
 19 21  1  0  0  0  0
 19 22  1  0  0  0  0
 22 23  1  0  0  0  0
 22 24  1  0  0  0  0
 22 25  1  0  0  0  0
M  END
> <VConfSearch Rank>
531

> <Conf_Id>
135

> <Delta U+W>
1.314

> <U+W>
-50.316

> <U>
9.773

> <W>
-60.088

> <W(PB)>
-62.535

> <W(SA)>
2.447

> <Valence>
8.741

> <Coulomb>
0.479

> <VdW>
0.552

> <VdW6>
-10.627

> <VdW12>
11.179

> <Bond>
0.227

> <Angle>
3.155

> <Pdih>
5.358

> <Idih>
0.001

> <Tether>
0.000

$$$$
VeraChem MOL file


 25 24  0  0  0  0  0  0  0  0999 V2000     
   17.3629   17.4005   25.9172 C   0  0  0  0  0  0  0  0  0  0  0  0
   16.6430   18.1968   26.4867 O   0  5  0  0  0  0  0  0  0  0  0  0
   17.1074   16.2170   25.8128 O   0  0  0  0  0  0  0  0  0  0  0  0
   18.6466   17.9188   25.2787 C   0  0  0  0  0  0  0  0  0  0  0  0
   19.3947   17.1183   25.3219 H   0  0  0  0  0  0  0  0  0  0  0  0
   19.0161   18.7434   25.8981 H   0  0  0  0  0  0  0  0  0  0  0  0
   18.4419   18.3812   23.8124 C   0  0  0  0  0  0  0  0  0  0  0  0
   17.9804   17.5594   23.2475 H   0  0  0  0  0  0  0  0  0  0  0  0
   17.7270   19.2152   23.7854 H   0  0  0  0  0  0  0  0  0  0  0  0
   19.7537   18.7923   23.1016 C   0  0  0  0  0  0  0  0  0  0  0  0
   19.5259   18.9493   22.0397 H   0  0  0  0  0  0  0  0  0  0  0  0
   20.4759   17.9662   23.1517 H   0  0  0  0  0  0  0  0  0  0  0  0
   20.3886   20.0812   23.6760 C   0  0  0  0  0  0  0  0  0  0  0  0
   19.6818   20.9150   23.5678 H   0  0  0  0  0  0  0  0  0  0  0  0
   20.5582   19.9585   24.7529 H   0  0  0  0  0  0  0  0  0  0  0  0
   21.7417   20.4665   23.0262 C   0  0  0  0  0  0  0  0  0  0  0  0
   22.4849   19.6787   23.2099 H   0  0  0  0  0  0  0  0  0  0  0  0
   22.1168   21.3572   23.5486 H   0  0  0  0  0  0  0  0  0  0  0  0
   21.6669   20.7916   21.5133 C   0  0  0  0  0  0  0  0  0  0  0  0
   20.6619   21.1484   21.2489 H   0  0  0  0  0  0  0  0  0  0  0  0
   22.3520   21.6233   21.2980 H   0  0  0  0  0  0  0  0  0  0  0  0
   22.0662   19.5994   20.6152 C   0  0  0  0  0  0  0  0  0  0  0  0
   21.4141   18.7329   20.7733 H   0  0  0  0  0  0  0  0  0  0  0  0
   22.0025   19.8785   19.5556 H   0  0  0  0  0  0  0  0  0  0  0  0
   23.0987   19.2869   20.8184 H   0  0  0  0  0  0  0  0  0  0  0  0
  1  2  1  0  0  0  0
  1  3  2  0  0  0  0
  1  4  1  0  0  0  0
  4  5  1  0  0  0  0
  4  6  1  0  0  0  0
  4  7  1  0  0  0  0
  7  8  1  0  0  0  0
  7  9  1  0  0  0  0
  7 10  1  0  0  0  0
 10 11  1  0  0  0  0
 10 12  1  0  0  0  0
 10 13  1  0  0  0  0
 13 14  1  0  0  0  0
 13 15  1  0  0  0  0
 13 16  1  0  0  0  0
 16 17  1  0  0  0  0
 16 18  1  0  0  0  0
 16 19  1  0  0  0  0
 19 20  1  0  0  0  0
 19 21  1  0  0  0  0
 19 22  1  0  0  0  0
 22 23  1  0  0  0  0
 22 24  1  0  0  0  0
 22 25  1  0  0  0  0
M  END
> <VConfSearch Rank>
532

> <Conf_Id>
19

> <Delta U+W>
3.222

> <U+W>
-48.407

> <U>
10.617

> <W>
-59.025

> <W(PB)>
-61.462

> <W(SA)>
2.437

> <Valence>
11.188

> <Coulomb>
-1.778

> <VdW>
1.208

> <VdW6>
-9.786

> <VdW12>
10.993

> <Bond>
0.241

> <Angle>
3.294

> <Pdih>
7.653

> <Idih>
0.001

> <Tether>
0.000

$$$$
VeraChem MOL file


 25 24  0  0  0  0  0  0  0  0999 V2000     
   16.4670   17.8772   24.9480 C   0  0  0  0  0  0  0  0  0  0  0  0
   16.5628   17.5590   26.1169 O   0  5  0  0  0  0  0  0  0  0  0  0
   15.5585   17.5182   24.2252 O   0  0  0  0  0  0  0  0  0  0  0  0
   17.5591   18.7562   24.3491 C   0  0  0  0  0  0  0  0  0  0  0  0
   17.9154   19.4272   25.1384 H   0  0  0  0  0  0  0  0  0  0  0  0
   17.1038   19.3809   23.5713 H   0  0  0  0  0  0  0  0  0  0  0  0
   18.7322   17.9332   23.7556 C   0  0  0  0  0  0  0  0  0  0  0  0
   19.2118   17.3478   24.5523 H   0  0  0  0  0  0  0  0  0  0  0  0
   18.3231   17.2061   23.0406 H   0  0  0  0  0  0  0  0  0  0  0  0
   19.7918   18.7962   23.0293 C   0  0  0  0  0  0  0  0  0  0  0  0
   19.3064   19.3993   22.2501 H   0  0  0  0  0  0  0  0  0  0  0  0
   20.4853   18.1171   22.5176 H   0  0  0  0  0  0  0  0  0  0  0  0
   20.5963   19.7146   23.9800 C   0  0  0  0  0  0  0  0  0  0  0  0
   19.9058   20.3516   24.5465 H   0  0  0  0  0  0  0  0  0  0  0  0
   21.1257   19.0989   24.7197 H   0  0  0  0  0  0  0  0  0  0  0  0
   21.6101   20.6403   23.2612 C   0  0  0  0  0  0  0  0  0  0  0  0
   22.0761   21.2763   24.0262 H   0  0  0  0  0  0  0  0  0  0  0  0
   21.0801   21.3263   22.5864 H   0  0  0  0  0  0  0  0  0  0  0  0
   22.7375   19.9009   22.4979 C   0  0  0  0  0  0  0  0  0  0  0  0
   23.6717   20.4674   22.6152 H   0  0  0  0  0  0  0  0  0  0  0  0
   22.9201   18.9154   22.9480 H   0  0  0  0  0  0  0  0  0  0  0  0
   22.4536   19.7559   20.9861 C   0  0  0  0  0  0  0  0  0  0  0  0
   22.3480   20.7408   20.5130 H   0  0  0  0  0  0  0  0  0  0  0  0
   23.2798   19.2316   20.4887 H   0  0  0  0  0  0  0  0  0  0  0  0
   21.5346   19.1898   20.7958 H   0  0  0  0  0  0  0  0  0  0  0  0
  1  2  1  0  0  0  0
  1  3  2  0  0  0  0
  1  4  1  0  0  0  0
  4  5  1  0  0  0  0
  4  6  1  0  0  0  0
  4  7  1  0  0  0  0
  7  8  1  0  0  0  0
  7  9  1  0  0  0  0
  7 10  1  0  0  0  0
 10 11  1  0  0  0  0
 10 12  1  0  0  0  0
 10 13  1  0  0  0  0
 13 14  1  0  0  0  0
 13 15  1  0  0  0  0
 13 16  1  0  0  0  0
 16 17  1  0  0  0  0
 16 18  1  0  0  0  0
 16 19  1  0  0  0  0
 19 20  1  0  0  0  0
 19 21  1  0  0  0  0
 19 22  1  0  0  0  0
 22 23  1  0  0  0  0
 22 24  1  0  0  0  0
 22 25  1  0  0  0  0
M  END
> <VConfSearch Rank>
533

> <Conf_Id>
20

> <Delta U+W>
3.224

> <U+W>
-48.406

> <U>
10.617

> <W>
-59.023

> <W(PB)>
-61.467

> <W(SA)>
2.444

> <Valence>
11.188

> <Coulomb>
-1.778

> <VdW>
1.208

> <VdW6>
-9.786

> <VdW12>
10.993

> <Bond>
0.241

> <Angle>
3.294

> <Pdih>
7.653

> <Idih>
0.001

> <Tether>
0.000

$$$$
VeraChem MOL file


 25 24  0  0  0  0  0  0  0  0999 V2000     
   21.1661   20.6594   26.1529 C   0  0  0  0  0  0  0  0  0  0  0  0
   22.1771   21.2165   25.7719 O   0  5  0  0  0  0  0  0  0  0  0  0
   21.1681   19.6000   26.7488 O   0  0  0  0  0  0  0  0  0  0  0  0
   19.8259   21.3577   25.9307 C   0  0  0  0  0  0  0  0  0  0  0  0
   19.8657   22.2906   26.5048 H   0  0  0  0  0  0  0  0  0  0  0  0
   19.0289   20.7494   26.3753 H   0  0  0  0  0  0  0  0  0  0  0  0
   19.4880   21.6891   24.4497 C   0  0  0  0  0  0  0  0  0  0  0  0
   18.7279   22.4819   24.4446 H   0  0  0  0  0  0  0  0  0  0  0  0
   20.3701   22.1133   23.9503 H   0  0  0  0  0  0  0  0  0  0  0  0
   18.9337   20.4990   23.6279 C   0  0  0  0  0  0  0  0  0  0  0  0
   18.5920   20.8835   22.6572 H   0  0  0  0  0  0  0  0  0  0  0  0
   18.0456   20.0872   24.1265 H   0  0  0  0  0  0  0  0  0  0  0  0
   19.9607   19.3707   23.3812 C   0  0  0  0  0  0  0  0  0  0  0  0
   20.8892   19.7985   22.9789 H   0  0  0  0  0  0  0  0  0  0  0  0
   20.2157   18.8846   24.3313 H   0  0  0  0  0  0  0  0  0  0  0  0
   19.4157   18.3057   22.4048 C   0  0  0  0  0  0  0  0  0  0  0  0
   19.1645   18.7797   21.4461 H   0  0  0  0  0  0  0  0  0  0  0  0
   18.4848   17.8825   22.8064 H   0  0  0  0  0  0  0  0  0  0  0  0
   20.4361   17.1727   22.1667 C   0  0  0  0  0  0  0  0  0  0  0  0
   21.3683   17.5926   21.7641 H   0  0  0  0  0  0  0  0  0  0  0  0
   20.6886   16.6950   23.1236 H   0  0  0  0  0  0  0  0  0  0  0  0
   19.8890   16.1106   21.1918 C   0  0  0  0  0  0  0  0  0  0  0  0
   19.6575   16.5559   20.2154 H   0  0  0  0  0  0  0  0  0  0  0  0
   20.6270   15.3133   21.0344 H   0  0  0  0  0  0  0  0  0  0  0  0
   18.9727   15.6514   21.5852 H   0  0  0  0  0  0  0  0  0  0  0  0
  1  2  1  0  0  0  0
  1  3  2  0  0  0  0
  1  4  1  0  0  0  0
  4  5  1  0  0  0  0
  4  6  1  0  0  0  0
  4  7  1  0  0  0  0
  7  8  1  0  0  0  0
  7  9  1  0  0  0  0
  7 10  1  0  0  0  0
 10 11  1  0  0  0  0
 10 12  1  0  0  0  0
 10 13  1  0  0  0  0
 13 14  1  0  0  0  0
 13 15  1  0  0  0  0
 13 16  1  0  0  0  0
 16 17  1  0  0  0  0
 16 18  1  0  0  0  0
 16 19  1  0  0  0  0
 19 20  1  0  0  0  0
 19 21  1  0  0  0  0
 19 22  1  0  0  0  0
 22 23  1  0  0  0  0
 22 24  1  0  0  0  0
 22 25  1  0  0  0  0
M  END
> <VConfSearch Rank>
534

> <Conf_Id>
24

> <Delta U+W>
1.784

> <U+W>
-49.846

> <U>
10.904

> <W>
-60.749

> <W(PB)>
-63.220

> <W(SA)>
2.471

> <Valence>
9.445

> <Coulomb>
0.780

> <VdW>
0.679

> <VdW6>
-10.008

> <VdW12>
10.687

> <Bond>
0.201

> <Angle>
3.198

> <Pdih>
6.039

> <Idih>
0.006

> <Tether>
0.000

$$$$
VeraChem MOL file


 25 24  0  0  0  0  0  0  0  0999 V2000     
   18.3714   16.3386   23.7460 C   0  0  0  0  0  0  0  0  0  0  0  0
   18.5154   15.9076   24.8735 O   0  5  0  0  0  0  0  0  0  0  0  0
   17.3850   16.9483   23.3820 O   0  0  0  0  0  0  0  0  0  0  0  0
   19.4563   16.0418   22.7125 C   0  0  0  0  0  0  0  0  0  0  0  0
   19.1485   16.4543   21.7440 H   0  0  0  0  0  0  0  0  0  0  0  0
   19.4807   14.9522   22.5957 H   0  0  0  0  0  0  0  0  0  0  0  0
   20.8806   16.5429   23.0832 C   0  0  0  0  0  0  0  0  0  0  0  0
   21.1005   16.3032   24.1328 H   0  0  0  0  0  0  0  0  0  0  0  0
   21.6061   15.9747   22.4855 H   0  0  0  0  0  0  0  0  0  0  0  0
   21.1286   18.0489   22.8193 C   0  0  0  0  0  0  0  0  0  0  0  0
   20.9185   18.2791   21.7658 H   0  0  0  0  0  0  0  0  0  0  0  0
   22.1976   18.2512   22.9720 H   0  0  0  0  0  0  0  0  0  0  0  0
   20.3098   18.9915   23.7300 C   0  0  0  0  0  0  0  0  0  0  0  0
   19.2413   18.8986   23.4980 H   0  0  0  0  0  0  0  0  0  0  0  0
   20.4385   18.6940   24.7798 H   0  0  0  0  0  0  0  0  0  0  0  0
   20.7336   20.4660   23.5543 C   0  0  0  0  0  0  0  0  0  0  0  0
   20.6089   20.7603   22.5032 H   0  0  0  0  0  0  0  0  0  0  0  0
   21.8008   20.5730   23.7922 H   0  0  0  0  0  0  0  0  0  0  0  0
   19.9087   21.4094   24.4548 C   0  0  0  0  0  0  0  0  0  0  0  0
   18.8405   21.3064   24.2184 H   0  0  0  0  0  0  0  0  0  0  0  0
   20.0319   21.1181   25.5072 H   0  0  0  0  0  0  0  0  0  0  0  0
   20.3338   22.8809   24.2770 C   0  0  0  0  0  0  0  0  0  0  0  0
   20.1910   23.2082   23.2388 H   0  0  0  0  0  0  0  0  0  0  0  0
   19.7373   23.5368   24.9242 H   0  0  0  0  0  0  0  0  0  0  0  0
   21.3915   23.0184   24.5374 H   0  0  0  0  0  0  0  0  0  0  0  0
  1  2  1  0  0  0  0
  1  3  2  0  0  0  0
  1  4  1  0  0  0  0
  4  5  1  0  0  0  0
  4  6  1  0  0  0  0
  4  7  1  0  0  0  0
  7  8  1  0  0  0  0
  7  9  1  0  0  0  0
  7 10  1  0  0  0  0
 10 11  1  0  0  0  0
 10 12  1  0  0  0  0
 10 13  1  0  0  0  0
 13 14  1  0  0  0  0
 13 15  1  0  0  0  0
 13 16  1  0  0  0  0
 16 17  1  0  0  0  0
 16 18  1  0  0  0  0
 16 19  1  0  0  0  0
 19 20  1  0  0  0  0
 19 21  1  0  0  0  0
 19 22  1  0  0  0  0
 22 23  1  0  0  0  0
 22 24  1  0  0  0  0
 22 25  1  0  0  0  0
M  END
> <VConfSearch Rank>
535

> <Conf_Id>
9

> <Delta U+W>
1.764

> <U+W>
-49.865

> <U>
10.902

> <W>
-60.768

> <W(PB)>
-63.223

> <W(SA)>
2.456

> <Valence>
9.445

> <Coulomb>
0.778

> <VdW>
0.679

> <VdW6>
-10.007

> <VdW12>
10.687

> <Bond>
0.201

> <Angle>
3.198

> <Pdih>
6.040

> <Idih>
0.006

> <Tether>
0.000

$$$$
VeraChem MOL file


 25 24  0  0  0  0  0  0  0  0999 V2000     
   20.5900   18.1149   26.8978 C   0  0  0  0  0  0  0  0  0  0  0  0
   21.2882   17.1875   26.5385 O   0  5  0  0  0  0  0  0  0  0  0  0
   20.5612   18.5337   28.0382 O   0  0  0  0  0  0  0  0  0  0  0  0
   19.7168   18.8047   25.8559 C   0  0  0  0  0  0  0  0  0  0  0  0
   18.8045   19.1514   26.3558 H   0  0  0  0  0  0  0  0  0  0  0  0
   19.4121   18.0513   25.1230 H   0  0  0  0  0  0  0  0  0  0  0  0
   20.4326   19.9974   25.1685 C   0  0  0  0  0  0  0  0  0  0  0  0
   20.7074   20.7210   25.9484 H   0  0  0  0  0  0  0  0  0  0  0  0
   21.3765   19.6626   24.7165 H   0  0  0  0  0  0  0  0  0  0  0  0
   19.5572   20.7175   24.1113 C   0  0  0  0  0  0  0  0  0  0  0  0
   19.7942   21.7897   24.1453 H   0  0  0  0  0  0  0  0  0  0  0  0
   18.4945   20.6384   24.3782 H   0  0  0  0  0  0  0  0  0  0  0  0
   19.7783   20.2387   22.6544 C   0  0  0  0  0  0  0  0  0  0  0  0
   19.1745   20.8701   21.9886 H   0  0  0  0  0  0  0  0  0  0  0  0
   20.8265   20.4101   22.3764 H   0  0  0  0  0  0  0  0  0  0  0  0
   19.4100   18.7562   22.4101 C   0  0  0  0  0  0  0  0  0  0  0  0
   18.4154   18.5586   22.8322 H   0  0  0  0  0  0  0  0  0  0  0  0
   20.1169   18.1057   22.9416 H   0  0  0  0  0  0  0  0  0  0  0  0
   19.3965   18.3679   20.9133 C   0  0  0  0  0  0  0  0  0  0  0  0
   19.0324   17.3355   20.8198 H   0  0  0  0  0  0  0  0  0  0  0  0
   18.6790   19.0000   20.3721 H   0  0  0  0  0  0  0  0  0  0  0  0
   20.7848   18.4691   20.2450 C   0  0  0  0  0  0  0  0  0  0  0  0
   21.5253   17.8644   20.7845 H   0  0  0  0  0  0  0  0  0  0  0  0
   20.7405   18.1057   19.2101 H   0  0  0  0  0  0  0  0  0  0  0  0
   21.1411   19.5066   20.2182 H   0  0  0  0  0  0  0  0  0  0  0  0
  1  2  1  0  0  0  0
  1  3  2  0  0  0  0
  1  4  1  0  0  0  0
  4  5  1  0  0  0  0
  4  6  1  0  0  0  0
  4  7  1  0  0  0  0
  7  8  1  0  0  0  0
  7  9  1  0  0  0  0
  7 10  1  0  0  0  0
 10 11  1  0  0  0  0
 10 12  1  0  0  0  0
 10 13  1  0  0  0  0
 13 14  1  0  0  0  0
 13 15  1  0  0  0  0
 13 16  1  0  0  0  0
 16 17  1  0  0  0  0
 16 18  1  0  0  0  0
 16 19  1  0  0  0  0
 19 20  1  0  0  0  0
 19 21  1  0  0  0  0
 19 22  1  0  0  0  0
 22 23  1  0  0  0  0
 22 24  1  0  0  0  0
 22 25  1  0  0  0  0
M  END
> <VConfSearch Rank>
536

> <Conf_Id>
89

> <Delta U+W>
2.903

> <U+W>
-48.726

> <U>
10.996

> <W>
-59.723

> <W(PB)>
-62.151

> <W(SA)>
2.428

> <Valence>
10.985

> <Coulomb>
-0.995

> <VdW>
1.006

> <VdW6>
-10.062

> <VdW12>
11.069

> <Bond>
0.238

> <Angle>
3.202

> <Pdih>
7.544

> <Idih>
0.001

> <Tether>
0.000

$$$$
VeraChem MOL file


 25 24  0  0  0  0  0  0  0  0999 V2000     
   16.6877   18.8435   24.1396 C   0  0  0  0  0  0  0  0  0  0  0  0
   16.3123   19.7747   23.4547 O   0  5  0  0  0  0  0  0  0  0  0  0
   16.3776   17.6874   23.9277 O   0  0  0  0  0  0  0  0  0  0  0  0
   17.5413   19.1519   25.3683 C   0  0  0  0  0  0  0  0  0  0  0  0
   16.9449   18.8554   26.2389 H   0  0  0  0  0  0  0  0  0  0  0  0
   17.6839   20.2368   25.4407 H   0  0  0  0  0  0  0  0  0  0  0  0
   18.9134   18.4226   25.4238 C   0  0  0  0  0  0  0  0  0  0  0  0
   19.2447   18.4059   26.4709 H   0  0  0  0  0  0  0  0  0  0  0  0
   18.7917   17.3709   25.1294 H   0  0  0  0  0  0  0  0  0  0  0  0
   20.0372   19.0821   24.5860 C   0  0  0  0  0  0  0  0  0  0  0  0
   20.9794   18.5820   24.8423 H   0  0  0  0  0  0  0  0  0  0  0  0
   20.1535   20.1324   24.8857 H   0  0  0  0  0  0  0  0  0  0  0  0
   19.8138   18.9995   23.0564 C   0  0  0  0  0  0  0  0  0  0  0  0
   19.6363   17.9566   22.7604 H   0  0  0  0  0  0  0  0  0  0  0  0
   18.9068   19.5571   22.7932 H   0  0  0  0  0  0  0  0  0  0  0  0
   20.9834   19.5842   22.2284 C   0  0  0  0  0  0  0  0  0  0  0  0
   21.1813   20.6164   22.5481 H   0  0  0  0  0  0  0  0  0  0  0  0
   20.6684   19.6403   21.1774 H   0  0  0  0  0  0  0  0  0  0  0  0
   22.2826   18.7510   22.3146 C   0  0  0  0  0  0  0  0  0  0  0  0
   22.6650   18.7479   23.3434 H   0  0  0  0  0  0  0  0  0  0  0  0
   22.0711   17.7064   22.0478 H   0  0  0  0  0  0  0  0  0  0  0  0
   23.3738   19.3074   21.3776 C   0  0  0  0  0  0  0  0  0  0  0  0
   23.6245   20.3438   21.6393 H   0  0  0  0  0  0  0  0  0  0  0  0
   24.2902   18.7077   21.4522 H   0  0  0  0  0  0  0  0  0  0  0  0
   23.0411   19.2886   20.3315 H   0  0  0  0  0  0  0  0  0  0  0  0
  1  2  1  0  0  0  0
  1  3  2  0  0  0  0
  1  4  1  0  0  0  0
  4  5  1  0  0  0  0
  4  6  1  0  0  0  0
  4  7  1  0  0  0  0
  7  8  1  0  0  0  0
  7  9  1  0  0  0  0
  7 10  1  0  0  0  0
 10 11  1  0  0  0  0
 10 12  1  0  0  0  0
 10 13  1  0  0  0  0
 13 14  1  0  0  0  0
 13 15  1  0  0  0  0
 13 16  1  0  0  0  0
 16 17  1  0  0  0  0
 16 18  1  0  0  0  0
 16 19  1  0  0  0  0
 19 20  1  0  0  0  0
 19 21  1  0  0  0  0
 19 22  1  0  0  0  0
 22 23  1  0  0  0  0
 22 24  1  0  0  0  0
 22 25  1  0  0  0  0
M  END
> <VConfSearch Rank>
537

> <Conf_Id>
114

> <Delta U+W>
2.758

> <U+W>
-48.871

> <U>
11.422

> <W>
-60.293

> <W(PB)>
-62.719

> <W(SA)>
2.425

> <Valence>
10.135

> <Coulomb>
0.369

> <VdW>
0.918

> <VdW6>
-10.482

> <VdW12>
11.400

> <Bond>
0.245

> <Angle>
3.539

> <Pdih>
6.346

> <Idih>
0.006

> <Tether>
0.000

$$$$
VeraChem MOL file


 25 24  0  0  0  0  0  0  0  0999 V2000     
   17.6467   16.7071   21.8388 C   0  0  0  0  0  0  0  0  0  0  0  0
   16.6908   16.7210   22.5892 O   0  5  0  0  0  0  0  0  0  0  0  0
   17.5967   17.0660   20.6788 O   0  0  0  0  0  0  0  0  0  0  0  0
   18.9793   16.1914   22.3748 C   0  0  0  0  0  0  0  0  0  0  0  0
   19.3950   15.5113   21.6220 H   0  0  0  0  0  0  0  0  0  0  0  0
   18.7870   15.5917   23.2726 H   0  0  0  0  0  0  0  0  0  0  0  0
   20.0073   17.3100   22.6866 C   0  0  0  0  0  0  0  0  0  0  0  0
   20.9710   16.8482   22.9398 H   0  0  0  0  0  0  0  0  0  0  0  0
   20.1689   17.9060   21.7788 H   0  0  0  0  0  0  0  0  0  0  0  0
   19.5548   18.2208   23.8531 C   0  0  0  0  0  0  0  0  0  0  0  0
   19.3091   17.5924   24.7200 H   0  0  0  0  0  0  0  0  0  0  0  0
   18.6288   18.7457   23.5802 H   0  0  0  0  0  0  0  0  0  0  0  0
   20.6245   19.2527   24.2839 C   0  0  0  0  0  0  0  0  0  0  0  0
   20.2718   19.7437   25.1997 H   0  0  0  0  0  0  0  0  0  0  0  0
   21.5541   18.7309   24.5483 H   0  0  0  0  0  0  0  0  0  0  0  0
   20.9153   20.3256   23.2055 C   0  0  0  0  0  0  0  0  0  0  0  0
   19.9846   20.8446   22.9388 H   0  0  0  0  0  0  0  0  0  0  0  0
   21.2723   19.8365   22.2904 H   0  0  0  0  0  0  0  0  0  0  0  0
   21.9790   21.3611   23.6401 C   0  0  0  0  0  0  0  0  0  0  0  0
   22.9079   20.8444   23.9187 H   0  0  0  0  0  0  0  0  0  0  0  0
   22.2244   21.9957   22.7773 H   0  0  0  0  0  0  0  0  0  0  0  0
   21.5171   22.2653   24.8036 C   0  0  0  0  0  0  0  0  0  0  0  0
   22.2666   23.0409   25.0073 H   0  0  0  0  0  0  0  0  0  0  0  0
   20.5708   22.7658   24.5605 H   0  0  0  0  0  0  0  0  0  0  0  0
   21.3758   21.6907   25.7274 H   0  0  0  0  0  0  0  0  0  0  0  0
  1  2  1  0  0  0  0
  1  3  2  0  0  0  0
  1  4  1  0  0  0  0
  4  5  1  0  0  0  0
  4  6  1  0  0  0  0
  4  7  1  0  0  0  0
  7  8  1  0  0  0  0
  7  9  1  0  0  0  0
  7 10  1  0  0  0  0
 10 11  1  0  0  0  0
 10 12  1  0  0  0  0
 10 13  1  0  0  0  0
 13 14  1  0  0  0  0
 13 15  1  0  0  0  0
 13 16  1  0  0  0  0
 16 17  1  0  0  0  0
 16 18  1  0  0  0  0
 16 19  1  0  0  0  0
 19 20  1  0  0  0  0
 19 21  1  0  0  0  0
 19 22  1  0  0  0  0
 22 23  1  0  0  0  0
 22 24  1  0  0  0  0
 22 25  1  0  0  0  0
M  END
> <VConfSearch Rank>
538

> <Conf_Id>
87

> <Delta U+W>
1.453

> <U+W>
-50.176

> <U>
9.763

> <W>
-59.940

> <W(PB)>
-62.392

> <W(SA)>
2.452

> <Valence>
8.883

> <Coulomb>
-0.122

> <VdW>
1.003

> <VdW6>
-9.782

> <VdW12>
10.785

> <Bond>
0.212

> <Angle>
2.940

> <Pdih>
5.730

> <Idih>
0.001

> <Tether>
0.000

$$$$
VeraChem MOL file


 25 24  0  0  0  0  0  0  0  0999 V2000     
   21.9274   19.1913   19.8434 C   0  0  0  0  0  0  0  0  0  0  0  0
   21.3885   20.1329   19.2961 O   0  5  0  0  0  0  0  0  0  0  0  0
   23.0873   18.8791   19.6591 O   0  0  0  0  0  0  0  0  0  0  0  0
   21.1082   18.3667   20.8299 C   0  0  0  0  0  0  0  0  0  0  0  0
   21.4621   17.3299   20.7835 H   0  0  0  0  0  0  0  0  0  0  0  0
   20.0649   18.3691   20.4921 H   0  0  0  0  0  0  0  0  0  0  0  0
   21.2004   18.8995   22.2810 C   0  0  0  0  0  0  0  0  0  0  0  0
   22.2511   18.8993   22.6024 H   0  0  0  0  0  0  0  0  0  0  0  0
   20.8601   19.9433   22.2983 H   0  0  0  0  0  0  0  0  0  0  0  0
   20.3557   18.0503   23.2587 C   0  0  0  0  0  0  0  0  0  0  0  0
   20.6633   16.9990   23.1764 H   0  0  0  0  0  0  0  0  0  0  0  0
   19.2992   18.0824   22.9616 H   0  0  0  0  0  0  0  0  0  0  0  0
   20.5008   18.4866   24.7382 C   0  0  0  0  0  0  0  0  0  0  0  0
   19.9204   17.8004   25.3687 H   0  0  0  0  0  0  0  0  0  0  0  0
   21.5477   18.3570   25.0444 H   0  0  0  0  0  0  0  0  0  0  0  0
   20.0732   19.9466   25.0436 C   0  0  0  0  0  0  0  0  0  0  0  0
   20.7602   20.6393   24.5404 H   0  0  0  0  0  0  0  0  0  0  0  0
   20.2017   20.1309   26.1188 H   0  0  0  0  0  0  0  0  0  0  0  0
   18.6197   20.3047   24.6470 C   0  0  0  0  0  0  0  0  0  0  0  0
   18.4418   21.3621   24.8860 H   0  0  0  0  0  0  0  0  0  0  0  0
   18.4912   20.2133   23.5603 H   0  0  0  0  0  0  0  0  0  0  0  0
   17.5604   19.4462   25.3715 C   0  0  0  0  0  0  0  0  0  0  0  0
   17.6811   19.5101   26.4607 H   0  0  0  0  0  0  0  0  0  0  0  0
   16.5491   19.7921   25.1218 H   0  0  0  0  0  0  0  0  0  0  0  0
   17.6336   18.3915   25.0779 H   0  0  0  0  0  0  0  0  0  0  0  0
  1  2  1  0  0  0  0
  1  3  2  0  0  0  0
  1  4  1  0  0  0  0
  4  5  1  0  0  0  0
  4  6  1  0  0  0  0
  4  7  1  0  0  0  0
  7  8  1  0  0  0  0
  7  9  1  0  0  0  0
  7 10  1  0  0  0  0
 10 11  1  0  0  0  0
 10 12  1  0  0  0  0
 10 13  1  0  0  0  0
 13 14  1  0  0  0  0
 13 15  1  0  0  0  0
 13 16  1  0  0  0  0
 16 17  1  0  0  0  0
 16 18  1  0  0  0  0
 16 19  1  0  0  0  0
 19 20  1  0  0  0  0
 19 21  1  0  0  0  0
 19 22  1  0  0  0  0
 22 23  1  0  0  0  0
 22 24  1  0  0  0  0
 22 25  1  0  0  0  0
M  END
> <VConfSearch Rank>
539

> <Conf_Id>
29

> <Delta U+W>
0.850

> <U+W>
-50.780

> <U>
8.646

> <W>
-59.426

> <W(PB)>
-61.868

> <W(SA)>
2.442

> <Valence>
8.924

> <Coulomb>
-1.171

> <VdW>
0.894

> <VdW6>
-10.223

> <VdW12>
11.117

> <Bond>
0.231

> <Angle>
3.232

> <Pdih>
5.461

> <Idih>
0.001

> <Tether>
0.000

$$$$
VeraChem MOL file


 25 24  0  0  0  0  0  0  0  0999 V2000     
   18.0942   22.6498   23.2222 C   0  0  0  0  0  0  0  0  0  0  0  0
   18.5823   23.1703   22.2386 O   0  5  0  0  0  0  0  0  0  0  0  0
   17.7126   23.2719   24.1939 O   0  0  0  0  0  0  0  0  0  0  0  0
   17.9711   21.1305   23.2466 C   0  0  0  0  0  0  0  0  0  0  0  0
   17.8035   20.7857   22.2191 H   0  0  0  0  0  0  0  0  0  0  0  0
   17.0773   20.8704   23.8262 H   0  0  0  0  0  0  0  0  0  0  0  0
   19.2187   20.4356   23.8456 C   0  0  0  0  0  0  0  0  0  0  0  0
   20.1019   20.7266   23.2616 H   0  0  0  0  0  0  0  0  0  0  0  0
   19.3789   20.7966   24.8709 H   0  0  0  0  0  0  0  0  0  0  0  0
   19.0707   18.8966   23.8516 C   0  0  0  0  0  0  0  0  0  0  0  0
   18.9506   18.5307   22.8234 H   0  0  0  0  0  0  0  0  0  0  0  0
   18.1458   18.6286   24.3801 H   0  0  0  0  0  0  0  0  0  0  0  0
   20.2529   18.1661   24.5364 C   0  0  0  0  0  0  0  0  0  0  0  0
   20.2972   18.4743   25.5897 H   0  0  0  0  0  0  0  0  0  0  0  0
   20.0430   17.0885   24.5513 H   0  0  0  0  0  0  0  0  0  0  0  0
   21.6437   18.4068   23.8917 C   0  0  0  0  0  0  0  0  0  0  0  0
   22.3921   17.8261   24.4477 H   0  0  0  0  0  0  0  0  0  0  0  0
   21.9280   19.4590   24.0233 H   0  0  0  0  0  0  0  0  0  0  0  0
   21.7462   18.0434   22.3898 C   0  0  0  0  0  0  0  0  0  0  0  0
   21.0686   18.6759   21.8010 H   0  0  0  0  0  0  0  0  0  0  0  0
   22.7610   18.2785   22.0410 H   0  0  0  0  0  0  0  0  0  0  0  0
   21.4535   16.5552   22.1007 C   0  0  0  0  0  0  0  0  0  0  0  0
   20.4124   16.3009   22.3361 H   0  0  0  0  0  0  0  0  0  0  0  0
   21.6196   16.3299   21.0395 H   0  0  0  0  0  0  0  0  0  0  0  0
   22.1098   15.9038   22.6923 H   0  0  0  0  0  0  0  0  0  0  0  0
  1  2  1  0  0  0  0
  1  3  2  0  0  0  0
  1  4  1  0  0  0  0
  4  5  1  0  0  0  0
  4  6  1  0  0  0  0
  4  7  1  0  0  0  0
  7  8  1  0  0  0  0
  7  9  1  0  0  0  0
  7 10  1  0  0  0  0
 10 11  1  0  0  0  0
 10 12  1  0  0  0  0
 10 13  1  0  0  0  0
 13 14  1  0  0  0  0
 13 15  1  0  0  0  0
 13 16  1  0  0  0  0
 16 17  1  0  0  0  0
 16 18  1  0  0  0  0
 16 19  1  0  0  0  0
 19 20  1  0  0  0  0
 19 21  1  0  0  0  0
 19 22  1  0  0  0  0
 22 23  1  0  0  0  0
 22 24  1  0  0  0  0
 22 25  1  0  0  0  0
M  END
> <VConfSearch Rank>
540

> <Conf_Id>
30

> <Delta U+W>
0.843

> <U+W>
-50.787

> <U>
8.647

> <W>
-59.434

> <W(PB)>
-61.861

> <W(SA)>
2.428

> <Valence>
8.924

> <Coulomb>
-1.170

> <VdW>
0.894

> <VdW6>
-10.224

> <VdW12>
11.118

> <Bond>
0.231

> <Angle>
3.232

> <Pdih>
5.460

> <Idih>
0.000

> <Tether>
0.000

$$$$
VeraChem MOL file


 25 24  0  0  0  0  0  0  0  0999 V2000     
   20.3548   14.7211   21.6427 C   0  0  0  0  0  0  0  0  0  0  0  0
   21.2916   14.9467   20.9009 O   0  5  0  0  0  0  0  0  0  0  0  0
   19.8549   13.6205   21.7647 O   0  0  0  0  0  0  0  0  0  0  0  0
   19.7552   15.8561   22.4743 C   0  0  0  0  0  0  0  0  0  0  0  0
   19.8146   15.5564   23.5272 H   0  0  0  0  0  0  0  0  0  0  0  0
   18.6912   15.9218   22.2187 H   0  0  0  0  0  0  0  0  0  0  0  0
   20.4269   17.2422   22.2847 C   0  0  0  0  0  0  0  0  0  0  0  0
   21.4940   17.1676   22.5363 H   0  0  0  0  0  0  0  0  0  0  0  0
   20.3695   17.5334   21.2267 H   0  0  0  0  0  0  0  0  0  0  0  0
   19.7615   18.3273   23.1590 C   0  0  0  0  0  0  0  0  0  0  0  0
   19.8201   18.0341   24.2162 H   0  0  0  0  0  0  0  0  0  0  0  0
   18.6949   18.4001   22.9057 H   0  0  0  0  0  0  0  0  0  0  0  0
   20.4313   19.7053   22.9688 C   0  0  0  0  0  0  0  0  0  0  0  0
   21.4979   19.6329   23.2220 H   0  0  0  0  0  0  0  0  0  0  0  0
   20.3728   19.9988   21.9117 H   0  0  0  0  0  0  0  0  0  0  0  0
   19.7664   20.7908   23.8427 C   0  0  0  0  0  0  0  0  0  0  0  0
   19.8248   20.4975   24.8999 H   0  0  0  0  0  0  0  0  0  0  0  0
   18.6998   20.8634   23.5895 H   0  0  0  0  0  0  0  0  0  0  0  0
   20.4358   22.1682   23.6527 C   0  0  0  0  0  0  0  0  0  0  0  0
   21.5027   22.0998   23.9069 H   0  0  0  0  0  0  0  0  0  0  0  0
   20.3777   22.4658   22.5965 H   0  0  0  0  0  0  0  0  0  0  0  0
   19.7691   23.2493   24.5270 C   0  0  0  0  0  0  0  0  0  0  0  0
   19.8406   22.9923   25.5920 H   0  0  0  0  0  0  0  0  0  0  0  0
   20.2573   24.2214   24.3795 H   0  0  0  0  0  0  0  0  0  0  0  0
   18.7072   23.3611   24.2718 H   0  0  0  0  0  0  0  0  0  0  0  0
  1  2  1  0  0  0  0
  1  3  2  0  0  0  0
  1  4  1  0  0  0  0
  4  5  1  0  0  0  0
  4  6  1  0  0  0  0
  4  7  1  0  0  0  0
  7  8  1  0  0  0  0
  7  9  1  0  0  0  0
  7 10  1  0  0  0  0
 10 11  1  0  0  0  0
 10 12  1  0  0  0  0
 10 13  1  0  0  0  0
 13 14  1  0  0  0  0
 13 15  1  0  0  0  0
 13 16  1  0  0  0  0
 16 17  1  0  0  0  0
 16 18  1  0  0  0  0
 16 19  1  0  0  0  0
 19 20  1  0  0  0  0
 19 21  1  0  0  0  0
 19 22  1  0  0  0  0
 22 23  1  0  0  0  0
 22 24  1  0  0  0  0
 22 25  1  0  0  0  0
M  END
> <VConfSearch Rank>
541

> <Conf_Id>
0

> <Delta U+W>
0.000

> <U+W>
-51.629

> <U>
6.586

> <W>
-58.216

> <W(PB)>
-60.757

> <W(SA)>
2.541

> <Valence>
8.027

> <Coulomb>
-2.892

> <VdW>
1.451

> <VdW6>
-7.931

> <VdW12>
9.383

> <Bond>
0.149

> <Angle>
2.726

> <Pdih>
5.152

> <Idih>
0.000

> <Tether>
0.000

$$$$
VeraChem MOL file


 25 24  0  0  0  0  0  0  0  0999 V2000     
   17.8083   15.1586   23.8972 C   0  0  0  0  0  0  0  0  0  0  0  0
   17.1533   15.1445   24.9206 O   0  5  0  0  0  0  0  0  0  0  0  0
   17.4928   14.5610   22.8874 O   0  0  0  0  0  0  0  0  0  0  0  0
   19.0852   15.9911   23.8716 C   0  0  0  0  0  0  0  0  0  0  0  0
   19.8001   15.4976   23.2023 H   0  0  0  0  0  0  0  0  0  0  0  0
   19.5207   15.9779   24.8779 H   0  0  0  0  0  0  0  0  0  0  0  0
   18.8427   17.4501   23.4129 C   0  0  0  0  0  0  0  0  0  0  0  0
   18.3944   17.4454   22.4096 H   0  0  0  0  0  0  0  0  0  0  0  0
   18.1149   17.9256   24.0851 H   0  0  0  0  0  0  0  0  0  0  0  0
   20.1496   18.2721   23.3954 C   0  0  0  0  0  0  0  0  0  0  0  0
   20.8754   17.7936   22.7235 H   0  0  0  0  0  0  0  0  0  0  0  0
   20.5958   18.2737   24.3994 H   0  0  0  0  0  0  0  0  0  0  0  0
   19.9047   19.7261   22.9380 C   0  0  0  0  0  0  0  0  0  0  0  0
   19.4585   19.7248   21.9340 H   0  0  0  0  0  0  0  0  0  0  0  0
   19.1790   20.2048   23.6099 H   0  0  0  0  0  0  0  0  0  0  0  0
   21.2112   20.5487   22.9203 C   0  0  0  0  0  0  0  0  0  0  0  0
   21.9371   20.0703   22.2485 H   0  0  0  0  0  0  0  0  0  0  0  0
   21.6576   20.5503   23.9243 H   0  0  0  0  0  0  0  0  0  0  0  0
   20.9665   22.0022   22.4633 C   0  0  0  0  0  0  0  0  0  0  0  0
   20.5217   22.0047   21.4585 H   0  0  0  0  0  0  0  0  0  0  0  0
   20.2423   22.4846   23.1342 H   0  0  0  0  0  0  0  0  0  0  0  0
   22.2735   22.8202   22.4469 C   0  0  0  0  0  0  0  0  0  0  0  0
   22.0811   23.8503   22.1198 H   0  0  0  0  0  0  0  0  0  0  0  0
   22.7240   22.8609   23.4473 H   0  0  0  0  0  0  0  0  0  0  0  0
   23.0056   22.3773   21.7590 H   0  0  0  0  0  0  0  0  0  0  0  0
  1  2  1  0  0  0  0
  1  3  2  0  0  0  0
  1  4  1  0  0  0  0
  4  5  1  0  0  0  0
  4  6  1  0  0  0  0
  4  7  1  0  0  0  0
  7  8  1  0  0  0  0
  7  9  1  0  0  0  0
  7 10  1  0  0  0  0
 10 11  1  0  0  0  0
 10 12  1  0  0  0  0
 10 13  1  0  0  0  0
 13 14  1  0  0  0  0
 13 15  1  0  0  0  0
 13 16  1  0  0  0  0
 16 17  1  0  0  0  0
 16 18  1  0  0  0  0
 16 19  1  0  0  0  0
 19 20  1  0  0  0  0
 19 21  1  0  0  0  0
 19 22  1  0  0  0  0
 22 23  1  0  0  0  0
 22 24  1  0  0  0  0
 22 25  1  0  0  0  0
M  END
> <VConfSearch Rank>
542

> <Conf_Id>
27

> <Delta U+W>
-1.297

> <U+W>
-52.926

> <U>
5.617

> <W>
-58.543

> <W(PB)>
-61.065

> <W(SA)>
2.522

> <Valence>
7.531

> <Coulomb>
-2.818

> <VdW>
0.904

> <VdW6>
-7.640

> <VdW12>
8.544

> <Bond>
0.115

> <Angle>
2.271

> <Pdih>
5.144

> <Idih>
0.001

> <Tether>
0.000

$$$$
VeraChem MOL file


 25 24  0  0  0  0  0  0  0  0999 V2000     
   17.1587   20.7137   25.3865 C   0  0  0  0  0  0  0  0  0  0  0  0
   17.0609   20.3012   26.5255 O   0  5  0  0  0  0  0  0  0  0  0  0
   17.4500   21.8604   25.1089 O   0  0  0  0  0  0  0  0  0  0  0  0
   16.8837   19.7405   24.2436 C   0  0  0  0  0  0  0  0  0  0  0  0
   16.6740   20.3178   23.3350 H   0  0  0  0  0  0  0  0  0  0  0  0
   15.9660   19.1944   24.4917 H   0  0  0  0  0  0  0  0  0  0  0  0
   18.0328   18.7319   23.9842 C   0  0  0  0  0  0  0  0  0  0  0  0
   18.2497   18.1813   24.9102 H   0  0  0  0  0  0  0  0  0  0  0  0
   17.6966   17.9904   23.2469 H   0  0  0  0  0  0  0  0  0  0  0  0
   19.3189   19.4160   23.4687 C   0  0  0  0  0  0  0  0  0  0  0  0
   19.6716   20.1473   24.2091 H   0  0  0  0  0  0  0  0  0  0  0  0
   19.0940   19.9760   22.5506 H   0  0  0  0  0  0  0  0  0  0  0  0
   20.4383   18.3908   23.1869 C   0  0  0  0  0  0  0  0  0  0  0  0
   20.6626   17.8313   24.1055 H   0  0  0  0  0  0  0  0  0  0  0  0
   20.0890   17.6603   22.4445 H   0  0  0  0  0  0  0  0  0  0  0  0
   21.7240   19.0738   22.6726 C   0  0  0  0  0  0  0  0  0  0  0  0
   22.0735   19.8044   23.4149 H   0  0  0  0  0  0  0  0  0  0  0  0
   21.4999   19.6336   21.7542 H   0  0  0  0  0  0  0  0  0  0  0  0
   22.8434   18.0495   22.3913 C   0  0  0  0  0  0  0  0  0  0  0  0
   23.0715   17.4888   23.3085 H   0  0  0  0  0  0  0  0  0  0  0  0
   22.4979   17.3180   21.6476 H   0  0  0  0  0  0  0  0  0  0  0  0
   24.1254   18.7355   21.8781 C   0  0  0  0  0  0  0  0  0  0  0  0
   24.5110   19.4505   22.6167 H   0  0  0  0  0  0  0  0  0  0  0  0
   24.9102   17.9930   21.6834 H   0  0  0  0  0  0  0  0  0  0  0  0
   23.9331   19.2784   20.9434 H   0  0  0  0  0  0  0  0  0  0  0  0
  1  2  1  0  0  0  0
  1  3  2  0  0  0  0
  1  4  1  0  0  0  0
  4  5  1  0  0  0  0
  4  6  1  0  0  0  0
  4  7  1  0  0  0  0
  7  8  1  0  0  0  0
  7  9  1  0  0  0  0
  7 10  1  0  0  0  0
 10 11  1  0  0  0  0
 10 12  1  0  0  0  0
 10 13  1  0  0  0  0
 13 14  1  0  0  0  0
 13 15  1  0  0  0  0
 13 16  1  0  0  0  0
 16 17  1  0  0  0  0
 16 18  1  0  0  0  0
 16 19  1  0  0  0  0
 19 20  1  0  0  0  0
 19 21  1  0  0  0  0
 19 22  1  0  0  0  0
 22 23  1  0  0  0  0
 22 24  1  0  0  0  0
 22 25  1  0  0  0  0
M  END
> <VConfSearch Rank>
543

> <Conf_Id>
37

> <Delta U+W>
-0.230

> <U+W>
-51.860

> <U>
7.816

> <W>
-59.675

> <W(PB)>
-62.180

> <W(SA)>
2.505

> <Valence>
7.785

> <Coulomb>
-0.713

> <VdW>
0.744

> <VdW6>
-8.514

> <VdW12>
9.259

> <Bond>
0.136

> <Angle>
2.433

> <Pdih>
5.216

> <Idih>
0.000

> <Tether>
0.000

$$$$
VeraChem MOL file


 25 24  0  0  0  0  0  0  0  0999 V2000     
   23.7843   18.0513   23.7503 C   0  0  0  0  0  0  0  0  0  0  0  0
   23.8802   16.8448   23.8617 O   0  5  0  0  0  0  0  0  0  0  0  0
   24.0565   18.8329   24.6402 O   0  0  0  0  0  0  0  0  0  0  0  0
   23.3111   18.6141   22.4130 C   0  0  0  0  0  0  0  0  0  0  0  0
   23.8621   18.0898   21.6233 H   0  0  0  0  0  0  0  0  0  0  0  0
   23.6013   19.6701   22.3553 H   0  0  0  0  0  0  0  0  0  0  0  0
   21.7870   18.4632   22.1694 C   0  0  0  0  0  0  0  0  0  0  0  0
   21.5593   18.7651   21.1381 H   0  0  0  0  0  0  0  0  0  0  0  0
   21.5074   17.4041   22.2579 H   0  0  0  0  0  0  0  0  0  0  0  0
   20.9422   19.3110   23.1467 C   0  0  0  0  0  0  0  0  0  0  0  0
   21.2347   20.3668   23.0640 H   0  0  0  0  0  0  0  0  0  0  0  0
   21.1516   19.0028   24.1804 H   0  0  0  0  0  0  0  0  0  0  0  0
   19.4306   19.1705   22.8659 C   0  0  0  0  0  0  0  0  0  0  0  0
   19.2183   19.4809   21.8336 H   0  0  0  0  0  0  0  0  0  0  0  0
   19.1390   18.1145   22.9490 H   0  0  0  0  0  0  0  0  0  0  0  0
   18.5857   20.0168   23.8426 C   0  0  0  0  0  0  0  0  0  0  0  0
   18.8773   21.0728   23.7599 H   0  0  0  0  0  0  0  0  0  0  0  0
   18.7979   19.7066   24.8750 H   0  0  0  0  0  0  0  0  0  0  0  0
   17.0747   19.8762   23.5627 C   0  0  0  0  0  0  0  0  0  0  0  0
   16.8584   20.1874   22.5313 H   0  0  0  0  0  0  0  0  0  0  0  0
   16.7790   18.8212   23.6465 H   0  0  0  0  0  0  0  0  0  0  0  0
   16.2347   20.7228   24.5401 C   0  0  0  0  0  0  0  0  0  0  0  0
   16.4878   21.7877   24.4549 H   0  0  0  0  0  0  0  0  0  0  0  0
   15.1636   20.6109   24.3269 H   0  0  0  0  0  0  0  0  0  0  0  0
   16.4079   20.4113   25.5785 H   0  0  0  0  0  0  0  0  0  0  0  0
  1  2  1  0  0  0  0
  1  3  2  0  0  0  0
  1  4  1  0  0  0  0
  4  5  1  0  0  0  0
  4  6  1  0  0  0  0
  4  7  1  0  0  0  0
  7  8  1  0  0  0  0
  7  9  1  0  0  0  0
  7 10  1  0  0  0  0
 10 11  1  0  0  0  0
 10 12  1  0  0  0  0
 10 13  1  0  0  0  0
 13 14  1  0  0  0  0
 13 15  1  0  0  0  0
 13 16  1  0  0  0  0
 16 17  1  0  0  0  0
 16 18  1  0  0  0  0
 16 19  1  0  0  0  0
 19 20  1  0  0  0  0
 19 21  1  0  0  0  0
 19 22  1  0  0  0  0
 22 23  1  0  0  0  0
 22 24  1  0  0  0  0
 22 25  1  0  0  0  0
M  END
> <VConfSearch Rank>
544

> <Conf_Id>
54

> <Delta U+W>
-0.224

> <U+W>
-51.854

> <U>
7.816

> <W>
-59.670

> <W(PB)>
-62.157

> <W(SA)>
2.487

> <Valence>
7.785

> <Coulomb>
-0.713

> <VdW>
0.744

> <VdW6>
-8.515

> <VdW12>
9.259

> <Bond>
0.136

> <Angle>
2.433

> <Pdih>
5.215

> <Idih>
0.000

> <Tether>
0.000

$$$$
VeraChem MOL file


 25 24  0  0  0  0  0  0  0  0999 V2000     
   17.8896   16.3988   25.3130 C   0  0  0  0  0  0  0  0  0  0  0  0
   17.2106   15.8671   24.4567 O   0  5  0  0  0  0  0  0  0  0  0  0
   18.5439   15.7828   26.1313 O   0  0  0  0  0  0  0  0  0  0  0  0
   17.9085   17.9235   25.3779 C   0  0  0  0  0  0  0  0  0  0  0  0
   17.7738   18.2075   26.4282 H   0  0  0  0  0  0  0  0  0  0  0  0
   17.0394   18.3084   24.8309 H   0  0  0  0  0  0  0  0  0  0  0  0
   19.2115   18.5635   24.8318 C   0  0  0  0  0  0  0  0  0  0  0  0
   19.1944   19.6358   25.0639 H   0  0  0  0  0  0  0  0  0  0  0  0
   20.0753   18.1377   25.3608 H   0  0  0  0  0  0  0  0  0  0  0  0
   19.3783   18.3612   23.3063 C   0  0  0  0  0  0  0  0  0  0  0  0
   18.5370   18.8274   22.7755 H   0  0  0  0  0  0  0  0  0  0  0  0
   19.3294   17.2874   23.0791 H   0  0  0  0  0  0  0  0  0  0  0  0
   20.7127   18.9134   22.7500 C   0  0  0  0  0  0  0  0  0  0  0  0
   21.5530   18.4611   23.2939 H   0  0  0  0  0  0  0  0  0  0  0  0
   20.8052   18.5860   21.7068 H   0  0  0  0  0  0  0  0  0  0  0  0
   20.8180   20.4573   22.8141 C   0  0  0  0  0  0  0  0  0  0  0  0
   20.7332   20.7868   23.8572 H   0  0  0  0  0  0  0  0  0  0  0  0
   19.9747   20.9091   22.2744 H   0  0  0  0  0  0  0  0  0  0  0  0
   22.1483   21.0063   22.2471 C   0  0  0  0  0  0  0  0  0  0  0  0
   22.2006   22.0838   22.4552 H   0  0  0  0  0  0  0  0  0  0  0  0
   22.9949   20.5472   22.7762 H   0  0  0  0  0  0  0  0  0  0  0  0
   22.3048   20.7882   20.7263 C   0  0  0  0  0  0  0  0  0  0  0  0
   22.3813   19.7223   20.4789 H   0  0  0  0  0  0  0  0  0  0  0  0
   21.4513   21.2091   20.1791 H   0  0  0  0  0  0  0  0  0  0  0  0
   23.2157   21.2793   20.3604 H   0  0  0  0  0  0  0  0  0  0  0  0
  1  2  1  0  0  0  0
  1  3  2  0  0  0  0
  1  4  1  0  0  0  0
  4  5  1  0  0  0  0
  4  6  1  0  0  0  0
  4  7  1  0  0  0  0
  7  8  1  0  0  0  0
  7  9  1  0  0  0  0
  7 10  1  0  0  0  0
 10 11  1  0  0  0  0
 10 12  1  0  0  0  0
 10 13  1  0  0  0  0
 13 14  1  0  0  0  0
 13 15  1  0  0  0  0
 13 16  1  0  0  0  0
 16 17  1  0  0  0  0
 16 18  1  0  0  0  0
 16 19  1  0  0  0  0
 19 20  1  0  0  0  0
 19 21  1  0  0  0  0
 19 22  1  0  0  0  0
 22 23  1  0  0  0  0
 22 24  1  0  0  0  0
 22 25  1  0  0  0  0
M  END
> <VConfSearch Rank>
545

> <Conf_Id>
101

> <Delta U+W>
1.534

> <U+W>
-50.095

> <U>
9.416

> <W>
-59.512

> <W(PB)>
-61.988

> <W(SA)>
2.476

> <Valence>
8.939

> <Coulomb>
-0.615

> <VdW>
1.092

> <VdW6>
-9.710

> <VdW12>
10.802

> <Bond>
0.216

> <Angle>
2.979

> <Pdih>
5.743

> <Idih>
0.000

> <Tether>
0.000

$$$$
VeraChem MOL file


 25 24  0  0  0  0  0  0  0  0999 V2000     
   22.4267   22.3027   24.8362 C   0  0  0  0  0  0  0  0  0  0  0  0
   23.2454   22.6046   23.9905 O   0  5  0  0  0  0  0  0  0  0  0  0
   22.1003   23.0355   25.7489 O   0  0  0  0  0  0  0  0  0  0  0  0
   21.7552   20.9378   24.7336 C   0  0  0  0  0  0  0  0  0  0  0  0
   21.5251   20.5950   25.7494 H   0  0  0  0  0  0  0  0  0  0  0  0
   22.4858   20.2390   24.3115 H   0  0  0  0  0  0  0  0  0  0  0  0
   20.4646   20.9682   23.8738 C   0  0  0  0  0  0  0  0  0  0  0  0
   19.7984   21.7479   24.2684 H   0  0  0  0  0  0  0  0  0  0  0  0
   20.7143   21.2654   22.8459 H   0  0  0  0  0  0  0  0  0  0  0  0
   19.6970   19.6246   23.8579 C   0  0  0  0  0  0  0  0  0  0  0  0
   18.7387   19.7884   23.3487 H   0  0  0  0  0  0  0  0  0  0  0  0
   19.4570   19.3247   24.8870 H   0  0  0  0  0  0  0  0  0  0  0  0
   20.4663   18.4846   23.1463 C   0  0  0  0  0  0  0  0  0  0  0  0
   20.7055   18.7840   22.1176 H   0  0  0  0  0  0  0  0  0  0  0  0
   21.4287   18.3245   23.6483 H   0  0  0  0  0  0  0  0  0  0  0  0
   19.7055   17.1342   23.1411 C   0  0  0  0  0  0  0  0  0  0  0  0
   19.5523   16.8087   24.1790 H   0  0  0  0  0  0  0  0  0  0  0  0
   20.3468   16.3726   22.6770 H   0  0  0  0  0  0  0  0  0  0  0  0
   18.3377   17.1421   22.4141 C   0  0  0  0  0  0  0  0  0  0  0  0
   17.9002   16.1367   22.4833 H   0  0  0  0  0  0  0  0  0  0  0  0
   17.6372   17.8121   22.9297 H   0  0  0  0  0  0  0  0  0  0  0  0
   18.4375   17.5383   20.9252 C   0  0  0  0  0  0  0  0  0  0  0  0
   19.1520   16.8957   20.3946 H   0  0  0  0  0  0  0  0  0  0  0  0
   17.4611   17.4368   20.4342 H   0  0  0  0  0  0  0  0  0  0  0  0
   18.7601   18.5809   20.8111 H   0  0  0  0  0  0  0  0  0  0  0  0
  1  2  1  0  0  0  0
  1  3  2  0  0  0  0
  1  4  1  0  0  0  0
  4  5  1  0  0  0  0
  4  6  1  0  0  0  0
  4  7  1  0  0  0  0
  7  8  1  0  0  0  0
  7  9  1  0  0  0  0
  7 10  1  0  0  0  0
 10 11  1  0  0  0  0
 10 12  1  0  0  0  0
 10 13  1  0  0  0  0
 13 14  1  0  0  0  0
 13 15  1  0  0  0  0
 13 16  1  0  0  0  0
 16 17  1  0  0  0  0
 16 18  1  0  0  0  0
 16 19  1  0  0  0  0
 19 20  1  0  0  0  0
 19 21  1  0  0  0  0
 19 22  1  0  0  0  0
 22 23  1  0  0  0  0
 22 24  1  0  0  0  0
 22 25  1  0  0  0  0
M  END
> <VConfSearch Rank>
546

> <Conf_Id>
75

> <Delta U+W>
1.014

> <U+W>
-50.615

> <U>
8.474

> <W>
-59.089

> <W(PB)>
-61.530

> <W(SA)>
2.441

> <Valence>
9.080

> <Coulomb>
-1.772

> <VdW>
1.165

> <VdW6>
-9.830

> <VdW12>
10.996

> <Bond>
0.240

> <Angle>
3.225

> <Pdih>
5.615

> <Idih>
0.001

> <Tether>
0.000

$$$$
VeraChem MOL file


 25 24  0  0  0  0  0  0  0  0999 V2000     
   23.4272   21.6841   22.5643 C   0  0  0  0  0  0  0  0  0  0  0  0
   23.1879   22.3643   21.5862 O   0  5  0  0  0  0  0  0  0  0  0  0
   24.1991   22.0154   23.4424 O   0  0  0  0  0  0  0  0  0  0  0  0
   22.7027   20.3505   22.7083 C   0  0  0  0  0  0  0  0  0  0  0  0
   23.3696   19.6552   23.2320 H   0  0  0  0  0  0  0  0  0  0  0  0
   22.5344   19.9441   21.7038 H   0  0  0  0  0  0  0  0  0  0  0  0
   21.3582   20.4752   23.4665 C   0  0  0  0  0  0  0  0  0  0  0  0
   21.5421   20.8955   24.4651 H   0  0  0  0  0  0  0  0  0  0  0  0
   20.7074   21.1846   22.9366 H   0  0  0  0  0  0  0  0  0  0  0  0
   20.6436   19.1128   23.5978 C   0  0  0  0  0  0  0  0  0  0  0  0
   21.2979   18.4070   24.1275 H   0  0  0  0  0  0  0  0  0  0  0  0
   20.4739   18.6947   22.5984 H   0  0  0  0  0  0  0  0  0  0  0  0
   19.3043   19.2417   24.3610 C   0  0  0  0  0  0  0  0  0  0  0  0
   19.5193   19.6325   25.3650 H   0  0  0  0  0  0  0  0  0  0  0  0
   18.6572   19.9847   23.8753 H   0  0  0  0  0  0  0  0  0  0  0  0
   18.5497   17.8959   24.5091 C   0  0  0  0  0  0  0  0  0  0  0  0
   18.0574   17.8870   25.4912 H   0  0  0  0  0  0  0  0  0  0  0  0
   19.2616   17.0594   24.5248 H   0  0  0  0  0  0  0  0  0  0  0  0
   17.4581   17.6455   23.4392 C   0  0  0  0  0  0  0  0  0  0  0  0
   16.9363   16.7106   23.6860 H   0  0  0  0  0  0  0  0  0  0  0  0
   16.7026   18.4416   23.4908 H   0  0  0  0  0  0  0  0  0  0  0  0
   17.9973   17.5445   21.9972 C   0  0  0  0  0  0  0  0  0  0  0  0
   18.8024   16.8014   21.9284 H   0  0  0  0  0  0  0  0  0  0  0  0
   17.1976   17.2424   21.3087 H   0  0  0  0  0  0  0  0  0  0  0  0
   18.3834   18.5112   21.6508 H   0  0  0  0  0  0  0  0  0  0  0  0
  1  2  1  0  0  0  0
  1  3  2  0  0  0  0
  1  4  1  0  0  0  0
  4  5  1  0  0  0  0
  4  6  1  0  0  0  0
  4  7  1  0  0  0  0
  7  8  1  0  0  0  0
  7  9  1  0  0  0  0
  7 10  1  0  0  0  0
 10 11  1  0  0  0  0
 10 12  1  0  0  0  0
 10 13  1  0  0  0  0
 13 14  1  0  0  0  0
 13 15  1  0  0  0  0
 13 16  1  0  0  0  0
 16 17  1  0  0  0  0
 16 18  1  0  0  0  0
 16 19  1  0  0  0  0
 19 20  1  0  0  0  0
 19 21  1  0  0  0  0
 19 22  1  0  0  0  0
 22 23  1  0  0  0  0
 22 24  1  0  0  0  0
 22 25  1  0  0  0  0
M  END
> <VConfSearch Rank>
547

> <Conf_Id>
125

> <Delta U+W>
2.314

> <U+W>
-49.315

> <U>
9.740

> <W>
-59.054

> <W(PB)>
-61.488

> <W(SA)>
2.433

> <Valence>
10.506

> <Coulomb>
-1.761

> <VdW>
0.994

> <VdW6>
-9.209

> <VdW12>
10.203

> <Bond>
0.193

> <Angle>
2.979

> <Pdih>
7.334

> <Idih>
0.001

> <Tether>
0.000

$$$$
VeraChem MOL file


 25 24  0  0  0  0  0  0  0  0999 V2000     
   17.2900   18.7968   20.3540 C   0  0  0  0  0  0  0  0  0  0  0  0
   17.7486   19.3922   19.3992 O   0  5  0  0  0  0  0  0  0  0  0  0
   16.1589   18.3541   20.3914 O   0  0  0  0  0  0  0  0  0  0  0  0
   18.1744   18.6160   21.5825 C   0  0  0  0  0  0  0  0  0  0  0  0
   19.2086   18.5122   21.2356 H   0  0  0  0  0  0  0  0  0  0  0  0
   17.8964   17.6718   22.0658 H   0  0  0  0  0  0  0  0  0  0  0  0
   18.0498   19.7895   22.5888 C   0  0  0  0  0  0  0  0  0  0  0  0
   18.3755   20.7219   22.1073 H   0  0  0  0  0  0  0  0  0  0  0  0
   16.9892   19.9255   22.8421 H   0  0  0  0  0  0  0  0  0  0  0  0
   18.8472   19.5700   23.8966 C   0  0  0  0  0  0  0  0  0  0  0  0
   18.5125   18.6422   24.3804 H   0  0  0  0  0  0  0  0  0  0  0  0
   18.6078   20.3867   24.5912 H   0  0  0  0  0  0  0  0  0  0  0  0
   20.3780   19.5229   23.6831 C   0  0  0  0  0  0  0  0  0  0  0  0
   20.6337   18.6686   23.0448 H   0  0  0  0  0  0  0  0  0  0  0  0
   20.7029   20.4295   23.1547 H   0  0  0  0  0  0  0  0  0  0  0  0
   21.1369   19.4080   25.0255 C   0  0  0  0  0  0  0  0  0  0  0  0
   20.8488   18.4781   25.5348 H   0  0  0  0  0  0  0  0  0  0  0  0
   20.8274   20.2316   25.6832 H   0  0  0  0  0  0  0  0  0  0  0  0
   22.6747   19.4571   24.8691 C   0  0  0  0  0  0  0  0  0  0  0  0
   22.9668   20.3886   24.3648 H   0  0  0  0  0  0  0  0  0  0  0  0
   23.1295   19.4899   25.8687 H   0  0  0  0  0  0  0  0  0  0  0  0
   23.2507   18.2477   24.1008 C   0  0  0  0  0  0  0  0  0  0  0  0
   22.9149   18.2394   23.0563 H   0  0  0  0  0  0  0  0  0  0  0  0
   24.3478   18.2831   24.0962 H   0  0  0  0  0  0  0  0  0  0  0  0
   22.9450   17.3030   24.5689 H   0  0  0  0  0  0  0  0  0  0  0  0
  1  2  1  0  0  0  0
  1  3  2  0  0  0  0
  1  4  1  0  0  0  0
  4  5  1  0  0  0  0
  4  6  1  0  0  0  0
  4  7  1  0  0  0  0
  7  8  1  0  0  0  0
  7  9  1  0  0  0  0
  7 10  1  0  0  0  0
 10 11  1  0  0  0  0
 10 12  1  0  0  0  0
 10 13  1  0  0  0  0
 13 14  1  0  0  0  0
 13 15  1  0  0  0  0
 13 16  1  0  0  0  0
 16 17  1  0  0  0  0
 16 18  1  0  0  0  0
 16 19  1  0  0  0  0
 19 20  1  0  0  0  0
 19 21  1  0  0  0  0
 19 22  1  0  0  0  0
 22 23  1  0  0  0  0
 22 24  1  0  0  0  0
 22 25  1  0  0  0  0
M  END
> <VConfSearch Rank>
548

> <Conf_Id>
4

> <Delta U+W>
0.189

> <U+W>
-51.441

> <U>
7.701

> <W>
-59.141

> <W(PB)>
-61.609

> <W(SA)>
2.467

> <Valence>
8.550

> <Coulomb>
-1.988

> <VdW>
1.139

> <VdW6>
-8.988

> <VdW12>
10.127

> <Bond>
0.191

> <Angle>
2.738

> <Pdih>
5.621

> <Idih>
0.001

> <Tether>
0.000

$$$$
VeraChem MOL file


 25 24  0  0  0  0  0  0  0  0999 V2000     
   23.2361   21.6225   22.4817 C   0  0  0  0  0  0  0  0  0  0  0  0
   22.7654   22.7230   22.2719 O   0  5  0  0  0  0  0  0  0  0  0  0
   24.4288   21.4051   22.5640 O   0  0  0  0  0  0  0  0  0  0  0  0
   22.2765   20.4539   22.6758 C   0  0  0  0  0  0  0  0  0  0  0  0
   22.7662   19.5463   22.3035 H   0  0  0  0  0  0  0  0  0  0  0  0
   21.4002   20.6342   22.0431 H   0  0  0  0  0  0  0  0  0  0  0  0
   21.8534   20.2652   24.1559 C   0  0  0  0  0  0  0  0  0  0  0  0
   22.7585   20.1821   24.7734 H   0  0  0  0  0  0  0  0  0  0  0  0
   21.3226   21.1625   24.5030 H   0  0  0  0  0  0  0  0  0  0  0  0
   20.9751   19.0135   24.3932 C   0  0  0  0  0  0  0  0  0  0  0  0
   20.8237   18.8948   25.4748 H   0  0  0  0  0  0  0  0  0  0  0  0
   21.5125   18.1172   24.0543 H   0  0  0  0  0  0  0  0  0  0  0  0
   19.5965   19.0884   23.6968 C   0  0  0  0  0  0  0  0  0  0  0  0
   19.0822   20.0107   23.9993 H   0  0  0  0  0  0  0  0  0  0  0  0
   19.7360   19.1384   22.6103 H   0  0  0  0  0  0  0  0  0  0  0  0
   18.7147   17.8673   24.0470 C   0  0  0  0  0  0  0  0  0  0  0  0
   18.6320   17.7870   25.1395 H   0  0  0  0  0  0  0  0  0  0  0  0
   19.2052   16.9462   23.7036 H   0  0  0  0  0  0  0  0  0  0  0  0
   17.2893   17.9469   23.4522 C   0  0  0  0  0  0  0  0  0  0  0  0
   16.6970   17.1083   23.8436 H   0  0  0  0  0  0  0  0  0  0  0  0
   16.7937   18.8646   23.7979 H   0  0  0  0  0  0  0  0  0  0  0  0
   17.2662   17.8938   21.9090 C   0  0  0  0  0  0  0  0  0  0  0  0
   17.7845   16.9996   21.5388 H   0  0  0  0  0  0  0  0  0  0  0  0
   16.2324   17.8615   21.5416 H   0  0  0  0  0  0  0  0  0  0  0  0
   17.7467   18.7771   21.4703 H   0  0  0  0  0  0  0  0  0  0  0  0
  1  2  1  0  0  0  0
  1  3  2  0  0  0  0
  1  4  1  0  0  0  0
  4  5  1  0  0  0  0
  4  6  1  0  0  0  0
  4  7  1  0  0  0  0
  7  8  1  0  0  0  0
  7  9  1  0  0  0  0
  7 10  1  0  0  0  0
 10 11  1  0  0  0  0
 10 12  1  0  0  0  0
 10 13  1  0  0  0  0
 13 14  1  0  0  0  0
 13 15  1  0  0  0  0
 13 16  1  0  0  0  0
 16 17  1  0  0  0  0
 16 18  1  0  0  0  0
 16 19  1  0  0  0  0
 19 20  1  0  0  0  0
 19 21  1  0  0  0  0
 19 22  1  0  0  0  0
 22 23  1  0  0  0  0
 22 24  1  0  0  0  0
 22 25  1  0  0  0  0
M  END
> <VConfSearch Rank>
549

> <Conf_Id>
17

> <Delta U+W>
0.219

> <U+W>
-51.411

> <U>
7.701

> <W>
-59.111

> <W(PB)>
-61.599

> <W(SA)>
2.488

> <Valence>
8.550

> <Coulomb>
-1.988

> <VdW>
1.139

> <VdW6>
-8.988

> <VdW12>
10.127

> <Bond>
0.191

> <Angle>
2.738

> <Pdih>
5.621

> <Idih>
0.001

> <Tether>
0.000

$$$$
VeraChem MOL file


 25 24  0  0  0  0  0  0  0  0999 V2000     
   23.0900   18.5488   21.3768 C   0  0  0  0  0  0  0  0  0  0  0  0
   23.5089   17.4423   21.6548 O   0  5  0  0  0  0  0  0  0  0  0  0
   23.7050   19.5747   21.5923 O   0  0  0  0  0  0  0  0  0  0  0  0
   21.7253   18.6570   20.7024 C   0  0  0  0  0  0  0  0  0  0  0  0
   21.4748   17.6846   20.2614 H   0  0  0  0  0  0  0  0  0  0  0  0
   21.8248   19.3658   19.8719 H   0  0  0  0  0  0  0  0  0  0  0  0
   20.5906   19.1250   21.6501 C   0  0  0  0  0  0  0  0  0  0  0  0
   20.8727   20.0893   22.0932 H   0  0  0  0  0  0  0  0  0  0  0  0
   19.6816   19.3004   21.0591 H   0  0  0  0  0  0  0  0  0  0  0  0
   20.2856   18.0936   22.7627 C   0  0  0  0  0  0  0  0  0  0  0  0
   21.1687   17.9639   23.4036 H   0  0  0  0  0  0  0  0  0  0  0  0
   20.0933   17.1159   22.3002 H   0  0  0  0  0  0  0  0  0  0  0  0
   19.0662   18.4722   23.6364 C   0  0  0  0  0  0  0  0  0  0  0  0
   18.1799   18.5939   22.9987 H   0  0  0  0  0  0  0  0  0  0  0  0
   18.8496   17.6341   24.3128 H   0  0  0  0  0  0  0  0  0  0  0  0
   19.2840   19.7521   24.4764 C   0  0  0  0  0  0  0  0  0  0  0  0
   19.4272   20.6154   23.8138 H   0  0  0  0  0  0  0  0  0  0  0  0
   20.2015   19.6486   25.0717 H   0  0  0  0  0  0  0  0  0  0  0  0
   18.0900   20.0288   25.4143 C   0  0  0  0  0  0  0  0  0  0  0  0
   17.1702   20.1310   24.8219 H   0  0  0  0  0  0  0  0  0  0  0  0
   17.9422   19.1740   26.0887 H   0  0  0  0  0  0  0  0  0  0  0  0
   18.3071   21.3073   26.2485 C   0  0  0  0  0  0  0  0  0  0  0  0
   18.4258   22.1846   25.5992 H   0  0  0  0  0  0  0  0  0  0  0  0
   17.4494   21.4884   26.9094 H   0  0  0  0  0  0  0  0  0  0  0  0
   19.2049   21.2201   26.8744 H   0  0  0  0  0  0  0  0  0  0  0  0
  1  2  1  0  0  0  0
  1  3  2  0  0  0  0
  1  4  1  0  0  0  0
  4  5  1  0  0  0  0
  4  6  1  0  0  0  0
  4  7  1  0  0  0  0
  7  8  1  0  0  0  0
  7  9  1  0  0  0  0
  7 10  1  0  0  0  0
 10 11  1  0  0  0  0
 10 12  1  0  0  0  0
 10 13  1  0  0  0  0
 13 14  1  0  0  0  0
 13 15  1  0  0  0  0
 13 16  1  0  0  0  0
 16 17  1  0  0  0  0
 16 18  1  0  0  0  0
 16 19  1  0  0  0  0
 19 20  1  0  0  0  0
 19 21  1  0  0  0  0
 19 22  1  0  0  0  0
 22 23  1  0  0  0  0
 22 24  1  0  0  0  0
 22 25  1  0  0  0  0
M  END
> <VConfSearch Rank>
550

> <Conf_Id>
142

> <Delta U+W>
0.593

> <U+W>
-51.037

> <U>
8.903

> <W>
-59.940

> <W(PB)>
-62.418

> <W(SA)>
2.478

> <Valence>
8.305

> <Coulomb>
-0.223

> <VdW>
0.821

> <VdW6>
-9.236

> <VdW12>
10.057

> <Bond>
0.173

> <Angle>
2.663

> <Pdih>
5.469

> <Idih>
0.001

> <Tether>
0.000

$$$$
VeraChem MOL file


 25 24  0  0  0  0  0  0  0  0999 V2000     
   19.8050   19.8815   26.8368 C   0  0  0  0  0  0  0  0  0  0  0  0
   19.1265   19.5064   27.7730 O   0  5  0  0  0  0  0  0  0  0  0  0
   20.9946   20.1158   26.9204 O   0  0  0  0  0  0  0  0  0  0  0  0
   19.1173   20.0953   25.4913 C   0  0  0  0  0  0  0  0  0  0  0  0
   19.7803   20.6847   24.8476 H   0  0  0  0  0  0  0  0  0  0  0  0
   18.2305   20.7136   25.6727 H   0  0  0  0  0  0  0  0  0  0  0  0
   18.6918   18.7814   24.7809 C   0  0  0  0  0  0  0  0  0  0  0  0
   17.9758   18.2502   25.4231 H   0  0  0  0  0  0  0  0  0  0  0  0
   18.1450   19.0281   23.8616 H   0  0  0  0  0  0  0  0  0  0  0  0
   19.8652   17.8234   24.4492 C   0  0  0  0  0  0  0  0  0  0  0  0
   19.4611   16.9279   23.9580 H   0  0  0  0  0  0  0  0  0  0  0  0
   20.3176   17.4742   25.3875 H   0  0  0  0  0  0  0  0  0  0  0  0
   20.9793   18.4256   23.5568 C   0  0  0  0  0  0  0  0  0  0  0  0
   21.4711   19.2551   24.0823 H   0  0  0  0  0  0  0  0  0  0  0  0
   21.7532   17.6604   23.4080 H   0  0  0  0  0  0  0  0  0  0  0  0
   20.4742   18.9047   22.1762 C   0  0  0  0  0  0  0  0  0  0  0  0
   19.7521   19.7213   22.3059 H   0  0  0  0  0  0  0  0  0  0  0  0
   19.9449   18.0838   21.6738 H   0  0  0  0  0  0  0  0  0  0  0  0
   21.6337   19.3942   21.2832 C   0  0  0  0  0  0  0  0  0  0  0  0
   22.1663   20.2138   21.7853 H   0  0  0  0  0  0  0  0  0  0  0  0
   22.3598   18.5820   21.1398 H   0  0  0  0  0  0  0  0  0  0  0  0
   21.1277   19.8774   19.9091 C   0  0  0  0  0  0  0  0  0  0  0  0
   20.4234   20.7121   20.0213 H   0  0  0  0  0  0  0  0  0  0  0  0
   21.9647   20.2214   19.2877 H   0  0  0  0  0  0  0  0  0  0  0  0
   20.6170   19.0676   19.3718 H   0  0  0  0  0  0  0  0  0  0  0  0
  1  2  1  0  0  0  0
  1  3  2  0  0  0  0
  1  4  1  0  0  0  0
  4  5  1  0  0  0  0
  4  6  1  0  0  0  0
  4  7  1  0  0  0  0
  7  8  1  0  0  0  0
  7  9  1  0  0  0  0
  7 10  1  0  0  0  0
 10 11  1  0  0  0  0
 10 12  1  0  0  0  0
 10 13  1  0  0  0  0
 13 14  1  0  0  0  0
 13 15  1  0  0  0  0
 13 16  1  0  0  0  0
 16 17  1  0  0  0  0
 16 18  1  0  0  0  0
 16 19  1  0  0  0  0
 19 20  1  0  0  0  0
 19 21  1  0  0  0  0
 19 22  1  0  0  0  0
 22 23  1  0  0  0  0
 22 24  1  0  0  0  0
 22 25  1  0  0  0  0
M  END
> <VConfSearch Rank>
551

> <Conf_Id>
135

> <Delta U+W>
1.314

> <U+W>
-50.316

> <U>
9.773

> <W>
-60.088

> <W(PB)>
-62.535

> <W(SA)>
2.447

> <Valence>
8.741

> <Coulomb>
0.479

> <VdW>
0.552

> <VdW6>
-10.627

> <VdW12>
11.179

> <Bond>
0.227

> <Angle>
3.155

> <Pdih>
5.358

> <Idih>
0.001

> <Tether>
0.000

$$$$
VeraChem MOL file


 25 24  0  0  0  0  0  0  0  0999 V2000     
   24.1790   19.7144   22.3703 C   0  0  0  0  0  0  0  0  0  0  0  0
   24.6740   20.6860   22.9067 O   0  5  0  0  0  0  0  0  0  0  0  0
   24.8265   18.7810   21.9388 O   0  0  0  0  0  0  0  0  0  0  0  0
   22.6603   19.6524   22.2525 C   0  0  0  0  0  0  0  0  0  0  0  0
   22.4128   19.0973   21.3399 H   0  0  0  0  0  0  0  0  0  0  0  0
   22.2955   20.6768   22.1194 H   0  0  0  0  0  0  0  0  0  0  0  0
   21.9908   18.9856   23.4826 C   0  0  0  0  0  0  0  0  0  0  0  0
   22.4518   18.0008   23.6408 H   0  0  0  0  0  0  0  0  0  0  0  0
   22.2051   19.5762   24.3840 H   0  0  0  0  0  0  0  0  0  0  0  0
   20.4624   18.7959   23.3315 C   0  0  0  0  0  0  0  0  0  0  0  0
   20.1146   18.1836   24.1729 H   0  0  0  0  0  0  0  0  0  0  0  0
   20.2491   18.2270   22.4164 H   0  0  0  0  0  0  0  0  0  0  0  0
   19.6740   20.1274   23.3182 C   0  0  0  0  0  0  0  0  0  0  0  0
   19.8464   20.6622   24.2621 H   0  0  0  0  0  0  0  0  0  0  0  0
   20.0606   20.7751   22.5217 H   0  0  0  0  0  0  0  0  0  0  0  0
   18.1499   19.9606   23.0927 C   0  0  0  0  0  0  0  0  0  0  0  0
   17.9625   19.5109   22.1081 H   0  0  0  0  0  0  0  0  0  0  0  0
   17.7109   20.9667   23.0488 H   0  0  0  0  0  0  0  0  0  0  0  0
   17.4131   19.1616   24.1967 C   0  0  0  0  0  0  0  0  0  0  0  0
   17.9525   19.2424   25.1506 H   0  0  0  0  0  0  0  0  0  0  0  0
   16.4281   19.6189   24.3638 H   0  0  0  0  0  0  0  0  0  0  0  0
   17.1941   17.6771   23.8286 C   0  0  0  0  0  0  0  0  0  0  0  0
   18.1421   17.1551   23.6559 H   0  0  0  0  0  0  0  0  0  0  0  0
   16.6658   17.1549   24.6367 H   0  0  0  0  0  0  0  0  0  0  0  0
   16.5877   17.5866   22.9180 H   0  0  0  0  0  0  0  0  0  0  0  0
  1  2  1  0  0  0  0
  1  3  2  0  0  0  0
  1  4  1  0  0  0  0
  4  5  1  0  0  0  0
  4  6  1  0  0  0  0
  4  7  1  0  0  0  0
  7  8  1  0  0  0  0
  7  9  1  0  0  0  0
  7 10  1  0  0  0  0
 10 11  1  0  0  0  0
 10 12  1  0  0  0  0
 10 13  1  0  0  0  0
 13 14  1  0  0  0  0
 13 15  1  0  0  0  0
 13 16  1  0  0  0  0
 16 17  1  0  0  0  0
 16 18  1  0  0  0  0
 16 19  1  0  0  0  0
 19 20  1  0  0  0  0
 19 21  1  0  0  0  0
 19 22  1  0  0  0  0
 22 23  1  0  0  0  0
 22 24  1  0  0  0  0
 22 25  1  0  0  0  0
M  END
> <VConfSearch Rank>
552

> <Conf_Id>
19

> <Delta U+W>
3.222

> <U+W>
-48.407

> <U>
10.617

> <W>
-59.025

> <W(PB)>
-61.462

> <W(SA)>
2.437

> <Valence>
11.188

> <Coulomb>
-1.778

> <VdW>
1.208

> <VdW6>
-9.786

> <VdW12>
10.993

> <Bond>
0.241

> <Angle>
3.294

> <Pdih>
7.653

> <Idih>
0.001

> <Tether>
0.000

$$$$
VeraChem MOL file


 25 24  0  0  0  0  0  0  0  0999 V2000     
   19.0466   22.0893   26.1380 C   0  0  0  0  0  0  0  0  0  0  0  0
   19.7171   23.1010   26.0768 O   0  5  0  0  0  0  0  0  0  0  0  0
   18.4108   21.7617   27.1205 O   0  0  0  0  0  0  0  0  0  0  0  0
   19.0203   21.1682   24.9235 C   0  0  0  0  0  0  0  0  0  0  0  0
   19.1003   21.7957   24.0291 H   0  0  0  0  0  0  0  0  0  0  0  0
   18.0403   20.6774   24.8906 H   0  0  0  0  0  0  0  0  0  0  0  0
   20.1500   20.1058   24.9528 C   0  0  0  0  0  0  0  0  0  0  0  0
   21.1277   20.6069   24.9370 H   0  0  0  0  0  0  0  0  0  0  0  0
   20.0956   19.5634   25.9069 H   0  0  0  0  0  0  0  0  0  0  0  0
   20.0682   19.0798   23.7971 C   0  0  0  0  0  0  0  0  0  0  0  0
   19.0810   18.5981   23.7995 H   0  0  0  0  0  0  0  0  0  0  0  0
   20.8054   18.2913   23.9946 H   0  0  0  0  0  0  0  0  0  0  0  0
   20.3497   19.6948   22.4054 C   0  0  0  0  0  0  0  0  0  0  0  0
   19.6605   20.5294   22.2266 H   0  0  0  0  0  0  0  0  0  0  0  0
   21.3616   20.1220   22.3938 H   0  0  0  0  0  0  0  0  0  0  0  0
   20.1989   18.6980   21.2285 C   0  0  0  0  0  0  0  0  0  0  0  0
   20.3680   19.2576   20.2984 H   0  0  0  0  0  0  0  0  0  0  0  0
   19.1634   18.3352   21.1734 H   0  0  0  0  0  0  0  0  0  0  0  0
   21.1852   17.5036   21.2578 C   0  0  0  0  0  0  0  0  0  0  0  0
   21.4976   17.2801   20.2283 H   0  0  0  0  0  0  0  0  0  0  0  0
   22.1000   17.7776   21.8012 H   0  0  0  0  0  0  0  0  0  0  0  0
   20.5682   16.2209   21.8587 C   0  0  0  0  0  0  0  0  0  0  0  0
   19.6986   15.8953   21.2732 H   0  0  0  0  0  0  0  0  0  0  0  0
   21.3009   15.4036   21.8539 H   0  0  0  0  0  0  0  0  0  0  0  0
   20.2410   16.3714   22.8937 H   0  0  0  0  0  0  0  0  0  0  0  0
  1  2  1  0  0  0  0
  1  3  2  0  0  0  0
  1  4  1  0  0  0  0
  4  5  1  0  0  0  0
  4  6  1  0  0  0  0
  4  7  1  0  0  0  0
  7  8  1  0  0  0  0
  7  9  1  0  0  0  0
  7 10  1  0  0  0  0
 10 11  1  0  0  0  0
 10 12  1  0  0  0  0
 10 13  1  0  0  0  0
 13 14  1  0  0  0  0
 13 15  1  0  0  0  0
 13 16  1  0  0  0  0
 16 17  1  0  0  0  0
 16 18  1  0  0  0  0
 16 19  1  0  0  0  0
 19 20  1  0  0  0  0
 19 21  1  0  0  0  0
 19 22  1  0  0  0  0
 22 23  1  0  0  0  0
 22 24  1  0  0  0  0
 22 25  1  0  0  0  0
M  END
> <VConfSearch Rank>
553

> <Conf_Id>
20

> <Delta U+W>
3.224

> <U+W>
-48.406

> <U>
10.617

> <W>
-59.023

> <W(PB)>
-61.467

> <W(SA)>
2.444

> <Valence>
11.188

> <Coulomb>
-1.778

> <VdW>
1.208

> <VdW6>
-9.786

> <VdW12>
10.993

> <Bond>
0.241

> <Angle>
3.294

> <Pdih>
7.653

> <Idih>
0.001

> <Tether>
0.000

$$$$
VeraChem MOL file


 25 24  0  0  0  0  0  0  0  0999 V2000     
   18.9744   20.2256   26.4843 C   0  0  0  0  0  0  0  0  0  0  0  0
   17.7726   20.3976   26.4234 O   0  5  0  0  0  0  0  0  0  0  0  0
   19.7834   21.1324   26.4645 O   0  0  0  0  0  0  0  0  0  0  0  0
   19.4948   18.8004   26.6617 C   0  0  0  0  0  0  0  0  0  0  0  0
   19.1119   18.4507   27.6273 H   0  0  0  0  0  0  0  0  0  0  0  0
   20.5877   18.8283   26.7489 H   0  0  0  0  0  0  0  0  0  0  0  0
   19.0683   17.7958   25.5544 C   0  0  0  0  0  0  0  0  0  0  0  0
   19.1728   16.7803   25.9595 H   0  0  0  0  0  0  0  0  0  0  0  0
   18.0007   17.9213   25.3259 H   0  0  0  0  0  0  0  0  0  0  0  0
   19.9026   17.8720   24.2517 C   0  0  0  0  0  0  0  0  0  0  0  0
   19.6155   17.0264   23.6119 H   0  0  0  0  0  0  0  0  0  0  0  0
   20.9671   17.7342   24.4858 H   0  0  0  0  0  0  0  0  0  0  0  0
   19.7114   19.1835   23.4566 C   0  0  0  0  0  0  0  0  0  0  0  0
   18.6391   19.3749   23.3131 H   0  0  0  0  0  0  0  0  0  0  0  0
   20.1153   20.0283   24.0285 H   0  0  0  0  0  0  0  0  0  0  0  0
   20.4154   19.1267   22.0834 C   0  0  0  0  0  0  0  0  0  0  0  0
   20.0129   18.2888   21.4978 H   0  0  0  0  0  0  0  0  0  0  0  0
   21.4866   18.9304   22.2286 H   0  0  0  0  0  0  0  0  0  0  0  0
   20.2347   20.4400   21.2934 C   0  0  0  0  0  0  0  0  0  0  0  0
   19.1641   20.6388   21.1457 H   0  0  0  0  0  0  0  0  0  0  0  0
   20.6378   21.2804   21.8754 H   0  0  0  0  0  0  0  0  0  0  0  0
   20.9391   20.3806   19.9230 C   0  0  0  0  0  0  0  0  0  0  0  0
   20.5327   19.5674   19.3074 H   0  0  0  0  0  0  0  0  0  0  0  0
   20.8003   21.3219   19.3756 H   0  0  0  0  0  0  0  0  0  0  0  0
   22.0176   20.2139   20.0427 H   0  0  0  0  0  0  0  0  0  0  0  0
  1  2  1  0  0  0  0
  1  3  2  0  0  0  0
  1  4  1  0  0  0  0
  4  5  1  0  0  0  0
  4  6  1  0  0  0  0
  4  7  1  0  0  0  0
  7  8  1  0  0  0  0
  7  9  1  0  0  0  0
  7 10  1  0  0  0  0
 10 11  1  0  0  0  0
 10 12  1  0  0  0  0
 10 13  1  0  0  0  0
 13 14  1  0  0  0  0
 13 15  1  0  0  0  0
 13 16  1  0  0  0  0
 16 17  1  0  0  0  0
 16 18  1  0  0  0  0
 16 19  1  0  0  0  0
 19 20  1  0  0  0  0
 19 21  1  0  0  0  0
 19 22  1  0  0  0  0
 22 23  1  0  0  0  0
 22 24  1  0  0  0  0
 22 25  1  0  0  0  0
M  END
> <VConfSearch Rank>
554

> <Conf_Id>
24

> <Delta U+W>
1.784

> <U+W>
-49.846

> <U>
10.904

> <W>
-60.749

> <W(PB)>
-63.220

> <W(SA)>
2.471

> <Valence>
9.445

> <Coulomb>
0.780

> <VdW>
0.679

> <VdW6>
-10.008

> <VdW12>
10.687

> <Bond>
0.201

> <Angle>
3.198

> <Pdih>
6.039

> <Idih>
0.006

> <Tether>
0.000

$$$$
VeraChem MOL file


 25 24  0  0  0  0  0  0  0  0999 V2000     
   22.6324   17.0677   22.9589 C   0  0  0  0  0  0  0  0  0  0  0  0
   22.1775   16.1086   22.3666 O   0  5  0  0  0  0  0  0  0  0  0  0
   23.2291   17.9734   22.4104 O   0  0  0  0  0  0  0  0  0  0  0  0
   22.5071   17.1061   24.4808 C   0  0  0  0  0  0  0  0  0  0  0  0
   23.0101   18.0050   24.8574 H   0  0  0  0  0  0  0  0  0  0  0  0
   23.0746   16.2477   24.8584 H   0  0  0  0  0  0  0  0  0  0  0  0
   21.0540   17.0325   25.0288 C   0  0  0  0  0  0  0  0  0  0  0  0
   20.4904   16.2563   24.4927 H   0  0  0  0  0  0  0  0  0  0  0  0
   21.1026   16.7017   26.0751 H   0  0  0  0  0  0  0  0  0  0  0  0
   20.2777   18.3723   24.9935 C   0  0  0  0  0  0  0  0  0  0  0  0
   20.8406   19.1404   25.5412 H   0  0  0  0  0  0  0  0  0  0  0  0
   19.3334   18.2348   25.5380 H   0  0  0  0  0  0  0  0  0  0  0  0
   19.9597   18.8790   23.5684 C   0  0  0  0  0  0  0  0  0  0  0  0
   20.8899   19.1479   23.0522 H   0  0  0  0  0  0  0  0  0  0  0  0
   19.4898   18.0740   22.9869 H   0  0  0  0  0  0  0  0  0  0  0  0
   19.0280   20.1103   23.5946 C   0  0  0  0  0  0  0  0  0  0  0  0
   19.4974   20.9124   24.1805 H   0  0  0  0  0  0  0  0  0  0  0  0
   18.0890   19.8505   24.1021 H   0  0  0  0  0  0  0  0  0  0  0  0
   18.7192   20.6240   22.1726 C   0  0  0  0  0  0  0  0  0  0  0  0
   19.6563   20.8866   21.6623 H   0  0  0  0  0  0  0  0  0  0  0  0
   18.2489   19.8240   21.5840 H   0  0  0  0  0  0  0  0  0  0  0  0
   17.7891   21.8536   22.2018 C   0  0  0  0  0  0  0  0  0  0  0  0
   18.2491   22.6807   22.7583 H   0  0  0  0  0  0  0  0  0  0  0  0
   17.5804   22.2051   21.1831 H   0  0  0  0  0  0  0  0  0  0  0  0
   16.8310   21.6100   22.6793 H   0  0  0  0  0  0  0  0  0  0  0  0
  1  2  1  0  0  0  0
  1  3  2  0  0  0  0
  1  4  1  0  0  0  0
  4  5  1  0  0  0  0
  4  6  1  0  0  0  0
  4  7  1  0  0  0  0
  7  8  1  0  0  0  0
  7  9  1  0  0  0  0
  7 10  1  0  0  0  0
 10 11  1  0  0  0  0
 10 12  1  0  0  0  0
 10 13  1  0  0  0  0
 13 14  1  0  0  0  0
 13 15  1  0  0  0  0
 13 16  1  0  0  0  0
 16 17  1  0  0  0  0
 16 18  1  0  0  0  0
 16 19  1  0  0  0  0
 19 20  1  0  0  0  0
 19 21  1  0  0  0  0
 19 22  1  0  0  0  0
 22 23  1  0  0  0  0
 22 24  1  0  0  0  0
 22 25  1  0  0  0  0
M  END
> <VConfSearch Rank>
555

> <Conf_Id>
9

> <Delta U+W>
1.764

> <U+W>
-49.865

> <U>
10.902

> <W>
-60.768

> <W(PB)>
-63.223

> <W(SA)>
2.456

> <Valence>
9.445

> <Coulomb>
0.778

> <VdW>
0.679

> <VdW6>
-10.007

> <VdW12>
10.687

> <Bond>
0.201

> <Angle>
3.198

> <Pdih>
6.040

> <Idih>
0.006

> <Tether>
0.000

$$$$
VeraChem MOL file


 25 24  0  0  0  0  0  0  0  0999 V2000     
   18.8234   20.9328   26.4284 C   0  0  0  0  0  0  0  0  0  0  0  0
   18.3143   21.8110   25.7603 O   0  5  0  0  0  0  0  0  0  0  0  0
   18.5798   20.7555   27.6057 O   0  0  0  0  0  0  0  0  0  0  0  0
   19.8070   19.9883   25.7471 C   0  0  0  0  0  0  0  0  0  0  0  0
   20.5591   19.6918   26.4878 H   0  0  0  0  0  0  0  0  0  0  0  0
   20.3303   20.5538   24.9701 H   0  0  0  0  0  0  0  0  0  0  0  0
   19.1181   18.7299   25.1559 C   0  0  0  0  0  0  0  0  0  0  0  0
   18.6177   18.2010   25.9789 H   0  0  0  0  0  0  0  0  0  0  0  0
   18.3244   19.0265   24.4563 H   0  0  0  0  0  0  0  0  0  0  0  0
   20.1036   17.7525   24.4660 C   0  0  0  0  0  0  0  0  0  0  0  0
   19.7508   16.7280   24.6472 H   0  0  0  0  0  0  0  0  0  0  0  0
   21.0943   17.8143   24.9366 H   0  0  0  0  0  0  0  0  0  0  0  0
   20.2292   17.9363   22.9326 C   0  0  0  0  0  0  0  0  0  0  0  0
   20.8819   17.1436   22.5427 H   0  0  0  0  0  0  0  0  0  0  0  0
   19.2449   17.7810   22.4716 H   0  0  0  0  0  0  0  0  0  0  0  0
   20.7958   19.3098   22.5018 C   0  0  0  0  0  0  0  0  0  0  0  0
   21.7020   19.5236   23.0843 H   0  0  0  0  0  0  0  0  0  0  0  0
   20.0714   20.1005   22.7371 H   0  0  0  0  0  0  0  0  0  0  0  0
   21.1481   19.3816   20.9977 C   0  0  0  0  0  0  0  0  0  0  0  0
   21.6323   20.3466   20.7943 H   0  0  0  0  0  0  0  0  0  0  0  0
   21.8867   18.6061   20.7519 H   0  0  0  0  0  0  0  0  0  0  0  0
   19.9176   19.2374   20.0761 C   0  0  0  0  0  0  0  0  0  0  0  0
   19.1540   19.9873   20.3205 H   0  0  0  0  0  0  0  0  0  0  0  0
   20.2054   19.3774   19.0261 H   0  0  0  0  0  0  0  0  0  0  0  0
   19.4644   18.2422   20.1668 H   0  0  0  0  0  0  0  0  0  0  0  0
  1  2  1  0  0  0  0
  1  3  2  0  0  0  0
  1  4  1  0  0  0  0
  4  5  1  0  0  0  0
  4  6  1  0  0  0  0
  4  7  1  0  0  0  0
  7  8  1  0  0  0  0
  7  9  1  0  0  0  0
  7 10  1  0  0  0  0
 10 11  1  0  0  0  0
 10 12  1  0  0  0  0
 10 13  1  0  0  0  0
 13 14  1  0  0  0  0
 13 15  1  0  0  0  0
 13 16  1  0  0  0  0
 16 17  1  0  0  0  0
 16 18  1  0  0  0  0
 16 19  1  0  0  0  0
 19 20  1  0  0  0  0
 19 21  1  0  0  0  0
 19 22  1  0  0  0  0
 22 23  1  0  0  0  0
 22 24  1  0  0  0  0
 22 25  1  0  0  0  0
M  END
> <VConfSearch Rank>
556

> <Conf_Id>
89

> <Delta U+W>
2.903

> <U+W>
-48.726

> <U>
10.996

> <W>
-59.723

> <W(PB)>
-62.151

> <W(SA)>
2.428

> <Valence>
10.985

> <Coulomb>
-0.995

> <VdW>
1.006

> <VdW6>
-10.062

> <VdW12>
11.069

> <Bond>
0.238

> <Angle>
3.202

> <Pdih>
7.544

> <Idih>
0.001

> <Tether>
0.000

$$$$
VeraChem MOL file


 25 24  0  0  0  0  0  0  0  0999 V2000     
   18.3904   16.9722   25.6966 C   0  0  0  0  0  0  0  0  0  0  0  0
   17.7276   16.3411   24.8968 O   0  5  0  0  0  0  0  0  0  0  0  0
   19.2475   16.4729   26.3992 O   0  0  0  0  0  0  0  0  0  0  0  0
   18.0837   18.4583   25.8720 C   0  0  0  0  0  0  0  0  0  0  0  0
   17.7129   18.5765   26.8967 H   0  0  0  0  0  0  0  0  0  0  0  0
   17.2571   18.7333   25.2058 H   0  0  0  0  0  0  0  0  0  0  0  0
   19.2903   19.4152   25.6577 C   0  0  0  0  0  0  0  0  0  0  0  0
   19.0659   20.3611   26.1690 H   0  0  0  0  0  0  0  0  0  0  0  0
   20.1836   19.0097   26.1527 H   0  0  0  0  0  0  0  0  0  0  0  0
   19.6068   19.7449   24.1775 C   0  0  0  0  0  0  0  0  0  0  0  0
   20.3528   20.5492   24.1686 H   0  0  0  0  0  0  0  0  0  0  0  0
   18.7100   20.1500   23.6894 H   0  0  0  0  0  0  0  0  0  0  0  0
   20.1425   18.5413   23.3646 C   0  0  0  0  0  0  0  0  0  0  0  0
   21.0031   18.0949   23.8810 H   0  0  0  0  0  0  0  0  0  0  0  0
   19.3697   17.7646   23.3176 H   0  0  0  0  0  0  0  0  0  0  0  0
   20.5366   18.9026   21.9122 C   0  0  0  0  0  0  0  0  0  0  0  0
   19.6852   19.3787   21.4069 H   0  0  0  0  0  0  0  0  0  0  0  0
   20.7386   17.9704   21.3671 H   0  0  0  0  0  0  0  0  0  0  0  0
   21.7804   19.8154   21.8150 C   0  0  0  0  0  0  0  0  0  0  0  0
   21.5760   20.7877   22.2812 H   0  0  0  0  0  0  0  0  0  0  0  0
   22.6154   19.3636   22.3679 H   0  0  0  0  0  0  0  0  0  0  0  0
   22.2011   20.0428   20.3489 C   0  0  0  0  0  0  0  0  0  0  0  0
   21.3930   20.5188   19.7781 H   0  0  0  0  0  0  0  0  0  0  0  0
   23.0828   20.6946   20.2962 H   0  0  0  0  0  0  0  0  0  0  0  0
   22.4528   19.0925   19.8599 H   0  0  0  0  0  0  0  0  0  0  0  0
  1  2  1  0  0  0  0
  1  3  2  0  0  0  0
  1  4  1  0  0  0  0
  4  5  1  0  0  0  0
  4  6  1  0  0  0  0
  4  7  1  0  0  0  0
  7  8  1  0  0  0  0
  7  9  1  0  0  0  0
  7 10  1  0  0  0  0
 10 11  1  0  0  0  0
 10 12  1  0  0  0  0
 10 13  1  0  0  0  0
 13 14  1  0  0  0  0
 13 15  1  0  0  0  0
 13 16  1  0  0  0  0
 16 17  1  0  0  0  0
 16 18  1  0  0  0  0
 16 19  1  0  0  0  0
 19 20  1  0  0  0  0
 19 21  1  0  0  0  0
 19 22  1  0  0  0  0
 22 23  1  0  0  0  0
 22 24  1  0  0  0  0
 22 25  1  0  0  0  0
M  END
> <VConfSearch Rank>
557

> <Conf_Id>
114

> <Delta U+W>
2.758

> <U+W>
-48.871

> <U>
11.422

> <W>
-60.293

> <W(PB)>
-62.719

> <W(SA)>
2.425

> <Valence>
10.135

> <Coulomb>
0.369

> <VdW>
0.918

> <VdW6>
-10.482

> <VdW12>
11.400

> <Bond>
0.245

> <Angle>
3.539

> <Pdih>
6.346

> <Idih>
0.006

> <Tether>
0.000

$$$$
VeraChem MOL file


 25 24  0  0  0  0  0  0  0  0999 V2000     
   19.3040   18.5174   19.7206 C   0  0  0  0  0  0  0  0  0  0  0  0
   20.3335   18.1605   19.1824 O   0  5  0  0  0  0  0  0  0  0  0  0
   18.3026   17.8312   19.7794 O   0  0  0  0  0  0  0  0  0  0  0  0
   19.2571   19.9117   20.3393 C   0  0  0  0  0  0  0  0  0  0  0  0
   18.3131   20.3762   20.0309 H   0  0  0  0  0  0  0  0  0  0  0  0
   20.0640   20.5144   19.9053 H   0  0  0  0  0  0  0  0  0  0  0  0
   19.3560   19.9169   21.8869 C   0  0  0  0  0  0  0  0  0  0  0  0
   19.1844   20.9385   22.2518 H   0  0  0  0  0  0  0  0  0  0  0  0
   18.5501   19.2935   22.2959 H   0  0  0  0  0  0  0  0  0  0  0  0
   20.7305   19.4174   22.3935 C   0  0  0  0  0  0  0  0  0  0  0  0
   21.5231   19.9947   21.8982 H   0  0  0  0  0  0  0  0  0  0  0  0
   20.8802   18.3700   22.0969 H   0  0  0  0  0  0  0  0  0  0  0  0
   20.9118   19.5504   23.9246 C   0  0  0  0  0  0  0  0  0  0  0  0
   21.9561   19.3128   24.1637 H   0  0  0  0  0  0  0  0  0  0  0  0
   20.7534   20.5951   24.2248 H   0  0  0  0  0  0  0  0  0  0  0  0
   19.9750   18.6243   24.7389 C   0  0  0  0  0  0  0  0  0  0  0  0
   20.1313   17.5801   24.4357 H   0  0  0  0  0  0  0  0  0  0  0  0
   18.9302   18.8637   24.5042 H   0  0  0  0  0  0  0  0  0  0  0  0
   20.1625   18.7524   26.2689 C   0  0  0  0  0  0  0  0  0  0  0  0
   20.0183   19.7980   26.5743 H   0  0  0  0  0  0  0  0  0  0  0  0
   19.3748   18.1722   26.7691 H   0  0  0  0  0  0  0  0  0  0  0  0
   21.5365   18.2503   26.7639 C   0  0  0  0  0  0  0  0  0  0  0  0
   21.5807   18.2731   27.8604 H   0  0  0  0  0  0  0  0  0  0  0  0
   21.7172   17.2170   26.4401 H   0  0  0  0  0  0  0  0  0  0  0  0
   22.3534   18.8777   26.3866 H   0  0  0  0  0  0  0  0  0  0  0  0
  1  2  1  0  0  0  0
  1  3  2  0  0  0  0
  1  4  1  0  0  0  0
  4  5  1  0  0  0  0
  4  6  1  0  0  0  0
  4  7  1  0  0  0  0
  7  8  1  0  0  0  0
  7  9  1  0  0  0  0
  7 10  1  0  0  0  0
 10 11  1  0  0  0  0
 10 12  1  0  0  0  0
 10 13  1  0  0  0  0
 13 14  1  0  0  0  0
 13 15  1  0  0  0  0
 13 16  1  0  0  0  0
 16 17  1  0  0  0  0
 16 18  1  0  0  0  0
 16 19  1  0  0  0  0
 19 20  1  0  0  0  0
 19 21  1  0  0  0  0
 19 22  1  0  0  0  0
 22 23  1  0  0  0  0
 22 24  1  0  0  0  0
 22 25  1  0  0  0  0
M  END
> <VConfSearch Rank>
558

> <Conf_Id>
87

> <Delta U+W>
1.453

> <U+W>
-50.176

> <U>
9.763

> <W>
-59.940

> <W(PB)>
-62.392

> <W(SA)>
2.452

> <Valence>
8.883

> <Coulomb>
-0.122

> <VdW>
1.003

> <VdW6>
-9.782

> <VdW12>
10.785

> <Bond>
0.212

> <Angle>
2.940

> <Pdih>
5.730

> <Idih>
0.001

> <Tether>
0.000

$$$$
VeraChem MOL file


 25 24  0  0  0  0  0  0  0  0999 V2000     
   21.2000   22.8577   22.8005 C   0  0  0  0  0  0  0  0  0  0  0  0
   20.2671   23.3136   22.1691 O   0  5  0  0  0  0  0  0  0  0  0  0
   21.8653   23.5076   23.5826 O   0  0  0  0  0  0  0  0  0  0  0  0
   21.5432   21.3840   22.6148 C   0  0  0  0  0  0  0  0  0  0  0  0
   22.6266   21.2683   22.7389 H   0  0  0  0  0  0  0  0  0  0  0  0
   21.3033   21.1058   21.5815 H   0  0  0  0  0  0  0  0  0  0  0  0
   20.7895   20.4617   23.6044 C   0  0  0  0  0  0  0  0  0  0  0  0
   21.0326   20.7574   24.6342 H   0  0  0  0  0  0  0  0  0  0  0  0
   19.7091   20.6097   23.4750 H   0  0  0  0  0  0  0  0  0  0  0  0
   21.1501   18.9736   23.3899 C   0  0  0  0  0  0  0  0  0  0  0  0
   22.2405   18.8573   23.4542 H   0  0  0  0  0  0  0  0  0  0  0  0
   20.8706   18.6661   22.3737 H   0  0  0  0  0  0  0  0  0  0  0  0
   20.4966   18.0252   24.4262 C   0  0  0  0  0  0  0  0  0  0  0  0
   20.8486   17.0018   24.2416 H   0  0  0  0  0  0  0  0  0  0  0  0
   20.8628   18.2888   25.4276 H   0  0  0  0  0  0  0  0  0  0  0  0
   18.9451   18.0357   24.4483 C   0  0  0  0  0  0  0  0  0  0  0  0
   18.5932   19.0167   24.7935 H   0  0  0  0  0  0  0  0  0  0  0  0
   18.6012   17.3154   25.2029 H   0  0  0  0  0  0  0  0  0  0  0  0
   18.2641   17.7053   23.0973 C   0  0  0  0  0  0  0  0  0  0  0  0
   17.1752   17.7678   23.2294 H   0  0  0  0  0  0  0  0  0  0  0  0
   18.5231   18.4649   22.3478 H   0  0  0  0  0  0  0  0  0  0  0  0
   18.6201   16.3016   22.5617 C   0  0  0  0  0  0  0  0  0  0  0  0
   18.3841   15.5270   23.3029 H   0  0  0  0  0  0  0  0  0  0  0  0
   18.0506   16.0824   21.6494 H   0  0  0  0  0  0  0  0  0  0  0  0
   19.6865   16.2282   22.3142 H   0  0  0  0  0  0  0  0  0  0  0  0
  1  2  1  0  0  0  0
  1  3  2  0  0  0  0
  1  4  1  0  0  0  0
  4  5  1  0  0  0  0
  4  6  1  0  0  0  0
  4  7  1  0  0  0  0
  7  8  1  0  0  0  0
  7  9  1  0  0  0  0
  7 10  1  0  0  0  0
 10 11  1  0  0  0  0
 10 12  1  0  0  0  0
 10 13  1  0  0  0  0
 13 14  1  0  0  0  0
 13 15  1  0  0  0  0
 13 16  1  0  0  0  0
 16 17  1  0  0  0  0
 16 18  1  0  0  0  0
 16 19  1  0  0  0  0
 19 20  1  0  0  0  0
 19 21  1  0  0  0  0
 19 22  1  0  0  0  0
 22 23  1  0  0  0  0
 22 24  1  0  0  0  0
 22 25  1  0  0  0  0
M  END
> <VConfSearch Rank>
559

> <Conf_Id>
29

> <Delta U+W>
0.850

> <U+W>
-50.780

> <U>
8.646

> <W>
-59.426

> <W(PB)>
-61.868

> <W(SA)>
2.442

> <Valence>
8.924

> <Coulomb>
-1.171

> <VdW>
0.894

> <VdW6>
-10.223

> <VdW12>
11.117

> <Bond>
0.231

> <Angle>
3.232

> <Pdih>
5.461

> <Idih>
0.001

> <Tether>
0.000

$$$$
VeraChem MOL file


 25 24  0  0  0  0  0  0  0  0999 V2000     
   19.2150   20.3734   19.6426 C   0  0  0  0  0  0  0  0  0  0  0  0
   18.1444   20.9315   19.7800 O   0  5  0  0  0  0  0  0  0  0  0  0
   19.5421   19.7839   18.6315 O   0  0  0  0  0  0  0  0  0  0  0  0
   20.1949   20.3981   20.8102 C   0  0  0  0  0  0  0  0  0  0  0  0
   20.0564   21.3417   21.3514 H   0  0  0  0  0  0  0  0  0  0  0  0
   21.2122   20.4047   20.4011 H   0  0  0  0  0  0  0  0  0  0  0  0
   20.0130   19.1991   21.7733 C   0  0  0  0  0  0  0  0  0  0  0  0
   18.9829   19.2024   22.1537 H   0  0  0  0  0  0  0  0  0  0  0  0
   20.1462   18.2616   21.2161 H   0  0  0  0  0  0  0  0  0  0  0  0
   21.0132   19.2525   22.9511 C   0  0  0  0  0  0  0  0  0  0  0  0
   20.8542   20.1702   23.5324 H   0  0  0  0  0  0  0  0  0  0  0  0
   22.0338   19.3189   22.5505 H   0  0  0  0  0  0  0  0  0  0  0  0
   20.9345   18.0176   23.8834 C   0  0  0  0  0  0  0  0  0  0  0  0
   21.1899   17.1199   23.3042 H   0  0  0  0  0  0  0  0  0  0  0  0
   21.7121   18.1047   24.6536 H   0  0  0  0  0  0  0  0  0  0  0  0
   19.5606   17.7903   24.5678 C   0  0  0  0  0  0  0  0  0  0  0  0
   19.6338   16.9047   25.2134 H   0  0  0  0  0  0  0  0  0  0  0  0
   18.8117   17.5395   23.8052 H   0  0  0  0  0  0  0  0  0  0  0  0
   19.0391   18.9799   25.4111 C   0  0  0  0  0  0  0  0  0  0  0  0
   18.8729   19.8546   24.7682 H   0  0  0  0  0  0  0  0  0  0  0  0
   18.0556   18.7136   25.8218 H   0  0  0  0  0  0  0  0  0  0  0  0
   19.9781   19.3599   26.5763 C   0  0  0  0  0  0  0  0  0  0  0  0
   20.9406   19.7350   26.2063 H   0  0  0  0  0  0  0  0  0  0  0  0
   19.5273   20.1492   27.1915 H   0  0  0  0  0  0  0  0  0  0  0  0
   20.1710   18.4945   27.2235 H   0  0  0  0  0  0  0  0  0  0  0  0
  1  2  1  0  0  0  0
  1  3  2  0  0  0  0
  1  4  1  0  0  0  0
  4  5  1  0  0  0  0
  4  6  1  0  0  0  0
  4  7  1  0  0  0  0
  7  8  1  0  0  0  0
  7  9  1  0  0  0  0
  7 10  1  0  0  0  0
 10 11  1  0  0  0  0
 10 12  1  0  0  0  0
 10 13  1  0  0  0  0
 13 14  1  0  0  0  0
 13 15  1  0  0  0  0
 13 16  1  0  0  0  0
 16 17  1  0  0  0  0
 16 18  1  0  0  0  0
 16 19  1  0  0  0  0
 19 20  1  0  0  0  0
 19 21  1  0  0  0  0
 19 22  1  0  0  0  0
 22 23  1  0  0  0  0
 22 24  1  0  0  0  0
 22 25  1  0  0  0  0
M  END
> <VConfSearch Rank>
560

> <Conf_Id>
30

> <Delta U+W>
0.843

> <U+W>
-50.787

> <U>
8.647

> <W>
-59.434

> <W(PB)>
-61.861

> <W(SA)>
2.428

> <Valence>
8.924

> <Coulomb>
-1.170

> <VdW>
0.894

> <VdW6>
-10.224

> <VdW12>
11.118

> <Bond>
0.231

> <Angle>
3.232

> <Pdih>
5.460

> <Idih>
0.000

> <Tether>
0.000

$$$$
VeraChem MOL file


 25 24  0  0  0  0  0  0  0  0999 V2000     
   21.7484   22.6058   20.3818 C   0  0  0  0  0  0  0  0  0  0  0  0
   20.7069   22.7269   19.7660 O   0  5  0  0  0  0  0  0  0  0  0  0
   22.7355   23.2770   20.1552 O   0  0  0  0  0  0  0  0  0  0  0  0
   21.8520   21.5678   21.5004 C   0  0  0  0  0  0  0  0  0  0  0  0
   22.1340   22.1009   22.4159 H   0  0  0  0  0  0  0  0  0  0  0  0
   22.6834   20.8987   21.2495 H   0  0  0  0  0  0  0  0  0  0  0  0
   20.5665   20.7357   21.7527 C   0  0  0  0  0  0  0  0  0  0  0  0
   19.7362   21.4127   21.9972 H   0  0  0  0  0  0  0  0  0  0  0  0
   20.2861   20.2093   20.8297 H   0  0  0  0  0  0  0  0  0  0  0  0
   20.7582   19.7147   22.8953 C   0  0  0  0  0  0  0  0  0  0  0  0
   21.0385   20.2432   23.8168 H   0  0  0  0  0  0  0  0  0  0  0  0
   21.5887   19.0391   22.6486 H   0  0  0  0  0  0  0  0  0  0  0  0
   19.4783   18.8881   23.1445 C   0  0  0  0  0  0  0  0  0  0  0  0
   18.6476   19.5635   23.3912 H   0  0  0  0  0  0  0  0  0  0  0  0
   19.1978   18.3595   22.2231 H   0  0  0  0  0  0  0  0  0  0  0  0
   19.6693   17.8671   24.2868 C   0  0  0  0  0  0  0  0  0  0  0  0
   19.9498   18.3955   25.2084 H   0  0  0  0  0  0  0  0  0  0  0  0
   20.4999   17.1915   24.0403 H   0  0  0  0  0  0  0  0  0  0  0  0
   18.3901   17.0408   24.5361 C   0  0  0  0  0  0  0  0  0  0  0  0
   17.5573   17.7132   24.7849 H   0  0  0  0  0  0  0  0  0  0  0  0
   18.1074   16.5093   23.6168 H   0  0  0  0  0  0  0  0  0  0  0  0
   18.5848   16.0225   25.6774 C   0  0  0  0  0  0  0  0  0  0  0  0
   18.8377   16.5299   26.6177 H   0  0  0  0  0  0  0  0  0  0  0  0
   17.6661   15.4442   25.8409 H   0  0  0  0  0  0  0  0  0  0  0  0
   19.3919   15.3168   25.4408 H   0  0  0  0  0  0  0  0  0  0  0  0
  1  2  1  0  0  0  0
  1  3  2  0  0  0  0
  1  4  1  0  0  0  0
  4  5  1  0  0  0  0
  4  6  1  0  0  0  0
  4  7  1  0  0  0  0
  7  8  1  0  0  0  0
  7  9  1  0  0  0  0
  7 10  1  0  0  0  0
 10 11  1  0  0  0  0
 10 12  1  0  0  0  0
 10 13  1  0  0  0  0
 13 14  1  0  0  0  0
 13 15  1  0  0  0  0
 13 16  1  0  0  0  0
 16 17  1  0  0  0  0
 16 18  1  0  0  0  0
 16 19  1  0  0  0  0
 19 20  1  0  0  0  0
 19 21  1  0  0  0  0
 19 22  1  0  0  0  0
 22 23  1  0  0  0  0
 22 24  1  0  0  0  0
 22 25  1  0  0  0  0
M  END
> <VConfSearch Rank>
561

> <Conf_Id>
0

> <Delta U+W>
0.000

> <U+W>
-51.629

> <U>
6.586

> <W>
-58.216

> <W(PB)>
-60.757

> <W(SA)>
2.541

> <Valence>
8.027

> <Coulomb>
-2.892

> <VdW>
1.451

> <VdW6>
-7.931

> <VdW12>
9.383

> <Bond>
0.149

> <Angle>
2.726

> <Pdih>
5.152

> <Idih>
0.000

> <Tether>
0.000

$$$$
VeraChem MOL file


 25 24  0  0  0  0  0  0  0  0999 V2000     
   23.3436   21.6337   25.4350 C   0  0  0  0  0  0  0  0  0  0  0  0
   23.2900   21.5301   26.6446 O   0  5  0  0  0  0  0  0  0  0  0  0
   24.3766   21.8077   24.8192 O   0  0  0  0  0  0  0  0  0  0  0  0
   22.0455   21.5159   24.6444 C   0  0  0  0  0  0  0  0  0  0  0  0
   22.1296   22.1517   23.7549 H   0  0  0  0  0  0  0  0  0  0  0  0
   21.2341   21.9237   25.2591 H   0  0  0  0  0  0  0  0  0  0  0  0
   21.7231   20.0586   24.2315 C   0  0  0  0  0  0  0  0  0  0  0  0
   22.5509   19.6608   23.6280 H   0  0  0  0  0  0  0  0  0  0  0  0
   21.6556   19.4327   25.1322 H   0  0  0  0  0  0  0  0  0  0  0  0
   20.4050   19.9656   23.4328 C   0  0  0  0  0  0  0  0  0  0  0  0
   20.4753   20.5932   22.5337 H   0  0  0  0  0  0  0  0  0  0  0  0
   19.5798   20.3653   24.0382 H   0  0  0  0  0  0  0  0  0  0  0  0
   20.0861   18.5118   23.0227 C   0  0  0  0  0  0  0  0  0  0  0  0
   20.9110   18.1120   22.4172 H   0  0  0  0  0  0  0  0  0  0  0  0
   20.0156   17.8840   23.9217 H   0  0  0  0  0  0  0  0  0  0  0  0
   18.7680   18.4180   22.2241 C   0  0  0  0  0  0  0  0  0  0  0  0
   18.8381   19.0456   21.3250 H   0  0  0  0  0  0  0  0  0  0  0  0
   17.9428   18.8178   22.8294 H   0  0  0  0  0  0  0  0  0  0  0  0
   18.4490   16.9649   21.8142 C   0  0  0  0  0  0  0  0  0  0  0  0
   19.2716   16.5622   21.2069 H   0  0  0  0  0  0  0  0  0  0  0  0
   18.3762   16.3344   22.7113 H   0  0  0  0  0  0  0  0  0  0  0  0
   17.1323   16.8754   21.0169 C   0  0  0  0  0  0  0  0  0  0  0  0
   16.9211   15.8360   20.7339 H   0  0  0  0  0  0  0  0  0  0  0  0
   16.2865   17.2429   21.6128 H   0  0  0  0  0  0  0  0  0  0  0  0
   17.1886   17.4724   20.0972 H   0  0  0  0  0  0  0  0  0  0  0  0
  1  2  1  0  0  0  0
  1  3  2  0  0  0  0
  1  4  1  0  0  0  0
  4  5  1  0  0  0  0
  4  6  1  0  0  0  0
  4  7  1  0  0  0  0
  7  8  1  0  0  0  0
  7  9  1  0  0  0  0
  7 10  1  0  0  0  0
 10 11  1  0  0  0  0
 10 12  1  0  0  0  0
 10 13  1  0  0  0  0
 13 14  1  0  0  0  0
 13 15  1  0  0  0  0
 13 16  1  0  0  0  0
 16 17  1  0  0  0  0
 16 18  1  0  0  0  0
 16 19  1  0  0  0  0
 19 20  1  0  0  0  0
 19 21  1  0  0  0  0
 19 22  1  0  0  0  0
 22 23  1  0  0  0  0
 22 24  1  0  0  0  0
 22 25  1  0  0  0  0
M  END
> <VConfSearch Rank>
562

> <Conf_Id>
27

> <Delta U+W>
-1.297

> <U+W>
-52.926

> <U>
5.617

> <W>
-58.543

> <W(PB)>
-61.065

> <W(SA)>
2.522

> <Valence>
7.531

> <Coulomb>
-2.818

> <VdW>
0.904

> <VdW6>
-7.640

> <VdW12>
8.544

> <Bond>
0.115

> <Angle>
2.271

> <Pdih>
5.144

> <Idih>
0.001

> <Tether>
0.000

$$$$
VeraChem MOL file


 25 24  0  0  0  0  0  0  0  0999 V2000     
   17.7329   18.4503   26.4388 C   0  0  0  0  0  0  0  0  0  0  0  0
   17.2497   17.3352   26.4525 O   0  5  0  0  0  0  0  0  0  0  0  0
   18.5120   18.8563   27.2785 O   0  0  0  0  0  0  0  0  0  0  0  0
   17.3242   19.3968   25.3136 C   0  0  0  0  0  0  0  0  0  0  0  0
   17.5531   20.4247   25.6203 H   0  0  0  0  0  0  0  0  0  0  0  0
   16.2347   19.3317   25.2099 H   0  0  0  0  0  0  0  0  0  0  0  0
   17.9942   19.0825   23.9508 C   0  0  0  0  0  0  0  0  0  0  0  0
   17.7789   18.0418   23.6709 H   0  0  0  0  0  0  0  0  0  0  0  0
   17.5429   19.7178   23.1768 H   0  0  0  0  0  0  0  0  0  0  0  0
   19.5220   19.3133   23.9725 C   0  0  0  0  0  0  0  0  0  0  0  0
   19.9832   18.6679   24.7329 H   0  0  0  0  0  0  0  0  0  0  0  0
   19.7322   20.3510   24.2659 H   0  0  0  0  0  0  0  0  0  0  0  0
   20.1633   19.0253   22.5980 C   0  0  0  0  0  0  0  0  0  0  0  0
   19.9525   17.9875   22.3054 H   0  0  0  0  0  0  0  0  0  0  0  0
   19.7057   19.6717   21.8365 H   0  0  0  0  0  0  0  0  0  0  0  0
   21.6900   19.2549   22.6191 C   0  0  0  0  0  0  0  0  0  0  0  0
   22.1477   18.6086   23.3806 H   0  0  0  0  0  0  0  0  0  0  0  0
   21.9010   20.2926   22.9119 H   0  0  0  0  0  0  0  0  0  0  0  0
   22.3315   18.9666   21.2455 C   0  0  0  0  0  0  0  0  0  0  0  0
   22.1240   17.9287   20.9502 H   0  0  0  0  0  0  0  0  0  0  0  0
   21.8774   19.6128   20.4816 H   0  0  0  0  0  0  0  0  0  0  0  0
   23.8560   19.1969   21.2710 C   0  0  0  0  0  0  0  0  0  0  0  0
   24.3403   18.5399   22.0052 H   0  0  0  0  0  0  0  0  0  0  0  0
   24.2954   18.9875   20.2870 H   0  0  0  0  0  0  0  0  0  0  0  0
   24.0919   20.2366   21.5331 H   0  0  0  0  0  0  0  0  0  0  0  0
  1  2  1  0  0  0  0
  1  3  2  0  0  0  0
  1  4  1  0  0  0  0
  4  5  1  0  0  0  0
  4  6  1  0  0  0  0
  4  7  1  0  0  0  0
  7  8  1  0  0  0  0
  7  9  1  0  0  0  0
  7 10  1  0  0  0  0
 10 11  1  0  0  0  0
 10 12  1  0  0  0  0
 10 13  1  0  0  0  0
 13 14  1  0  0  0  0
 13 15  1  0  0  0  0
 13 16  1  0  0  0  0
 16 17  1  0  0  0  0
 16 18  1  0  0  0  0
 16 19  1  0  0  0  0
 19 20  1  0  0  0  0
 19 21  1  0  0  0  0
 19 22  1  0  0  0  0
 22 23  1  0  0  0  0
 22 24  1  0  0  0  0
 22 25  1  0  0  0  0
M  END
> <VConfSearch Rank>
563

> <Conf_Id>
37

> <Delta U+W>
-0.230

> <U+W>
-51.860

> <U>
7.816

> <W>
-59.675

> <W(PB)>
-62.180

> <W(SA)>
2.505

> <Valence>
7.785

> <Coulomb>
-0.713

> <VdW>
0.744

> <VdW6>
-8.514

> <VdW12>
9.259

> <Bond>
0.136

> <Angle>
2.433

> <Pdih>
5.216

> <Idih>
0.000

> <Tether>
0.000

$$$$
VeraChem MOL file


 25 24  0  0  0  0  0  0  0  0999 V2000     
   23.1779   18.8574   20.9205 C   0  0  0  0  0  0  0  0  0  0  0  0
   23.8568   19.8591   20.8066 O   0  5  0  0  0  0  0  0  0  0  0  0
   22.5394   18.3702   20.0084 O   0  0  0  0  0  0  0  0  0  0  0  0
   23.1396   18.1659   22.2804 C   0  0  0  0  0  0  0  0  0  0  0  0
   24.1714   18.1046   22.6461 H   0  0  0  0  0  0  0  0  0  0  0  0
   22.7909   17.1357   22.1395 H   0  0  0  0  0  0  0  0  0  0  0  0
   22.2593   18.8906   23.3315 C   0  0  0  0  0  0  0  0  0  0  0  0
   22.3989   18.4068   24.3077 H   0  0  0  0  0  0  0  0  0  0  0  0
   22.6033   19.9286   23.4409 H   0  0  0  0  0  0  0  0  0  0  0  0
   20.7586   18.8726   22.9638 C   0  0  0  0  0  0  0  0  0  0  0  0
   20.4229   17.8335   22.8425 H   0  0  0  0  0  0  0  0  0  0  0  0
   20.6085   19.3705   21.9958 H   0  0  0  0  0  0  0  0  0  0  0  0
   19.8981   19.5711   24.0387 C   0  0  0  0  0  0  0  0  0  0  0  0
   20.0443   19.0730   25.0070 H   0  0  0  0  0  0  0  0  0  0  0  0
   20.2345   20.6100   24.1592 H   0  0  0  0  0  0  0  0  0  0  0  0
   18.3985   19.5541   23.6716 C   0  0  0  0  0  0  0  0  0  0  0  0
   18.0620   18.5152   23.5508 H   0  0  0  0  0  0  0  0  0  0  0  0
   18.2521   20.0520   22.7033 H   0  0  0  0  0  0  0  0  0  0  0  0
   17.5381   20.2527   24.7454 C   0  0  0  0  0  0  0  0  0  0  0  0
   17.6807   19.7560   25.7152 H   0  0  0  0  0  0  0  0  0  0  0  0
   17.8707   21.2929   24.8675 H   0  0  0  0  0  0  0  0  0  0  0  0
   16.0414   20.2335   24.3751 C   0  0  0  0  0  0  0  0  0  0  0  0
   15.6741   19.2035   24.2774 H   0  0  0  0  0  0  0  0  0  0  0  0
   15.4449   20.7341   25.1488 H   0  0  0  0  0  0  0  0  0  0  0  0
   15.8656   20.7519   23.4233 H   0  0  0  0  0  0  0  0  0  0  0  0
  1  2  1  0  0  0  0
  1  3  2  0  0  0  0
  1  4  1  0  0  0  0
  4  5  1  0  0  0  0
  4  6  1  0  0  0  0
  4  7  1  0  0  0  0
  7  8  1  0  0  0  0
  7  9  1  0  0  0  0
  7 10  1  0  0  0  0
 10 11  1  0  0  0  0
 10 12  1  0  0  0  0
 10 13  1  0  0  0  0
 13 14  1  0  0  0  0
 13 15  1  0  0  0  0
 13 16  1  0  0  0  0
 16 17  1  0  0  0  0
 16 18  1  0  0  0  0
 16 19  1  0  0  0  0
 19 20  1  0  0  0  0
 19 21  1  0  0  0  0
 19 22  1  0  0  0  0
 22 23  1  0  0  0  0
 22 24  1  0  0  0  0
 22 25  1  0  0  0  0
M  END
> <VConfSearch Rank>
564

> <Conf_Id>
54

> <Delta U+W>
-0.224

> <U+W>
-51.854

> <U>
7.816

> <W>
-59.670

> <W(PB)>
-62.157

> <W(SA)>
2.487

> <Valence>
7.785

> <Coulomb>
-0.713

> <VdW>
0.744

> <VdW6>
-8.515

> <VdW12>
9.259

> <Bond>
0.136

> <Angle>
2.433

> <Pdih>
5.215

> <Idih>
0.000

> <Tether>
0.000

$$$$
VeraChem MOL file


 25 24  0  0  0  0  0  0  0  0999 V2000     
   18.3270   20.6686   20.0302 C   0  0  0  0  0  0  0  0  0  0  0  0
   19.2297   21.1564   19.3787 O   0  5  0  0  0  0  0  0  0  0  0  0
   17.4981   19.9094   19.5680 O   0  0  0  0  0  0  0  0  0  0  0  0
   18.2155   21.0431   21.5055 C   0  0  0  0  0  0  0  0  0  0  0  0
   17.1646   21.2853   21.7026 H   0  0  0  0  0  0  0  0  0  0  0  0
   18.7906   21.9608   21.6786 H   0  0  0  0  0  0  0  0  0  0  0  0
   18.6808   19.9281   22.4780 C   0  0  0  0  0  0  0  0  0  0  0  0
   18.4175   20.2278   23.5001 H   0  0  0  0  0  0  0  0  0  0  0  0
   18.1252   19.0044   22.2647 H   0  0  0  0  0  0  0  0  0  0  0  0
   20.2023   19.6582   22.3875 C   0  0  0  0  0  0  0  0  0  0  0  0
   20.7574   20.5704   22.6455 H   0  0  0  0  0  0  0  0  0  0  0  0
   20.4637   19.4219   21.3469 H   0  0  0  0  0  0  0  0  0  0  0  0
   20.6789   18.4899   23.2836 C   0  0  0  0  0  0  0  0  0  0  0  0
   20.1104   17.5827   23.0381 H   0  0  0  0  0  0  0  0  0  0  0  0
   21.7261   18.2777   23.0335 H   0  0  0  0  0  0  0  0  0  0  0  0
   20.5636   18.7859   24.7994 C   0  0  0  0  0  0  0  0  0  0  0  0
   19.5161   18.9912   25.0534 H   0  0  0  0  0  0  0  0  0  0  0  0
   21.1281   19.6961   25.0434 H   0  0  0  0  0  0  0  0  0  0  0  0
   21.0512   17.6203   25.6917 C   0  0  0  0  0  0  0  0  0  0  0  0
   20.8085   17.8535   26.7376 H   0  0  0  0  0  0  0  0  0  0  0  0
   20.4973   16.7048   25.4419 H   0  0  0  0  0  0  0  0  0  0  0  0
   22.5689   17.3566   25.5832 C   0  0  0  0  0  0  0  0  0  0  0  0
   22.8445   17.0005   24.5829 H   0  0  0  0  0  0  0  0  0  0  0  0
   23.1424   18.2684   25.7950 H   0  0  0  0  0  0  0  0  0  0  0  0
   22.8771   16.5888   26.3046 H   0  0  0  0  0  0  0  0  0  0  0  0
  1  2  1  0  0  0  0
  1  3  2  0  0  0  0
  1  4  1  0  0  0  0
  4  5  1  0  0  0  0
  4  6  1  0  0  0  0
  4  7  1  0  0  0  0
  7  8  1  0  0  0  0
  7  9  1  0  0  0  0
  7 10  1  0  0  0  0
 10 11  1  0  0  0  0
 10 12  1  0  0  0  0
 10 13  1  0  0  0  0
 13 14  1  0  0  0  0
 13 15  1  0  0  0  0
 13 16  1  0  0  0  0
 16 17  1  0  0  0  0
 16 18  1  0  0  0  0
 16 19  1  0  0  0  0
 19 20  1  0  0  0  0
 19 21  1  0  0  0  0
 19 22  1  0  0  0  0
 22 23  1  0  0  0  0
 22 24  1  0  0  0  0
 22 25  1  0  0  0  0
M  END
> <VConfSearch Rank>
565

> <Conf_Id>
101

> <Delta U+W>
1.534

> <U+W>
-50.095

> <U>
9.416

> <W>
-59.512

> <W(PB)>
-61.988

> <W(SA)>
2.476

> <Valence>
8.939

> <Coulomb>
-0.615

> <VdW>
1.092

> <VdW6>
-9.710

> <VdW12>
10.802

> <Bond>
0.216

> <Angle>
2.979

> <Pdih>
5.743

> <Idih>
0.000

> <Tether>
0.000

$$$$
VeraChem MOL file


 25 24  0  0  0  0  0  0  0  0999 V2000     
   23.7699   19.9634   21.4151 C   0  0  0  0  0  0  0  0  0  0  0  0
   23.8295   21.1590   21.2059 O   0  5  0  0  0  0  0  0  0  0  0  0
   24.7443   19.2385   21.4596 O   0  0  0  0  0  0  0  0  0  0  0  0
   22.3990   19.3422   21.6577 C   0  0  0  0  0  0  0  0  0  0  0  0
   22.4211   18.3125   21.2813 H   0  0  0  0  0  0  0  0  0  0  0  0
   21.6720   19.8948   21.0524 H   0  0  0  0  0  0  0  0  0  0  0  0
   21.9911   19.3564   23.1540 C   0  0  0  0  0  0  0  0  0  0  0  0
   22.7898   18.8807   23.7400 H   0  0  0  0  0  0  0  0  0  0  0  0
   21.9244   20.3947   23.5073 H   0  0  0  0  0  0  0  0  0  0  0  0
   20.6613   18.6194   23.4424 C   0  0  0  0  0  0  0  0  0  0  0  0
   20.5358   18.5615   24.5312 H   0  0  0  0  0  0  0  0  0  0  0  0
   20.7269   17.5846   23.0798 H   0  0  0  0  0  0  0  0  0  0  0  0
   19.4250   19.3145   22.8210 C   0  0  0  0  0  0  0  0  0  0  0  0
   19.3589   20.3483   23.1841 H   0  0  0  0  0  0  0  0  0  0  0  0
   19.5518   19.3813   21.7333 H   0  0  0  0  0  0  0  0  0  0  0  0
   18.0934   18.5707   23.0968 C   0  0  0  0  0  0  0  0  0  0  0  0
   18.1471   17.5685   22.6502 H   0  0  0  0  0  0  0  0  0  0  0  0
   17.2842   19.0938   22.5694 H   0  0  0  0  0  0  0  0  0  0  0  0
   17.7045   18.4308   24.5897 C   0  0  0  0  0  0  0  0  0  0  0  0
   16.7520   17.8868   24.6525 H   0  0  0  0  0  0  0  0  0  0  0  0
   18.4411   17.8114   25.1179 H   0  0  0  0  0  0  0  0  0  0  0  0
   17.5497   19.7866   25.3121 C   0  0  0  0  0  0  0  0  0  0  0  0
   16.8345   20.4326   24.7866 H   0  0  0  0  0  0  0  0  0  0  0  0
   17.1826   19.6370   26.3357 H   0  0  0  0  0  0  0  0  0  0  0  0
   18.5092   20.3151   25.3771 H   0  0  0  0  0  0  0  0  0  0  0  0
  1  2  1  0  0  0  0
  1  3  2  0  0  0  0
  1  4  1  0  0  0  0
  4  5  1  0  0  0  0
  4  6  1  0  0  0  0
  4  7  1  0  0  0  0
  7  8  1  0  0  0  0
  7  9  1  0  0  0  0
  7 10  1  0  0  0  0
 10 11  1  0  0  0  0
 10 12  1  0  0  0  0
 10 13  1  0  0  0  0
 13 14  1  0  0  0  0
 13 15  1  0  0  0  0
 13 16  1  0  0  0  0
 16 17  1  0  0  0  0
 16 18  1  0  0  0  0
 16 19  1  0  0  0  0
 19 20  1  0  0  0  0
 19 21  1  0  0  0  0
 19 22  1  0  0  0  0
 22 23  1  0  0  0  0
 22 24  1  0  0  0  0
 22 25  1  0  0  0  0
M  END
> <VConfSearch Rank>
566

> <Conf_Id>
75

> <Delta U+W>
1.014

> <U+W>
-50.615

> <U>
8.474

> <W>
-59.089

> <W(PB)>
-61.530

> <W(SA)>
2.441

> <Valence>
9.080

> <Coulomb>
-1.772

> <VdW>
1.165

> <VdW6>
-9.830

> <VdW12>
10.996

> <Bond>
0.240

> <Angle>
3.225

> <Pdih>
5.615

> <Idih>
0.001

> <Tether>
0.000

$$$$
VeraChem MOL file


 25 24  0  0  0  0  0  0  0  0999 V2000     
   18.1599   20.4643   19.7396 C   0  0  0  0  0  0  0  0  0  0  0  0
   17.7365   19.4843   19.1591 O   0  5  0  0  0  0  0  0  0  0  0  0
   17.6834   21.5758   19.6201 O   0  0  0  0  0  0  0  0  0  0  0  0
   19.3411   20.2856   20.6866 C   0  0  0  0  0  0  0  0  0  0  0  0
   19.9343   21.2077   20.6692 H   0  0  0  0  0  0  0  0  0  0  0  0
   19.9763   19.4837   20.2914 H   0  0  0  0  0  0  0  0  0  0  0  0
   18.9057   19.9572   22.1360 C   0  0  0  0  0  0  0  0  0  0  0  0
   18.2602   20.7629   22.5125 H   0  0  0  0  0  0  0  0  0  0  0  0
   18.3020   19.0390   22.1341 H   0  0  0  0  0  0  0  0  0  0  0  0
   20.1188   19.7795   23.0745 C   0  0  0  0  0  0  0  0  0  0  0  0
   20.7195   20.6993   23.0728 H   0  0  0  0  0  0  0  0  0  0  0  0
   20.7637   18.9822   22.6862 H   0  0  0  0  0  0  0  0  0  0  0  0
   19.6786   19.4576   24.5220 C   0  0  0  0  0  0  0  0  0  0  0  0
   19.0627   20.2916   24.8854 H   0  0  0  0  0  0  0  0  0  0  0  0
   19.0313   18.5701   24.5367 H   0  0  0  0  0  0  0  0  0  0  0  0
   20.8677   19.2640   25.4971 C   0  0  0  0  0  0  0  0  0  0  0  0
   20.5791   19.6766   26.4735 H   0  0  0  0  0  0  0  0  0  0  0  0
   21.7319   19.8564   25.1668 H   0  0  0  0  0  0  0  0  0  0  0  0
   21.2874   17.7900   25.7205 C   0  0  0  0  0  0  0  0  0  0  0  0
   22.0766   17.7643   26.4845 H   0  0  0  0  0  0  0  0  0  0  0  0
   20.4409   17.2249   26.1345 H   0  0  0  0  0  0  0  0  0  0  0  0
   21.8046   17.0804   24.4519 C   0  0  0  0  0  0  0  0  0  0  0  0
   22.6090   17.6575   23.9776 H   0  0  0  0  0  0  0  0  0  0  0  0
   22.2016   16.0881   24.7020 H   0  0  0  0  0  0  0  0  0  0  0  0
   20.9984   16.9389   23.7214 H   0  0  0  0  0  0  0  0  0  0  0  0
  1  2  1  0  0  0  0
  1  3  2  0  0  0  0
  1  4  1  0  0  0  0
  4  5  1  0  0  0  0
  4  6  1  0  0  0  0
  4  7  1  0  0  0  0
  7  8  1  0  0  0  0
  7  9  1  0  0  0  0
  7 10  1  0  0  0  0
 10 11  1  0  0  0  0
 10 12  1  0  0  0  0
 10 13  1  0  0  0  0
 13 14  1  0  0  0  0
 13 15  1  0  0  0  0
 13 16  1  0  0  0  0
 16 17  1  0  0  0  0
 16 18  1  0  0  0  0
 16 19  1  0  0  0  0
 19 20  1  0  0  0  0
 19 21  1  0  0  0  0
 19 22  1  0  0  0  0
 22 23  1  0  0  0  0
 22 24  1  0  0  0  0
 22 25  1  0  0  0  0
M  END
> <VConfSearch Rank>
567

> <Conf_Id>
125

> <Delta U+W>
2.314

> <U+W>
-49.315

> <U>
9.740

> <W>
-59.054

> <W(PB)>
-61.488

> <W(SA)>
2.433

> <Valence>
10.506

> <Coulomb>
-1.761

> <VdW>
0.994

> <VdW6>
-9.209

> <VdW12>
10.203

> <Bond>
0.193

> <Angle>
2.979

> <Pdih>
7.334

> <Idih>
0.001

> <Tether>
0.000

$$$$
VeraChem MOL file


 25 24  0  0  0  0  0  0  0  0999 V2000     
   18.0945   18.9429   26.8542 C   0  0  0  0  0  0  0  0  0  0  0  0
   18.1561   20.0628   27.3218 O   0  5  0  0  0  0  0  0  0  0  0  0
   17.6458   17.9865   27.4547 O   0  0  0  0  0  0  0  0  0  0  0  0
   18.6321   18.7204   25.4451 C   0  0  0  0  0  0  0  0  0  0  0  0
   18.4474   19.6347   24.8702 H   0  0  0  0  0  0  0  0  0  0  0  0
   18.0459   17.9188   24.9801 H   0  0  0  0  0  0  0  0  0  0  0  0
   20.1403   18.3590   25.4290 C   0  0  0  0  0  0  0  0  0  0  0  0
   20.7210   19.1892   25.8544 H   0  0  0  0  0  0  0  0  0  0  0  0
   20.3031   17.4963   26.0897 H   0  0  0  0  0  0  0  0  0  0  0  0
   20.6781   18.0126   24.0202 C   0  0  0  0  0  0  0  0  0  0  0  0
   20.1019   17.1761   23.6016 H   0  0  0  0  0  0  0  0  0  0  0  0
   21.7130   17.6577   24.1204 H   0  0  0  0  0  0  0  0  0  0  0  0
   20.6483   19.2077   23.0393 C   0  0  0  0  0  0  0  0  0  0  0  0
   19.6111   19.5260   22.8796 H   0  0  0  0  0  0  0  0  0  0  0  0
   21.1830   20.0590   23.4818 H   0  0  0  0  0  0  0  0  0  0  0  0
   21.2905   18.8449   21.6802 C   0  0  0  0  0  0  0  0  0  0  0  0
   20.7290   18.0243   21.2131 H   0  0  0  0  0  0  0  0  0  0  0  0
   22.3071   18.4667   21.8542 H   0  0  0  0  0  0  0  0  0  0  0  0
   21.3728   20.0387   20.7004 C   0  0  0  0  0  0  0  0  0  0  0  0
   21.9385   20.8596   21.1624 H   0  0  0  0  0  0  0  0  0  0  0  0
   21.9440   19.7286   19.8145 H   0  0  0  0  0  0  0  0  0  0  0  0
   19.9899   20.5530   20.2447 C   0  0  0  0  0  0  0  0  0  0  0  0
   19.4262   20.9829   21.0821 H   0  0  0  0  0  0  0  0  0  0  0  0
   20.1033   21.3363   19.4842 H   0  0  0  0  0  0  0  0  0  0  0  0
   19.3933   19.7416   19.8079 H   0  0  0  0  0  0  0  0  0  0  0  0
  1  2  1  0  0  0  0
  1  3  2  0  0  0  0
  1  4  1  0  0  0  0
  4  5  1  0  0  0  0
  4  6  1  0  0  0  0
  4  7  1  0  0  0  0
  7  8  1  0  0  0  0
  7  9  1  0  0  0  0
  7 10  1  0  0  0  0
 10 11  1  0  0  0  0
 10 12  1  0  0  0  0
 10 13  1  0  0  0  0
 13 14  1  0  0  0  0
 13 15  1  0  0  0  0
 13 16  1  0  0  0  0
 16 17  1  0  0  0  0
 16 18  1  0  0  0  0
 16 19  1  0  0  0  0
 19 20  1  0  0  0  0
 19 21  1  0  0  0  0
 19 22  1  0  0  0  0
 22 23  1  0  0  0  0
 22 24  1  0  0  0  0
 22 25  1  0  0  0  0
M  END
> <VConfSearch Rank>
568

> <Conf_Id>
4

> <Delta U+W>
0.189

> <U+W>
-51.441

> <U>
7.701

> <W>
-59.141

> <W(PB)>
-61.609

> <W(SA)>
2.467

> <Valence>
8.550

> <Coulomb>
-1.988

> <VdW>
1.139

> <VdW6>
-8.988

> <VdW12>
10.127

> <Bond>
0.191

> <Angle>
2.738

> <Pdih>
5.621

> <Idih>
0.001

> <Tether>
0.000

$$$$
VeraChem MOL file


 25 24  0  0  0  0  0  0  0  0999 V2000     
   16.0682   19.6431   24.1857 C   0  0  0  0  0  0  0  0  0  0  0  0
   15.7715   20.7576   23.8029 O   0  5  0  0  0  0  0  0  0  0  0  0
   15.2587   18.8341   24.5945 O   0  0  0  0  0  0  0  0  0  0  0  0
   17.5340   19.2284   24.1282 C   0  0  0  0  0  0  0  0  0  0  0  0
   17.7218   18.5279   24.9507 H   0  0  0  0  0  0  0  0  0  0  0  0
   18.1402   20.1217   24.3163 H   0  0  0  0  0  0  0  0  0  0  0  0
   17.9208   18.5797   22.7737 C   0  0  0  0  0  0  0  0  0  0  0  0
   17.2328   17.7469   22.5725 H   0  0  0  0  0  0  0  0  0  0  0  0
   17.7728   19.3067   21.9632 H   0  0  0  0  0  0  0  0  0  0  0  0
   19.3718   18.0436   22.7367 C   0  0  0  0  0  0  0  0  0  0  0  0
   19.5184   17.5013   21.7926 H   0  0  0  0  0  0  0  0  0  0  0  0
   19.5137   17.3098   23.5419 H   0  0  0  0  0  0  0  0  0  0  0  0
   20.4412   19.1547   22.8506 C   0  0  0  0  0  0  0  0  0  0  0  0
   20.2668   19.9128   22.0751 H   0  0  0  0  0  0  0  0  0  0  0  0
   20.3465   19.6577   23.8205 H   0  0  0  0  0  0  0  0  0  0  0  0
   21.8715   18.5856   22.7034 C   0  0  0  0  0  0  0  0  0  0  0  0
   21.9398   18.0291   21.7587 H   0  0  0  0  0  0  0  0  0  0  0  0
   22.0657   17.8610   23.5060 H   0  0  0  0  0  0  0  0  0  0  0  0
   22.9705   19.6737   22.7119 C   0  0  0  0  0  0  0  0  0  0  0  0
   23.9359   19.2009   22.4844 H   0  0  0  0  0  0  0  0  0  0  0  0
   22.7823   20.3974   21.9069 H   0  0  0  0  0  0  0  0  0  0  0  0
   23.0866   20.4158   24.0611 C   0  0  0  0  0  0  0  0  0  0  0  0
   23.2435   19.7090   24.8862 H   0  0  0  0  0  0  0  0  0  0  0  0
   23.9363   21.1105   24.0450 H   0  0  0  0  0  0  0  0  0  0  0  0
   22.1837   21.0012   24.2756 H   0  0  0  0  0  0  0  0  0  0  0  0
  1  2  1  0  0  0  0
  1  3  2  0  0  0  0
  1  4  1  0  0  0  0
  4  5  1  0  0  0  0
  4  6  1  0  0  0  0
  4  7  1  0  0  0  0
  7  8  1  0  0  0  0
  7  9  1  0  0  0  0
  7 10  1  0  0  0  0
 10 11  1  0  0  0  0
 10 12  1  0  0  0  0
 10 13  1  0  0  0  0
 13 14  1  0  0  0  0
 13 15  1  0  0  0  0
 13 16  1  0  0  0  0
 16 17  1  0  0  0  0
 16 18  1  0  0  0  0
 16 19  1  0  0  0  0
 19 20  1  0  0  0  0
 19 21  1  0  0  0  0
 19 22  1  0  0  0  0
 22 23  1  0  0  0  0
 22 24  1  0  0  0  0
 22 25  1  0  0  0  0
M  END
> <VConfSearch Rank>
569

> <Conf_Id>
17

> <Delta U+W>
0.219

> <U+W>
-51.411

> <U>
7.701

> <W>
-59.111

> <W(PB)>
-61.599

> <W(SA)>
2.488

> <Valence>
8.550

> <Coulomb>
-1.988

> <VdW>
1.139

> <VdW6>
-8.988

> <VdW12>
10.127

> <Bond>
0.191

> <Angle>
2.738

> <Pdih>
5.621

> <Idih>
0.001

> <Tether>
0.000

$$$$
VeraChem MOL file


 25 24  0  0  0  0  0  0  0  0999 V2000     
   19.2272   15.6300   23.0997 C   0  0  0  0  0  0  0  0  0  0  0  0
   20.1868   14.9720   23.4511 O   0  5  0  0  0  0  0  0  0  0  0  0
   18.7899   15.6294   21.9658 O   0  0  0  0  0  0  0  0  0  0  0  0
   18.5191   16.4901   24.1427 C   0  0  0  0  0  0  0  0  0  0  0  0
   18.7837   16.1191   25.1403 H   0  0  0  0  0  0  0  0  0  0  0  0
   17.4410   16.3325   24.0212 H   0  0  0  0  0  0  0  0  0  0  0  0
   18.8374   18.0037   24.0310 C   0  0  0  0  0  0  0  0  0  0  0  0
   18.5826   18.3467   23.0195 H   0  0  0  0  0  0  0  0  0  0  0  0
   18.1916   18.5564   24.7264 H   0  0  0  0  0  0  0  0  0  0  0  0
   20.3186   18.3219   24.3467 C   0  0  0  0  0  0  0  0  0  0  0  0
   20.9708   17.8297   23.6121 H   0  0  0  0  0  0  0  0  0  0  0  0
   20.5754   17.8923   25.3246 H   0  0  0  0  0  0  0  0  0  0  0  0
   20.6300   19.8371   24.3785 C   0  0  0  0  0  0  0  0  0  0  0  0
   19.9851   20.3301   25.1187 H   0  0  0  0  0  0  0  0  0  0  0  0
   21.6629   19.9724   24.7273 H   0  0  0  0  0  0  0  0  0  0  0  0
   20.4694   20.5278   23.0044 C   0  0  0  0  0  0  0  0  0  0  0  0
   19.4241   20.4680   22.6747 H   0  0  0  0  0  0  0  0  0  0  0  0
   21.0732   19.9984   22.2547 H   0  0  0  0  0  0  0  0  0  0  0  0
   20.8974   22.0096   23.0575 C   0  0  0  0  0  0  0  0  0  0  0  0
   20.2964   22.5417   23.8080 H   0  0  0  0  0  0  0  0  0  0  0  0
   21.9459   22.0817   23.3784 H   0  0  0  0  0  0  0  0  0  0  0  0
   20.7332   22.6980   21.6875 C   0  0  0  0  0  0  0  0  0  0  0  0
   19.6868   22.6693   21.3564 H   0  0  0  0  0  0  0  0  0  0  0  0
   21.0422   23.7499   21.7435 H   0  0  0  0  0  0  0  0  0  0  0  0
   21.3481   22.2042   20.9237 H   0  0  0  0  0  0  0  0  0  0  0  0
  1  2  1  0  0  0  0
  1  3  2  0  0  0  0
  1  4  1  0  0  0  0
  4  5  1  0  0  0  0
  4  6  1  0  0  0  0
  4  7  1  0  0  0  0
  7  8  1  0  0  0  0
  7  9  1  0  0  0  0
  7 10  1  0  0  0  0
 10 11  1  0  0  0  0
 10 12  1  0  0  0  0
 10 13  1  0  0  0  0
 13 14  1  0  0  0  0
 13 15  1  0  0  0  0
 13 16  1  0  0  0  0
 16 17  1  0  0  0  0
 16 18  1  0  0  0  0
 16 19  1  0  0  0  0
 19 20  1  0  0  0  0
 19 21  1  0  0  0  0
 19 22  1  0  0  0  0
 22 23  1  0  0  0  0
 22 24  1  0  0  0  0
 22 25  1  0  0  0  0
M  END
> <VConfSearch Rank>
570

> <Conf_Id>
142

> <Delta U+W>
0.593

> <U+W>
-51.037

> <U>
8.903

> <W>
-59.940

> <W(PB)>
-62.418

> <W(SA)>
2.478

> <Valence>
8.305

> <Coulomb>
-0.223

> <VdW>
0.821

> <VdW6>
-9.236

> <VdW12>
10.057

> <Bond>
0.173

> <Angle>
2.663

> <Pdih>
5.469

> <Idih>
0.001

> <Tether>
0.000

$$$$
VeraChem MOL file


 25 24  0  0  0  0  0  0  0  0999 V2000     
   22.4085   18.0126   20.8924 C   0  0  0  0  0  0  0  0  0  0  0  0
   23.5567   17.6339   20.7674 O   0  5  0  0  0  0  0  0  0  0  0  0
   21.4602   17.4701   20.3601 O   0  0  0  0  0  0  0  0  0  0  0  0
   22.1498   19.2536   21.7422 C   0  0  0  0  0  0  0  0  0  0  0  0
   21.1383   19.6192   21.5314 H   0  0  0  0  0  0  0  0  0  0  0  0
   22.8396   20.0334   21.3995 H   0  0  0  0  0  0  0  0  0  0  0  0
   22.3433   19.0294   23.2668 C   0  0  0  0  0  0  0  0  0  0  0  0
   23.3847   18.7306   23.4492 H   0  0  0  0  0  0  0  0  0  0  0  0
   22.2081   19.9835   23.7926 H   0  0  0  0  0  0  0  0  0  0  0  0
   21.4058   17.9577   23.8809 C   0  0  0  0  0  0  0  0  0  0  0  0
   21.6247   17.8708   24.9538 H   0  0  0  0  0  0  0  0  0  0  0  0
   21.6471   16.9790   23.4439 H   0  0  0  0  0  0  0  0  0  0  0  0
   19.8900   18.2210   23.6979 C   0  0  0  0  0  0  0  0  0  0  0  0
   19.6334   18.1993   22.6303 H   0  0  0  0  0  0  0  0  0  0  0  0
   19.3376   17.3909   24.1587 H   0  0  0  0  0  0  0  0  0  0  0  0
   19.4134   19.5514   24.3253 C   0  0  0  0  0  0  0  0  0  0  0  0
   19.9034   20.3966   23.8248 H   0  0  0  0  0  0  0  0  0  0  0  0
   19.7114   19.5865   25.3820 H   0  0  0  0  0  0  0  0  0  0  0  0
   17.8833   19.7182   24.2147 C   0  0  0  0  0  0  0  0  0  0  0  0
   17.5828   19.6807   23.1584 H   0  0  0  0  0  0  0  0  0  0  0  0
   17.3814   18.8811   24.7194 H   0  0  0  0  0  0  0  0  0  0  0  0
   17.4103   21.0482   24.8353 C   0  0  0  0  0  0  0  0  0  0  0  0
   17.8726   21.9048   24.3276 H   0  0  0  0  0  0  0  0  0  0  0  0
   16.3208   21.1500   24.7481 H   0  0  0  0  0  0  0  0  0  0  0  0
   17.6713   21.0992   25.9005 H   0  0  0  0  0  0  0  0  0  0  0  0
  1  2  1  0  0  0  0
  1  3  2  0  0  0  0
  1  4  1  0  0  0  0
  4  5  1  0  0  0  0
  4  6  1  0  0  0  0
  4  7  1  0  0  0  0
  7  8  1  0  0  0  0
  7  9  1  0  0  0  0
  7 10  1  0  0  0  0
 10 11  1  0  0  0  0
 10 12  1  0  0  0  0
 10 13  1  0  0  0  0
 13 14  1  0  0  0  0
 13 15  1  0  0  0  0
 13 16  1  0  0  0  0
 16 17  1  0  0  0  0
 16 18  1  0  0  0  0
 16 19  1  0  0  0  0
 19 20  1  0  0  0  0
 19 21  1  0  0  0  0
 19 22  1  0  0  0  0
 22 23  1  0  0  0  0
 22 24  1  0  0  0  0
 22 25  1  0  0  0  0
M  END
> <VConfSearch Rank>
571

> <Conf_Id>
135

> <Delta U+W>
1.314

> <U+W>
-50.316

> <U>
9.773

> <W>
-60.088

> <W(PB)>
-62.535

> <W(SA)>
2.447

> <Valence>
8.741

> <Coulomb>
0.479

> <VdW>
0.552

> <VdW6>
-10.627

> <VdW12>
11.179

> <Bond>
0.227

> <Angle>
3.155

> <Pdih>
5.358

> <Idih>
0.001

> <Tether>
0.000

$$$$
VeraChem MOL file


 25 24  0  0  0  0  0  0  0  0999 V2000     
   18.7639   18.5503   27.2040 C   0  0  0  0  0  0  0  0  0  0  0  0
   19.4517   17.7643   27.8252 O   0  5  0  0  0  0  0  0  0  0  0  0
   18.0145   19.3500   27.7290 O   0  0  0  0  0  0  0  0  0  0  0  0
   18.8635   18.5486   25.6828 C   0  0  0  0  0  0  0  0  0  0  0  0
   17.8866   18.8388   25.2781 H   0  0  0  0  0  0  0  0  0  0  0  0
   19.0549   17.5182   25.3637 H   0  0  0  0  0  0  0  0  0  0  0  0
   19.9665   19.5021   25.1536 C   0  0  0  0  0  0  0  0  0  0  0  0
   19.7948   20.5029   25.5736 H   0  0  0  0  0  0  0  0  0  0  0  0
   20.9468   19.1741   25.5260 H   0  0  0  0  0  0  0  0  0  0  0  0
   20.0029   19.6146   23.6106 C   0  0  0  0  0  0  0  0  0  0  0  0
   20.7007   20.4197   23.3484 H   0  0  0  0  0  0  0  0  0  0  0  0
   19.0149   19.9181   23.2386 H   0  0  0  0  0  0  0  0  0  0  0  0
   20.4514   18.3111   22.9076 C   0  0  0  0  0  0  0  0  0  0  0  0
   21.4641   18.0471   23.2413 H   0  0  0  0  0  0  0  0  0  0  0  0
   19.7998   17.4844   23.2166 H   0  0  0  0  0  0  0  0  0  0  0  0
   20.4220   18.3819   21.3599 C   0  0  0  0  0  0  0  0  0  0  0  0
   19.3944   18.5526   21.0107 H   0  0  0  0  0  0  0  0  0  0  0  0
   20.7050   17.3911   20.9788 H   0  0  0  0  0  0  0  0  0  0  0  0
   21.3808   19.4284   20.7388 C   0  0  0  0  0  0  0  0  0  0  0  0
   22.2311   19.6124   21.4098 H   0  0  0  0  0  0  0  0  0  0  0  0
   21.8058   19.0115   19.8153 H   0  0  0  0  0  0  0  0  0  0  0  0
   20.6801   20.7589   20.3837 C   0  0  0  0  0  0  0  0  0  0  0  0
   20.2386   21.2360   21.2661 H   0  0  0  0  0  0  0  0  0  0  0  0
   21.3964   21.4648   19.9437 H   0  0  0  0  0  0  0  0  0  0  0  0
   19.8786   20.5943   19.6519 H   0  0  0  0  0  0  0  0  0  0  0  0
  1  2  1  0  0  0  0
  1  3  2  0  0  0  0
  1  4  1  0  0  0  0
  4  5  1  0  0  0  0
  4  6  1  0  0  0  0
  4  7  1  0  0  0  0
  7  8  1  0  0  0  0
  7  9  1  0  0  0  0
  7 10  1  0  0  0  0
 10 11  1  0  0  0  0
 10 12  1  0  0  0  0
 10 13  1  0  0  0  0
 13 14  1  0  0  0  0
 13 15  1  0  0  0  0
 13 16  1  0  0  0  0
 16 17  1  0  0  0  0
 16 18  1  0  0  0  0
 16 19  1  0  0  0  0
 19 20  1  0  0  0  0
 19 21  1  0  0  0  0
 19 22  1  0  0  0  0
 22 23  1  0  0  0  0
 22 24  1  0  0  0  0
 22 25  1  0  0  0  0
M  END
> <VConfSearch Rank>
572

> <Conf_Id>
19

> <Delta U+W>
3.222

> <U+W>
-48.407

> <U>
10.617

> <W>
-59.025

> <W(PB)>
-61.462

> <W(SA)>
2.437

> <Valence>
11.188

> <Coulomb>
-1.778

> <VdW>
1.208

> <VdW6>
-9.786

> <VdW12>
10.993

> <Bond>
0.241

> <Angle>
3.294

> <Pdih>
7.653

> <Idih>
0.001

> <Tether>
0.000

$$$$
VeraChem MOL file


 25 24  0  0  0  0  0  0  0  0999 V2000     
   22.9613   21.7908   24.9340 C   0  0  0  0  0  0  0  0  0  0  0  0
   23.8055   22.1591   24.1413 O   0  5  0  0  0  0  0  0  0  0  0  0
   23.1057   21.8344   26.1398 O   0  0  0  0  0  0  0  0  0  0  0  0
   21.6580   21.2209   24.3853 C   0  0  0  0  0  0  0  0  0  0  0  0
   21.4320   21.7481   23.4520 H   0  0  0  0  0  0  0  0  0  0  0  0
   20.8575   21.4588   25.0959 H   0  0  0  0  0  0  0  0  0  0  0  0
   21.7263   19.6895   24.1493 C   0  0  0  0  0  0  0  0  0  0  0  0
   22.4986   19.4661   23.4003 H   0  0  0  0  0  0  0  0  0  0  0  0
   22.0501   19.2059   25.0814 H   0  0  0  0  0  0  0  0  0  0  0  0
   20.3781   19.0671   23.7136 C   0  0  0  0  0  0  0  0  0  0  0  0
   19.6020   19.3129   24.4510 H   0  0  0  0  0  0  0  0  0  0  0  0
   20.4918   17.9758   23.7258 H   0  0  0  0  0  0  0  0  0  0  0  0
   19.9217   19.5098   22.3029 C   0  0  0  0  0  0  0  0  0  0  0  0
   19.8701   20.6048   22.2605 H   0  0  0  0  0  0  0  0  0  0  0  0
   20.6765   19.2075   21.5643 H   0  0  0  0  0  0  0  0  0  0  0  0
   18.5377   18.9555   21.8802 C   0  0  0  0  0  0  0  0  0  0  0  0
   18.3001   19.3781   20.8944 H   0  0  0  0  0  0  0  0  0  0  0  0
   17.7595   19.3292   22.5596 H   0  0  0  0  0  0  0  0  0  0  0  0
   18.4608   17.4118   21.7734 C   0  0  0  0  0  0  0  0  0  0  0  0
   17.8252   17.1498   20.9163 H   0  0  0  0  0  0  0  0  0  0  0  0
   19.4536   16.9945   21.5556 H   0  0  0  0  0  0  0  0  0  0  0  0
   17.8633   16.7449   23.0326 C   0  0  0  0  0  0  0  0  0  0  0  0
   16.8397   17.0983   23.2125 H   0  0  0  0  0  0  0  0  0  0  0  0
   17.8249   15.6549   22.9083 H   0  0  0  0  0  0  0  0  0  0  0  0
   18.4567   16.9593   23.9287 H   0  0  0  0  0  0  0  0  0  0  0  0
  1  2  1  0  0  0  0
  1  3  2  0  0  0  0
  1  4  1  0  0  0  0
  4  5  1  0  0  0  0
  4  6  1  0  0  0  0
  4  7  1  0  0  0  0
  7  8  1  0  0  0  0
  7  9  1  0  0  0  0
  7 10  1  0  0  0  0
 10 11  1  0  0  0  0
 10 12  1  0  0  0  0
 10 13  1  0  0  0  0
 13 14  1  0  0  0  0
 13 15  1  0  0  0  0
 13 16  1  0  0  0  0
 16 17  1  0  0  0  0
 16 18  1  0  0  0  0
 16 19  1  0  0  0  0
 19 20  1  0  0  0  0
 19 21  1  0  0  0  0
 19 22  1  0  0  0  0
 22 23  1  0  0  0  0
 22 24  1  0  0  0  0
 22 25  1  0  0  0  0
M  END
> <VConfSearch Rank>
573

> <Conf_Id>
20

> <Delta U+W>
3.224

> <U+W>
-48.406

> <U>
10.617

> <W>
-59.023

> <W(PB)>
-61.467

> <W(SA)>
2.444

> <Valence>
11.188

> <Coulomb>
-1.778

> <VdW>
1.208

> <VdW6>
-9.786

> <VdW12>
10.993

> <Bond>
0.241

> <Angle>
3.294

> <Pdih>
7.653

> <Idih>
0.001

> <Tether>
0.000

$$$$
VeraChem MOL file


 25 24  0  0  0  0  0  0  0  0999 V2000     
   16.9361   18.0451   23.7991 C   0  0  0  0  0  0  0  0  0  0  0  0
   16.9982   17.1712   24.6418 O   0  5  0  0  0  0  0  0  0  0  0  0
   16.9097   17.8240   22.6043 O   0  0  0  0  0  0  0  0  0  0  0  0
   16.8184   19.4950   24.2655 C   0  0  0  0  0  0  0  0  0  0  0  0
   15.8720   19.5661   24.8141 H   0  0  0  0  0  0  0  0  0  0  0  0
   16.7219   20.1451   23.3876 H   0  0  0  0  0  0  0  0  0  0  0  0
   17.9722   19.9932   25.1806 C   0  0  0  0  0  0  0  0  0  0  0  0
   17.6118   20.8717   25.7327 H   0  0  0  0  0  0  0  0  0  0  0  0
   18.2028   19.2332   25.9400 H   0  0  0  0  0  0  0  0  0  0  0  0
   19.2641   20.4044   24.4315 C   0  0  0  0  0  0  0  0  0  0  0  0
   19.9429   20.8768   25.1547 H   0  0  0  0  0  0  0  0  0  0  0  0
   19.0285   21.1725   23.6823 H   0  0  0  0  0  0  0  0  0  0  0  0
   20.0016   19.2272   23.7541 C   0  0  0  0  0  0  0  0  0  0  0  0
   20.1443   18.4147   24.4798 H   0  0  0  0  0  0  0  0  0  0  0  0
   19.3897   18.8248   22.9370 H   0  0  0  0  0  0  0  0  0  0  0  0
   21.3708   19.6612   23.1871 C   0  0  0  0  0  0  0  0  0  0  0  0
   21.9959   20.0585   23.9985 H   0  0  0  0  0  0  0  0  0  0  0  0
   21.2265   20.4769   22.4654 H   0  0  0  0  0  0  0  0  0  0  0  0
   22.1029   18.4892   22.5005 C   0  0  0  0  0  0  0  0  0  0  0  0
   22.2496   17.6718   23.2201 H   0  0  0  0  0  0  0  0  0  0  0  0
   21.4812   18.0901   21.6869 H   0  0  0  0  0  0  0  0  0  0  0  0
   23.4694   18.9257   21.9348 C   0  0  0  0  0  0  0  0  0  0  0  0
   24.1235   19.3001   22.7331 H   0  0  0  0  0  0  0  0  0  0  0  0
   23.9755   18.0804   21.4505 H   0  0  0  0  0  0  0  0  0  0  0  0
   23.3493   19.7217   21.1883 H   0  0  0  0  0  0  0  0  0  0  0  0
  1  2  1  0  0  0  0
  1  3  2  0  0  0  0
  1  4  1  0  0  0  0
  4  5  1  0  0  0  0
  4  6  1  0  0  0  0
  4  7  1  0  0  0  0
  7  8  1  0  0  0  0
  7  9  1  0  0  0  0
  7 10  1  0  0  0  0
 10 11  1  0  0  0  0
 10 12  1  0  0  0  0
 10 13  1  0  0  0  0
 13 14  1  0  0  0  0
 13 15  1  0  0  0  0
 13 16  1  0  0  0  0
 16 17  1  0  0  0  0
 16 18  1  0  0  0  0
 16 19  1  0  0  0  0
 19 20  1  0  0  0  0
 19 21  1  0  0  0  0
 19 22  1  0  0  0  0
 22 23  1  0  0  0  0
 22 24  1  0  0  0  0
 22 25  1  0  0  0  0
M  END
> <VConfSearch Rank>
574

> <Conf_Id>
24

> <Delta U+W>
1.784

> <U+W>
-49.846

> <U>
10.904

> <W>
-60.749

> <W(PB)>
-63.220

> <W(SA)>
2.471

> <Valence>
9.445

> <Coulomb>
0.780

> <VdW>
0.679

> <VdW6>
-10.008

> <VdW12>
10.687

> <Bond>
0.201

> <Angle>
3.198

> <Pdih>
6.039

> <Idih>
0.006

> <Tether>
0.000

$$$$
VeraChem MOL file


 25 24  0  0  0  0  0  0  0  0999 V2000     
   18.4965   20.9266   21.6248 C   0  0  0  0  0  0  0  0  0  0  0  0
   19.1600   21.9384   21.5077 O   0  5  0  0  0  0  0  0  0  0  0  0
   18.4412   20.0589   20.7755 O   0  0  0  0  0  0  0  0  0  0  0  0
   17.6340   20.7659   22.8752 C   0  0  0  0  0  0  0  0  0  0  0  0
   17.0659   19.8309   22.7987 H   0  0  0  0  0  0  0  0  0  0  0  0
   16.9015   21.5809   22.8509 H   0  0  0  0  0  0  0  0  0  0  0  0
   18.4050   20.8188   24.2242 C   0  0  0  0  0  0  0  0  0  0  0  0
   19.1288   21.6456   24.2098 H   0  0  0  0  0  0  0  0  0  0  0  0
   17.6848   21.0621   25.0171 H   0  0  0  0  0  0  0  0  0  0  0  0
   19.1138   19.4996   24.6196 C   0  0  0  0  0  0  0  0  0  0  0  0
   18.3827   18.6800   24.6438 H   0  0  0  0  0  0  0  0  0  0  0  0
   19.4899   19.6079   25.6461 H   0  0  0  0  0  0  0  0  0  0  0  0
   20.2929   19.1165   23.6967 C   0  0  0  0  0  0  0  0  0  0  0  0
   19.9181   18.8752   22.6940 H   0  0  0  0  0  0  0  0  0  0  0  0
   20.9710   19.9742   23.5893 H   0  0  0  0  0  0  0  0  0  0  0  0
   21.0756   17.9030   24.2438 C   0  0  0  0  0  0  0  0  0  0  0  0
   20.3949   17.0479   24.3552 H   0  0  0  0  0  0  0  0  0  0  0  0
   21.4632   18.1362   25.2450 H   0  0  0  0  0  0  0  0  0  0  0  0
   22.2462   17.5126   23.3171 C   0  0  0  0  0  0  0  0  0  0  0  0
   21.8620   17.2769   22.3149 H   0  0  0  0  0  0  0  0  0  0  0  0
   22.9294   18.3658   23.2042 H   0  0  0  0  0  0  0  0  0  0  0  0
   23.0256   16.3005   23.8657 C   0  0  0  0  0  0  0  0  0  0  0  0
   22.3724   15.4230   23.9589 H   0  0  0  0  0  0  0  0  0  0  0  0
   23.8535   16.0370   23.1946 H   0  0  0  0  0  0  0  0  0  0  0  0
   23.4480   16.5202   24.8550 H   0  0  0  0  0  0  0  0  0  0  0  0
  1  2  1  0  0  0  0
  1  3  2  0  0  0  0
  1  4  1  0  0  0  0
  4  5  1  0  0  0  0
  4  6  1  0  0  0  0
  4  7  1  0  0  0  0
  7  8  1  0  0  0  0
  7  9  1  0  0  0  0
  7 10  1  0  0  0  0
 10 11  1  0  0  0  0
 10 12  1  0  0  0  0
 10 13  1  0  0  0  0
 13 14  1  0  0  0  0
 13 15  1  0  0  0  0
 13 16  1  0  0  0  0
 16 17  1  0  0  0  0
 16 18  1  0  0  0  0
 16 19  1  0  0  0  0
 19 20  1  0  0  0  0
 19 21  1  0  0  0  0
 19 22  1  0  0  0  0
 22 23  1  0  0  0  0
 22 24  1  0  0  0  0
 22 25  1  0  0  0  0
M  END
> <VConfSearch Rank>
575

> <Conf_Id>
9

> <Delta U+W>
1.764

> <U+W>
-49.865

> <U>
10.902

> <W>
-60.768

> <W(PB)>
-63.223

> <W(SA)>
2.456

> <Valence>
9.445

> <Coulomb>
0.778

> <VdW>
0.679

> <VdW6>
-10.007

> <VdW12>
10.687

> <Bond>
0.201

> <Angle>
3.198

> <Pdih>
6.040

> <Idih>
0.006

> <Tether>
0.000

$$$$
VeraChem MOL file


 25 24  0  0  0  0  0  0  0  0999 V2000     
   18.5676   22.4980   22.6994 C   0  0  0  0  0  0  0  0  0  0  0  0
   19.4655   22.7562   21.9224 O   0  5  0  0  0  0  0  0  0  0  0  0
   17.5295   23.1267   22.7615 O   0  0  0  0  0  0  0  0  0  0  0  0
   18.7444   21.3070   23.6342 C   0  0  0  0  0  0  0  0  0  0  0  0
   18.2234   21.5334   24.5721 H   0  0  0  0  0  0  0  0  0  0  0  0
   19.8091   21.2242   23.8729 H   0  0  0  0  0  0  0  0  0  0  0  0
   18.2015   19.9849   23.0301 C   0  0  0  0  0  0  0  0  0  0  0  0
   17.1323   20.1247   22.8184 H   0  0  0  0  0  0  0  0  0  0  0  0
   18.6810   19.7864   22.0616 H   0  0  0  0  0  0  0  0  0  0  0  0
   18.3645   18.7632   23.9698 C   0  0  0  0  0  0  0  0  0  0  0  0
   17.4951   18.1064   23.8295 H   0  0  0  0  0  0  0  0  0  0  0  0
   18.3303   19.0827   25.0204 H   0  0  0  0  0  0  0  0  0  0  0  0
   19.6347   17.9142   23.7119 C   0  0  0  0  0  0  0  0  0  0  0  0
   19.6029   17.0368   24.3719 H   0  0  0  0  0  0  0  0  0  0  0  0
   19.6053   17.5291   22.6841 H   0  0  0  0  0  0  0  0  0  0  0  0
   20.9633   18.6709   23.9471 C   0  0  0  0  0  0  0  0  0  0  0  0
   20.9191   19.1814   24.9187 H   0  0  0  0  0  0  0  0  0  0  0  0
   21.0872   19.4496   23.1832 H   0  0  0  0  0  0  0  0  0  0  0  0
   22.2041   17.7481   23.9310 C   0  0  0  0  0  0  0  0  0  0  0  0
   23.0885   18.3411   24.2018 H   0  0  0  0  0  0  0  0  0  0  0  0
   22.1011   16.9740   24.7039 H   0  0  0  0  0  0  0  0  0  0  0  0
   22.4509   17.0828   22.5595 C   0  0  0  0  0  0  0  0  0  0  0  0
   22.5320   17.8373   21.7662 H   0  0  0  0  0  0  0  0  0  0  0  0
   23.3847   16.5062   22.5747 H   0  0  0  0  0  0  0  0  0  0  0  0
   21.6385   16.3935   22.2974 H   0  0  0  0  0  0  0  0  0  0  0  0
  1  2  1  0  0  0  0
  1  3  2  0  0  0  0
  1  4  1  0  0  0  0
  4  5  1  0  0  0  0
  4  6  1  0  0  0  0
  4  7  1  0  0  0  0
  7  8  1  0  0  0  0
  7  9  1  0  0  0  0
  7 10  1  0  0  0  0
 10 11  1  0  0  0  0
 10 12  1  0  0  0  0
 10 13  1  0  0  0  0
 13 14  1  0  0  0  0
 13 15  1  0  0  0  0
 13 16  1  0  0  0  0
 16 17  1  0  0  0  0
 16 18  1  0  0  0  0
 16 19  1  0  0  0  0
 19 20  1  0  0  0  0
 19 21  1  0  0  0  0
 19 22  1  0  0  0  0
 22 23  1  0  0  0  0
 22 24  1  0  0  0  0
 22 25  1  0  0  0  0
M  END
> <VConfSearch Rank>
576

> <Conf_Id>
89

> <Delta U+W>
2.903

> <U+W>
-48.726

> <U>
10.996

> <W>
-59.723

> <W(PB)>
-62.151

> <W(SA)>
2.428

> <Valence>
10.985

> <Coulomb>
-0.995

> <VdW>
1.006

> <VdW6>
-10.062

> <VdW12>
11.069

> <Bond>
0.238

> <Angle>
3.202

> <Pdih>
7.544

> <Idih>
0.001

> <Tether>
0.000

$$$$
VeraChem MOL file


 25 24  0  0  0  0  0  0  0  0999 V2000     
   20.6829   20.2814   20.2987 C   0  0  0  0  0  0  0  0  0  0  0  0
   20.1078   21.3468   20.4057 O   0  5  0  0  0  0  0  0  0  0  0  0
   21.8823   20.1811   20.1281 O   0  0  0  0  0  0  0  0  0  0  0  0
   19.8435   19.0053   20.3152 C   0  0  0  0  0  0  0  0  0  0  0  0
   19.9506   18.5544   19.3219 H   0  0  0  0  0  0  0  0  0  0  0  0
   18.7861   19.2750   20.4247 H   0  0  0  0  0  0  0  0  0  0  0  0
   20.2474   17.9586   21.3917 C   0  0  0  0  0  0  0  0  0  0  0  0
   19.8653   16.9800   21.0710 H   0  0  0  0  0  0  0  0  0  0  0  0
   21.3412   17.8584   21.4261 H   0  0  0  0  0  0  0  0  0  0  0  0
   19.6944   18.2363   22.8118 C   0  0  0  0  0  0  0  0  0  0  0  0
   19.9011   17.3522   23.4275 H   0  0  0  0  0  0  0  0  0  0  0  0
   18.6012   18.3348   22.7698 H   0  0  0  0  0  0  0  0  0  0  0  0
   20.3033   19.4867   23.4916 C   0  0  0  0  0  0  0  0  0  0  0  0
   21.3999   19.4211   23.4813 H   0  0  0  0  0  0  0  0  0  0  0  0
   20.0389   20.3786   22.9106 H   0  0  0  0  0  0  0  0  0  0  0  0
   19.8082   19.7049   24.9417 C   0  0  0  0  0  0  0  0  0  0  0  0
   18.7102   19.7378   24.9550 H   0  0  0  0  0  0  0  0  0  0  0  0
   20.1519   20.6923   25.2791 H   0  0  0  0  0  0  0  0  0  0  0  0
   20.3123   18.6355   25.9375 C   0  0  0  0  0  0  0  0  0  0  0  0
   19.9140   17.6484   25.6696 H   0  0  0  0  0  0  0  0  0  0  0  0
   21.4074   18.5651   25.8825 H   0  0  0  0  0  0  0  0  0  0  0  0
   19.8930   18.9679   27.3838 C   0  0  0  0  0  0  0  0  0  0  0  0
   18.7999   19.0180   27.4737 H   0  0  0  0  0  0  0  0  0  0  0  0
   20.2553   18.1986   28.0780 H   0  0  0  0  0  0  0  0  0  0  0  0
   20.3079   19.9334   27.7016 H   0  0  0  0  0  0  0  0  0  0  0  0
  1  2  1  0  0  0  0
  1  3  2  0  0  0  0
  1  4  1  0  0  0  0
  4  5  1  0  0  0  0
  4  6  1  0  0  0  0
  4  7  1  0  0  0  0
  7  8  1  0  0  0  0
  7  9  1  0  0  0  0
  7 10  1  0  0  0  0
 10 11  1  0  0  0  0
 10 12  1  0  0  0  0
 10 13  1  0  0  0  0
 13 14  1  0  0  0  0
 13 15  1  0  0  0  0
 13 16  1  0  0  0  0
 16 17  1  0  0  0  0
 16 18  1  0  0  0  0
 16 19  1  0  0  0  0
 19 20  1  0  0  0  0
 19 21  1  0  0  0  0
 19 22  1  0  0  0  0
 22 23  1  0  0  0  0
 22 24  1  0  0  0  0
 22 25  1  0  0  0  0
M  END
> <VConfSearch Rank>
577

> <Conf_Id>
114

> <Delta U+W>
2.758

> <U+W>
-48.871

> <U>
11.422

> <W>
-60.293

> <W(PB)>
-62.719

> <W(SA)>
2.425

> <Valence>
10.135

> <Coulomb>
0.369

> <VdW>
0.918

> <VdW6>
-10.482

> <VdW12>
11.400

> <Bond>
0.245

> <Angle>
3.539

> <Pdih>
6.346

> <Idih>
0.006

> <Tether>
0.000

$$$$
VeraChem MOL file


 25 24  0  0  0  0  0  0  0  0999 V2000     
   20.1911   22.2987   25.4662 C   0  0  0  0  0  0  0  0  0  0  0  0
   19.8484   23.1786   24.7012 O   0  5  0  0  0  0  0  0  0  0  0  0
   19.5641   21.9897   26.4605 O   0  0  0  0  0  0  0  0  0  0  0  0
   21.4906   21.5533   25.1755 C   0  0  0  0  0  0  0  0  0  0  0  0
   22.0477   21.4848   26.1173 H   0  0  0  0  0  0  0  0  0  0  0  0
   22.0967   22.1600   24.4918 H   0  0  0  0  0  0  0  0  0  0  0  0
   21.2834   20.1317   24.5914 C   0  0  0  0  0  0  0  0  0  0  0  0
   22.2556   19.6238   24.5359 H   0  0  0  0  0  0  0  0  0  0  0  0
   20.6603   19.5511   25.2841 H   0  0  0  0  0  0  0  0  0  0  0  0
   20.6396   20.1585   23.1842 C   0  0  0  0  0  0  0  0  0  0  0  0
   21.2295   20.8208   22.5360 H   0  0  0  0  0  0  0  0  0  0  0  0
   19.6342   20.5980   23.2413 H   0  0  0  0  0  0  0  0  0  0  0  0
   20.5562   18.7657   22.5149 C   0  0  0  0  0  0  0  0  0  0  0  0
   20.2269   18.9077   21.4778 H   0  0  0  0  0  0  0  0  0  0  0  0
   21.5590   18.3204   22.4651 H   0  0  0  0  0  0  0  0  0  0  0  0
   19.5872   17.7940   23.2328 C   0  0  0  0  0  0  0  0  0  0  0  0
   18.5854   18.2414   23.2854 H   0  0  0  0  0  0  0  0  0  0  0  0
   19.9177   17.6475   24.2688 H   0  0  0  0  0  0  0  0  0  0  0  0
   19.4987   16.4048   22.5585 C   0  0  0  0  0  0  0  0  0  0  0  0
   20.5009   15.9591   22.4936 H   0  0  0  0  0  0  0  0  0  0  0  0
   18.9050   15.7398   23.2008 H   0  0  0  0  0  0  0  0  0  0  0  0
   18.8539   16.4426   21.1557 C   0  0  0  0  0  0  0  0  0  0  0  0
   18.7275   15.4248   20.7643 H   0  0  0  0  0  0  0  0  0  0  0  0
   17.8641   16.9161   21.1908 H   0  0  0  0  0  0  0  0  0  0  0  0
   19.4762   16.9967   20.4422 H   0  0  0  0  0  0  0  0  0  0  0  0
  1  2  1  0  0  0  0
  1  3  2  0  0  0  0
  1  4  1  0  0  0  0
  4  5  1  0  0  0  0
  4  6  1  0  0  0  0
  4  7  1  0  0  0  0
  7  8  1  0  0  0  0
  7  9  1  0  0  0  0
  7 10  1  0  0  0  0
 10 11  1  0  0  0  0
 10 12  1  0  0  0  0
 10 13  1  0  0  0  0
 13 14  1  0  0  0  0
 13 15  1  0  0  0  0
 13 16  1  0  0  0  0
 16 17  1  0  0  0  0
 16 18  1  0  0  0  0
 16 19  1  0  0  0  0
 19 20  1  0  0  0  0
 19 21  1  0  0  0  0
 19 22  1  0  0  0  0
 22 23  1  0  0  0  0
 22 24  1  0  0  0  0
 22 25  1  0  0  0  0
M  END
> <VConfSearch Rank>
578

> <Conf_Id>
87

> <Delta U+W>
1.453

> <U+W>
-50.176

> <U>
9.763

> <W>
-59.940

> <W(PB)>
-62.392

> <W(SA)>
2.452

> <Valence>
8.883

> <Coulomb>
-0.122

> <VdW>
1.003

> <VdW6>
-9.782

> <VdW12>
10.785

> <Bond>
0.212

> <Angle>
2.940

> <Pdih>
5.730

> <Idih>
0.001

> <Tether>
0.000

$$$$
VeraChem MOL file


 25 24  0  0  0  0  0  0  0  0999 V2000     
   22.1853   19.6223   26.6438 C   0  0  0  0  0  0  0  0  0  0  0  0
   21.3918   20.1966   27.3629 O   0  5  0  0  0  0  0  0  0  0  0  0
   23.0395   18.8623   27.0555 O   0  0  0  0  0  0  0  0  0  0  0  0
   22.0924   19.8539   25.1398 C   0  0  0  0  0  0  0  0  0  0  0  0
   23.1040   19.7871   24.7218 H   0  0  0  0  0  0  0  0  0  0  0  0
   21.7396   20.8789   24.9740 H   0  0  0  0  0  0  0  0  0  0  0  0
   21.1534   18.8455   24.4331 C   0  0  0  0  0  0  0  0  0  0  0  0
   21.5140   17.8237   24.6148 H   0  0  0  0  0  0  0  0  0  0  0  0
   20.1536   18.9171   24.8815 H   0  0  0  0  0  0  0  0  0  0  0  0
   21.0718   19.1070   22.9114 C   0  0  0  0  0  0  0  0  0  0  0  0
   22.0874   19.1004   22.4927 H   0  0  0  0  0  0  0  0  0  0  0  0
   20.6736   20.1136   22.7280 H   0  0  0  0  0  0  0  0  0  0  0  0
   20.2236   18.0576   22.1500 C   0  0  0  0  0  0  0  0  0  0  0  0
   20.2656   18.2798   21.0756 H   0  0  0  0  0  0  0  0  0  0  0  0
   20.6920   17.0711   22.2675 H   0  0  0  0  0  0  0  0  0  0  0  0
   18.7400   17.9567   22.5933 C   0  0  0  0  0  0  0  0  0  0  0  0
   18.6931   17.5750   23.6215 H   0  0  0  0  0  0  0  0  0  0  0  0
   18.2406   17.1999   21.9734 H   0  0  0  0  0  0  0  0  0  0  0  0
   17.9359   19.2777   22.5112 C   0  0  0  0  0  0  0  0  0  0  0  0
   16.9152   19.0894   22.8713 H   0  0  0  0  0  0  0  0  0  0  0  0
   18.3653   20.0243   23.1923 H   0  0  0  0  0  0  0  0  0  0  0  0
   17.8598   19.8579   21.0823 C   0  0  0  0  0  0  0  0  0  0  0  0
   17.4479   19.1210   20.3807 H   0  0  0  0  0  0  0  0  0  0  0  0
   17.2128   20.7443   21.0613 H   0  0  0  0  0  0  0  0  0  0  0  0
   18.8510   20.1605   20.7218 H   0  0  0  0  0  0  0  0  0  0  0  0
  1  2  1  0  0  0  0
  1  3  2  0  0  0  0
  1  4  1  0  0  0  0
  4  5  1  0  0  0  0
  4  6  1  0  0  0  0
  4  7  1  0  0  0  0
  7  8  1  0  0  0  0
  7  9  1  0  0  0  0
  7 10  1  0  0  0  0
 10 11  1  0  0  0  0
 10 12  1  0  0  0  0
 10 13  1  0  0  0  0
 13 14  1  0  0  0  0
 13 15  1  0  0  0  0
 13 16  1  0  0  0  0
 16 17  1  0  0  0  0
 16 18  1  0  0  0  0
 16 19  1  0  0  0  0
 19 20  1  0  0  0  0
 19 21  1  0  0  0  0
 19 22  1  0  0  0  0
 22 23  1  0  0  0  0
 22 24  1  0  0  0  0
 22 25  1  0  0  0  0
M  END
> <VConfSearch Rank>
579

> <Conf_Id>
29

> <Delta U+W>
0.850

> <U+W>
-50.780

> <U>
8.646

> <W>
-59.426

> <W(PB)>
-61.868

> <W(SA)>
2.442

> <Valence>
8.924

> <Coulomb>
-1.171

> <VdW>
0.894

> <VdW6>
-10.223

> <VdW12>
11.117

> <Bond>
0.231

> <Angle>
3.232

> <Pdih>
5.461

> <Idih>
0.001

> <Tether>
0.000

$$$$
VeraChem MOL file


 25 24  0  0  0  0  0  0  0  0999 V2000     
   21.5612   21.0512   20.2203 C   0  0  0  0  0  0  0  0  0  0  0  0
   21.4650   20.2111   19.3475 O   0  5  0  0  0  0  0  0  0  0  0  0
   22.4601   21.8672   20.2732 O   0  0  0  0  0  0  0  0  0  0  0  0
   20.5060   21.0705   21.3204 C   0  0  0  0  0  0  0  0  0  0  0  0
   19.5553   20.7382   20.8866 H   0  0  0  0  0  0  0  0  0  0  0  0
   20.3699   22.1095   21.6436 H   0  0  0  0  0  0  0  0  0  0  0  0
   20.8814   20.1786   22.5294 C   0  0  0  0  0  0  0  0  0  0  0  0
   21.0317   19.1492   22.1780 H   0  0  0  0  0  0  0  0  0  0  0  0
   21.8390   20.5177   22.9481 H   0  0  0  0  0  0  0  0  0  0  0  0
   19.7920   20.2106   23.6261 C   0  0  0  0  0  0  0  0  0  0  0  0
   18.8442   19.8341   23.2195 H   0  0  0  0  0  0  0  0  0  0  0  0
   19.6063   21.2540   23.9150 H   0  0  0  0  0  0  0  0  0  0  0  0
   20.1740   19.4129   24.8981 C   0  0  0  0  0  0  0  0  0  0  0  0
   21.0709   19.8644   25.3432 H   0  0  0  0  0  0  0  0  0  0  0  0
   19.3788   19.5350   25.6452 H   0  0  0  0  0  0  0  0  0  0  0  0
   20.4395   17.9002   24.6770 C   0  0  0  0  0  0  0  0  0  0  0  0
   20.6797   17.4420   25.6460 H   0  0  0  0  0  0  0  0  0  0  0  0
   21.3387   17.7755   24.0597 H   0  0  0  0  0  0  0  0  0  0  0  0
   19.2732   17.1137   24.0294 C   0  0  0  0  0  0  0  0  0  0  0  0
   19.0732   17.4974   23.0201 H   0  0  0  0  0  0  0  0  0  0  0  0
   19.5848   16.0681   23.9006 H   0  0  0  0  0  0  0  0  0  0  0  0
   17.9761   17.1464   24.8664 C   0  0  0  0  0  0  0  0  0  0  0  0
   17.5695   18.1634   24.9315 H   0  0  0  0  0  0  0  0  0  0  0  0
   17.2079   16.5091   24.4099 H   0  0  0  0  0  0  0  0  0  0  0  0
   18.1572   16.7816   25.8857 H   0  0  0  0  0  0  0  0  0  0  0  0
  1  2  1  0  0  0  0
  1  3  2  0  0  0  0
  1  4  1  0  0  0  0
  4  5  1  0  0  0  0
  4  6  1  0  0  0  0
  4  7  1  0  0  0  0
  7  8  1  0  0  0  0
  7  9  1  0  0  0  0
  7 10  1  0  0  0  0
 10 11  1  0  0  0  0
 10 12  1  0  0  0  0
 10 13  1  0  0  0  0
 13 14  1  0  0  0  0
 13 15  1  0  0  0  0
 13 16  1  0  0  0  0
 16 17  1  0  0  0  0
 16 18  1  0  0  0  0
 16 19  1  0  0  0  0
 19 20  1  0  0  0  0
 19 21  1  0  0  0  0
 19 22  1  0  0  0  0
 22 23  1  0  0  0  0
 22 24  1  0  0  0  0
 22 25  1  0  0  0  0
M  END
> <VConfSearch Rank>
580

> <Conf_Id>
30

> <Delta U+W>
0.843

> <U+W>
-50.787

> <U>
8.647

> <W>
-59.434

> <W(PB)>
-61.861

> <W(SA)>
2.428

> <Valence>
8.924

> <Coulomb>
-1.170

> <VdW>
0.894

> <VdW6>
-10.224

> <VdW12>
11.118

> <Bond>
0.231

> <Angle>
3.232

> <Pdih>
5.460

> <Idih>
0.000

> <Tether>
0.000

$$$$
VeraChem MOL file


 25 24  0  0  0  0  0  0  0  0999 V2000     
   20.3356   14.5093   22.5924 C   0  0  0  0  0  0  0  0  0  0  0  0
   20.1145   14.2843   23.7668 O   0  5  0  0  0  0  0  0  0  0  0  0
   20.5250   13.6327   21.7728 O   0  0  0  0  0  0  0  0  0  0  0  0
   20.3840   15.9541   22.0929 C   0  0  0  0  0  0  0  0  0  0  0  0
   19.6377   16.0494   21.2954 H   0  0  0  0  0  0  0  0  0  0  0  0
   21.3670   16.1081   21.6327 H   0  0  0  0  0  0  0  0  0  0  0  0
   20.1360   17.0378   23.1757 C   0  0  0  0  0  0  0  0  0  0  0  0
   19.1522   16.8737   23.6370 H   0  0  0  0  0  0  0  0  0  0  0  0
   20.8831   16.9325   23.9746 H   0  0  0  0  0  0  0  0  0  0  0  0
   20.2024   18.4639   22.5869 C   0  0  0  0  0  0  0  0  0  0  0  0
   19.4546   18.5668   21.7885 H   0  0  0  0  0  0  0  0  0  0  0  0
   21.1866   18.6256   22.1263 H   0  0  0  0  0  0  0  0  0  0  0  0
   19.9554   19.5403   23.6657 C   0  0  0  0  0  0  0  0  0  0  0  0
   18.9711   19.3788   24.1265 H   0  0  0  0  0  0  0  0  0  0  0  0
   20.7030   19.4376   24.4643 H   0  0  0  0  0  0  0  0  0  0  0  0
   20.0216   20.9664   23.0777 C   0  0  0  0  0  0  0  0  0  0  0  0
   19.2740   21.0692   22.2792 H   0  0  0  0  0  0  0  0  0  0  0  0
   21.0058   21.1281   22.6170 H   0  0  0  0  0  0  0  0  0  0  0  0
   19.7747   22.0423   24.1560 C   0  0  0  0  0  0  0  0  0  0  0  0
   18.7901   21.8849   24.6179 H   0  0  0  0  0  0  0  0  0  0  0  0
   20.5219   21.9438   24.9556 H   0  0  0  0  0  0  0  0  0  0  0  0
   19.8416   23.4649   23.5649 C   0  0  0  0  0  0  0  0  0  0  0  0
   19.0829   23.6016   22.7832 H   0  0  0  0  0  0  0  0  0  0  0  0
   19.6639   24.2167   24.3448 H   0  0  0  0  0  0  0  0  0  0  0  0
   20.8277   23.6609   23.1236 H   0  0  0  0  0  0  0  0  0  0  0  0
  1  2  1  0  0  0  0
  1  3  2  0  0  0  0
  1  4  1  0  0  0  0
  4  5  1  0  0  0  0
  4  6  1  0  0  0  0
  4  7  1  0  0  0  0
  7  8  1  0  0  0  0
  7  9  1  0  0  0  0
  7 10  1  0  0  0  0
 10 11  1  0  0  0  0
 10 12  1  0  0  0  0
 10 13  1  0  0  0  0
 13 14  1  0  0  0  0
 13 15  1  0  0  0  0
 13 16  1  0  0  0  0
 16 17  1  0  0  0  0
 16 18  1  0  0  0  0
 16 19  1  0  0  0  0
 19 20  1  0  0  0  0
 19 21  1  0  0  0  0
 19 22  1  0  0  0  0
 22 23  1  0  0  0  0
 22 24  1  0  0  0  0
 22 25  1  0  0  0  0
M  END
> <VConfSearch Rank>
581

> <Conf_Id>
0

> <Delta U+W>
0.000

> <U+W>
-51.629

> <U>
6.586

> <W>
-58.216

> <W(PB)>
-60.757

> <W(SA)>
2.541

> <Valence>
8.027

> <Coulomb>
-2.892

> <VdW>
1.451

> <VdW6>
-7.931

> <VdW12>
9.383

> <Bond>
0.149

> <Angle>
2.726

> <Pdih>
5.152

> <Idih>
0.000

> <Tether>
0.000

$$$$
VeraChem MOL file


 25 24  0  0  0  0  0  0  0  0999 V2000     
   21.9507   20.4501   27.2373 C   0  0  0  0  0  0  0  0  0  0  0  0
   21.1335   20.8170   28.0584 O   0  5  0  0  0  0  0  0  0  0  0  0
   22.9890   19.8882   27.5250 O   0  0  0  0  0  0  0  0  0  0  0  0
   21.6456   20.6875   25.7626 C   0  0  0  0  0  0  0  0  0  0  0  0
   22.5959   20.8497   25.2399 H   0  0  0  0  0  0  0  0  0  0  0  0
   21.0673   21.6155   25.6795 H   0  0  0  0  0  0  0  0  0  0  0  0
   20.8710   19.5147   25.1124 C   0  0  0  0  0  0  0  0  0  0  0  0
   21.4573   18.5911   25.2158 H   0  0  0  0  0  0  0  0  0  0  0  0
   19.9288   19.3568   25.6555 H   0  0  0  0  0  0  0  0  0  0  0  0
   20.5741   19.7788   23.6204 C   0  0  0  0  0  0  0  0  0  0  0  0
   21.5179   19.9373   23.0807 H   0  0  0  0  0  0  0  0  0  0  0  0
   19.9891   20.7034   23.5205 H   0  0  0  0  0  0  0  0  0  0  0  0
   19.8018   18.6081   22.9751 C   0  0  0  0  0  0  0  0  0  0  0  0
   20.3866   17.6834   23.0748 H   0  0  0  0  0  0  0  0  0  0  0  0
   18.8580   18.4494   23.5146 H   0  0  0  0  0  0  0  0  0  0  0  0
   19.5045   18.8715   21.4830 C   0  0  0  0  0  0  0  0  0  0  0  0
   20.4481   19.0301   20.9432 H   0  0  0  0  0  0  0  0  0  0  0  0
   18.9196   19.7962   21.3830 H   0  0  0  0  0  0  0  0  0  0  0  0
   18.7324   17.7015   20.8378 C   0  0  0  0  0  0  0  0  0  0  0  0
   19.3153   16.7750   20.9344 H   0  0  0  0  0  0  0  0  0  0  0  0
   17.7868   17.5411   21.3741 H   0  0  0  0  0  0  0  0  0  0  0  0
   18.4375   17.9683   19.3481 C   0  0  0  0  0  0  0  0  0  0  0  0
   17.8885   17.1269   18.9056 H   0  0  0  0  0  0  0  0  0  0  0  0
   17.8282   18.8732   19.2241 H   0  0  0  0  0  0  0  0  0  0  0  0
   19.3682   18.1013   18.7811 H   0  0  0  0  0  0  0  0  0  0  0  0
  1  2  1  0  0  0  0
  1  3  2  0  0  0  0
  1  4  1  0  0  0  0
  4  5  1  0  0  0  0
  4  6  1  0  0  0  0
  4  7  1  0  0  0  0
  7  8  1  0  0  0  0
  7  9  1  0  0  0  0
  7 10  1  0  0  0  0
 10 11  1  0  0  0  0
 10 12  1  0  0  0  0
 10 13  1  0  0  0  0
 13 14  1  0  0  0  0
 13 15  1  0  0  0  0
 13 16  1  0  0  0  0
 16 17  1  0  0  0  0
 16 18  1  0  0  0  0
 16 19  1  0  0  0  0
 19 20  1  0  0  0  0
 19 21  1  0  0  0  0
 19 22  1  0  0  0  0
 22 23  1  0  0  0  0
 22 24  1  0  0  0  0
 22 25  1  0  0  0  0
M  END
> <VConfSearch Rank>
582

> <Conf_Id>
27

> <Delta U+W>
-1.297

> <U+W>
-52.926

> <U>
5.617

> <W>
-58.543

> <W(PB)>
-61.065

> <W(SA)>
2.522

> <Valence>
7.531

> <Coulomb>
-2.818

> <VdW>
0.904

> <VdW6>
-7.640

> <VdW12>
8.544

> <Bond>
0.115

> <Angle>
2.271

> <Pdih>
5.144

> <Idih>
0.001

> <Tether>
0.000

$$$$
VeraChem MOL file


 25 24  0  0  0  0  0  0  0  0999 V2000     
   22.9461   21.4018   25.2066 C   0  0  0  0  0  0  0  0  0  0  0  0
   22.6468   21.6783   26.3516 O   0  5  0  0  0  0  0  0  0  0  0  0
   23.8928   20.7000   24.9095 O   0  0  0  0  0  0  0  0  0  0  0  0
   22.0951   21.9827   24.0809 C   0  0  0  0  0  0  0  0  0  0  0  0
   22.6703   21.9378   23.1482 H   0  0  0  0  0  0  0  0  0  0  0  0
   21.9355   23.0440   24.3048 H   0  0  0  0  0  0  0  0  0  0  0  0
   20.7248   21.2796   23.8996 C   0  0  0  0  0  0  0  0  0  0  0  0
   20.1724   21.3085   24.8492 H   0  0  0  0  0  0  0  0  0  0  0  0
   20.1285   21.8438   23.1698 H   0  0  0  0  0  0  0  0  0  0  0  0
   20.8659   19.8173   23.4205 C   0  0  0  0  0  0  0  0  0  0  0  0
   21.4468   19.2417   24.1544 H   0  0  0  0  0  0  0  0  0  0  0  0
   21.4303   19.7927   22.4782 H   0  0  0  0  0  0  0  0  0  0  0  0
   19.4901   19.1472   23.2160 C   0  0  0  0  0  0  0  0  0  0  0  0
   18.9265   19.1723   24.1588 H   0  0  0  0  0  0  0  0  0  0  0  0
   18.9086   19.7195   22.4802 H   0  0  0  0  0  0  0  0  0  0  0  0
   19.6304   17.6858   22.7381 C   0  0  0  0  0  0  0  0  0  0  0  0
   20.2120   17.1134   23.4739 H   0  0  0  0  0  0  0  0  0  0  0  0
   20.1943   17.6604   21.7955 H   0  0  0  0  0  0  0  0  0  0  0  0
   18.2555   17.0155   22.5341 C   0  0  0  0  0  0  0  0  0  0  0  0
   17.6893   17.0374   23.4757 H   0  0  0  0  0  0  0  0  0  0  0  0
   17.6717   17.5843   21.7972 H   0  0  0  0  0  0  0  0  0  0  0  0
   18.4000   15.5563   22.0571 C   0  0  0  0  0  0  0  0  0  0  0  0
   18.9535   14.9561   22.7911 H   0  0  0  0  0  0  0  0  0  0  0  0
   17.4136   15.0954   21.9173 H   0  0  0  0  0  0  0  0  0  0  0  0
   18.9358   15.5071   21.1001 H   0  0  0  0  0  0  0  0  0  0  0  0
  1  2  1  0  0  0  0
  1  3  2  0  0  0  0
  1  4  1  0  0  0  0
  4  5  1  0  0  0  0
  4  6  1  0  0  0  0
  4  7  1  0  0  0  0
  7  8  1  0  0  0  0
  7  9  1  0  0  0  0
  7 10  1  0  0  0  0
 10 11  1  0  0  0  0
 10 12  1  0  0  0  0
 10 13  1  0  0  0  0
 13 14  1  0  0  0  0
 13 15  1  0  0  0  0
 13 16  1  0  0  0  0
 16 17  1  0  0  0  0
 16 18  1  0  0  0  0
 16 19  1  0  0  0  0
 19 20  1  0  0  0  0
 19 21  1  0  0  0  0
 19 22  1  0  0  0  0
 22 23  1  0  0  0  0
 22 24  1  0  0  0  0
 22 25  1  0  0  0  0
M  END
> <VConfSearch Rank>
583

> <Conf_Id>
37

> <Delta U+W>
-0.230

> <U+W>
-51.860

> <U>
7.816

> <W>
-59.675

> <W(PB)>
-62.180

> <W(SA)>
2.505

> <Valence>
7.785

> <Coulomb>
-0.713

> <VdW>
0.744

> <VdW6>
-8.514

> <VdW12>
9.259

> <Bond>
0.136

> <Angle>
2.433

> <Pdih>
5.216

> <Idih>
0.000

> <Tether>
0.000

$$$$
VeraChem MOL file


 25 24  0  0  0  0  0  0  0  0999 V2000     
   17.8509   17.3280   20.5742 C   0  0  0  0  0  0  0  0  0  0  0  0
   17.1927   16.4169   21.0367 O   0  5  0  0  0  0  0  0  0  0  0  0
   18.7904   17.1643   19.8209 O   0  0  0  0  0  0  0  0  0  0  0  0
   17.4643   18.7560   20.9487 C   0  0  0  0  0  0  0  0  0  0  0  0
   16.3754   18.8373   20.8506 H   0  0  0  0  0  0  0  0  0  0  0  0
   17.9015   19.4415   20.2125 H   0  0  0  0  0  0  0  0  0  0  0  0
   17.8878   19.1683   22.3824 C   0  0  0  0  0  0  0  0  0  0  0  0
   17.4529   20.1500   22.6140 H   0  0  0  0  0  0  0  0  0  0  0  0
   17.4654   18.4567   23.1055 H   0  0  0  0  0  0  0  0  0  0  0  0
   19.4221   19.2381   22.5519 C   0  0  0  0  0  0  0  0  0  0  0  0
   19.8409   19.9404   21.8183 H   0  0  0  0  0  0  0  0  0  0  0  0
   19.8633   18.2545   22.3387 H   0  0  0  0  0  0  0  0  0  0  0  0
   19.8204   19.6808   23.9764 C   0  0  0  0  0  0  0  0  0  0  0  0
   19.3828   20.6654   24.1908 H   0  0  0  0  0  0  0  0  0  0  0  0
   19.4013   18.9778   24.7093 H   0  0  0  0  0  0  0  0  0  0  0  0
   21.3534   19.7500   24.1467 C   0  0  0  0  0  0  0  0  0  0  0  0
   21.7728   20.4527   23.4137 H   0  0  0  0  0  0  0  0  0  0  0  0
   21.7912   18.7654   23.9322 H   0  0  0  0  0  0  0  0  0  0  0  0
   21.7521   20.1919   25.5705 C   0  0  0  0  0  0  0  0  0  0  0  0
   21.3173   21.1773   25.7879 H   0  0  0  0  0  0  0  0  0  0  0  0
   21.3358   19.4899   26.3064 H   0  0  0  0  0  0  0  0  0  0  0  0
   23.2836   20.2597   25.7365 C   0  0  0  0  0  0  0  0  0  0  0  0
   23.7234   20.9788   25.0331 H   0  0  0  0  0  0  0  0  0  0  0  0
   23.5489   20.5751   26.7539 H   0  0  0  0  0  0  0  0  0  0  0  0
   23.7421   19.2787   25.5554 H   0  0  0  0  0  0  0  0  0  0  0  0
  1  2  1  0  0  0  0
  1  3  2  0  0  0  0
  1  4  1  0  0  0  0
  4  5  1  0  0  0  0
  4  6  1  0  0  0  0
  4  7  1  0  0  0  0
  7  8  1  0  0  0  0
  7  9  1  0  0  0  0
  7 10  1  0  0  0  0
 10 11  1  0  0  0  0
 10 12  1  0  0  0  0
 10 13  1  0  0  0  0
 13 14  1  0  0  0  0
 13 15  1  0  0  0  0
 13 16  1  0  0  0  0
 16 17  1  0  0  0  0
 16 18  1  0  0  0  0
 16 19  1  0  0  0  0
 19 20  1  0  0  0  0
 19 21  1  0  0  0  0
 19 22  1  0  0  0  0
 22 23  1  0  0  0  0
 22 24  1  0  0  0  0
 22 25  1  0  0  0  0
M  END
> <VConfSearch Rank>
584

> <Conf_Id>
54

> <Delta U+W>
-0.224

> <U+W>
-51.854

> <U>
7.816

> <W>
-59.670

> <W(PB)>
-62.157

> <W(SA)>
2.487

> <Valence>
7.785

> <Coulomb>
-0.713

> <VdW>
0.744

> <VdW6>
-8.515

> <VdW12>
9.259

> <Bond>
0.136

> <Angle>
2.433

> <Pdih>
5.215

> <Idih>
0.000

> <Tether>
0.000

$$$$
VeraChem MOL file


 25 24  0  0  0  0  0  0  0  0999 V2000     
   17.7320   18.9318   26.5768 C   0  0  0  0  0  0  0  0  0  0  0  0
   16.8145   19.6903   26.3319 O   0  5  0  0  0  0  0  0  0  0  0  0
   17.5759   17.7891   26.9602 O   0  0  0  0  0  0  0  0  0  0  0  0
   19.1594   19.4463   26.4123 C   0  0  0  0  0  0  0  0  0  0  0  0
   19.7193   19.1481   27.3065 H   0  0  0  0  0  0  0  0  0  0  0  0
   19.1378   20.5428   26.4023 H   0  0  0  0  0  0  0  0  0  0  0  0
   19.8819   18.9133   25.1476 C   0  0  0  0  0  0  0  0  0  0  0  0
   20.9372   19.2087   25.2012 H   0  0  0  0  0  0  0  0  0  0  0  0
   19.8589   17.8148   25.1515 H   0  0  0  0  0  0  0  0  0  0  0  0
   19.2553   19.4468   23.8366 C   0  0  0  0  0  0  0  0  0  0  0  0
   19.3201   20.5432   23.8132 H   0  0  0  0  0  0  0  0  0  0  0  0
   18.1847   19.2007   23.8243 H   0  0  0  0  0  0  0  0  0  0  0  0
   19.9012   18.8615   22.5579 C   0  0  0  0  0  0  0  0  0  0  0  0
   19.8530   17.7647   22.5906 H   0  0  0  0  0  0  0  0  0  0  0  0
   19.2937   19.1739   21.6991 H   0  0  0  0  0  0  0  0  0  0  0  0
   21.3663   19.3150   22.3416 C   0  0  0  0  0  0  0  0  0  0  0  0
   21.9774   18.9973   23.1957 H   0  0  0  0  0  0  0  0  0  0  0  0
   21.4145   20.4120   22.3140 H   0  0  0  0  0  0  0  0  0  0  0  0
   22.0048   18.7369   21.0568 C   0  0  0  0  0  0  0  0  0  0  0  0
   23.0738   18.9909   21.0511 H   0  0  0  0  0  0  0  0  0  0  0  0
   21.9473   17.6398   21.0749 H   0  0  0  0  0  0  0  0  0  0  0  0
   21.3629   19.2706   19.7576 C   0  0  0  0  0  0  0  0  0  0  0  0
   20.3224   18.9378   19.6573 H   0  0  0  0  0  0  0  0  0  0  0  0
   21.3779   20.3680   19.7338 H   0  0  0  0  0  0  0  0  0  0  0  0
   21.9131   18.9063   18.8804 H   0  0  0  0  0  0  0  0  0  0  0  0
  1  2  1  0  0  0  0
  1  3  2  0  0  0  0
  1  4  1  0  0  0  0
  4  5  1  0  0  0  0
  4  6  1  0  0  0  0
  4  7  1  0  0  0  0
  7  8  1  0  0  0  0
  7  9  1  0  0  0  0
  7 10  1  0  0  0  0
 10 11  1  0  0  0  0
 10 12  1  0  0  0  0
 10 13  1  0  0  0  0
 13 14  1  0  0  0  0
 13 15  1  0  0  0  0
 13 16  1  0  0  0  0
 16 17  1  0  0  0  0
 16 18  1  0  0  0  0
 16 19  1  0  0  0  0
 19 20  1  0  0  0  0
 19 21  1  0  0  0  0
 19 22  1  0  0  0  0
 22 23  1  0  0  0  0
 22 24  1  0  0  0  0
 22 25  1  0  0  0  0
M  END
> <VConfSearch Rank>
585

> <Conf_Id>
101

> <Delta U+W>
1.534

> <U+W>
-50.095

> <U>
9.416

> <W>
-59.512

> <W(PB)>
-61.988

> <W(SA)>
2.476

> <Valence>
8.939

> <Coulomb>
-0.615

> <VdW>
1.092

> <VdW6>
-9.710

> <VdW12>
10.802

> <Bond>
0.216

> <Angle>
2.979

> <Pdih>
5.743

> <Idih>
0.000

> <Tether>
0.000

$$$$
VeraChem MOL file


 25 24  0  0  0  0  0  0  0  0999 V2000     
   18.1657   20.3357   19.7279 C   0  0  0  0  0  0  0  0  0  0  0  0
   19.0270   20.5504   18.8980 O   0  5  0  0  0  0  0  0  0  0  0  0
   17.0074   20.0957   19.4492 O   0  0  0  0  0  0  0  0  0  0  0  0
   18.5648   20.3456   21.1992 C   0  0  0  0  0  0  0  0  0  0  0  0
   17.7039   20.6934   21.7826 H   0  0  0  0  0  0  0  0  0  0  0  0
   19.3624   21.0866   21.3221 H   0  0  0  0  0  0  0  0  0  0  0  0
   19.0264   18.9537   21.7042 C   0  0  0  0  0  0  0  0  0  0  0  0
   18.2415   18.2194   21.4753 H   0  0  0  0  0  0  0  0  0  0  0  0
   19.9185   18.6373   21.1463 H   0  0  0  0  0  0  0  0  0  0  0  0
   19.3165   18.9088   23.2236 C   0  0  0  0  0  0  0  0  0  0  0  0
   19.4935   17.8625   23.5035 H   0  0  0  0  0  0  0  0  0  0  0  0
   18.4265   19.2348   23.7788 H   0  0  0  0  0  0  0  0  0  0  0  0
   20.5373   19.7643   23.6426 C   0  0  0  0  0  0  0  0  0  0  0  0
   21.4269   19.4381   23.0884 H   0  0  0  0  0  0  0  0  0  0  0  0
   20.3665   20.8095   23.3562 H   0  0  0  0  0  0  0  0  0  0  0  0
   20.8216   19.7321   25.1660 C   0  0  0  0  0  0  0  0  0  0  0  0
   19.9531   20.1433   25.6983 H   0  0  0  0  0  0  0  0  0  0  0  0
   21.6574   20.4117   25.3808 H   0  0  0  0  0  0  0  0  0  0  0  0
   21.1517   18.3373   25.7534 C   0  0  0  0  0  0  0  0  0  0  0  0
   21.3279   18.4461   26.8324 H   0  0  0  0  0  0  0  0  0  0  0  0
   20.2862   17.6690   25.6550 H   0  0  0  0  0  0  0  0  0  0  0  0
   22.3930   17.6804   25.1119 C   0  0  0  0  0  0  0  0  0  0  0  0
   23.2661   18.3425   25.1776 H   0  0  0  0  0  0  0  0  0  0  0  0
   22.6399   16.7422   25.6253 H   0  0  0  0  0  0  0  0  0  0  0  0
   22.2174   17.4446   24.0547 H   0  0  0  0  0  0  0  0  0  0  0  0
  1  2  1  0  0  0  0
  1  3  2  0  0  0  0
  1  4  1  0  0  0  0
  4  5  1  0  0  0  0
  4  6  1  0  0  0  0
  4  7  1  0  0  0  0
  7  8  1  0  0  0  0
  7  9  1  0  0  0  0
  7 10  1  0  0  0  0
 10 11  1  0  0  0  0
 10 12  1  0  0  0  0
 10 13  1  0  0  0  0
 13 14  1  0  0  0  0
 13 15  1  0  0  0  0
 13 16  1  0  0  0  0
 16 17  1  0  0  0  0
 16 18  1  0  0  0  0
 16 19  1  0  0  0  0
 19 20  1  0  0  0  0
 19 21  1  0  0  0  0
 19 22  1  0  0  0  0
 22 23  1  0  0  0  0
 22 24  1  0  0  0  0
 22 25  1  0  0  0  0
M  END
> <VConfSearch Rank>
586

> <Conf_Id>
75

> <Delta U+W>
1.014

> <U+W>
-50.615

> <U>
8.474

> <W>
-59.089

> <W(PB)>
-61.530

> <W(SA)>
2.441

> <Valence>
9.080

> <Coulomb>
-1.772

> <VdW>
1.165

> <VdW6>
-9.830

> <VdW12>
10.996

> <Bond>
0.240

> <Angle>
3.225

> <Pdih>
5.615

> <Idih>
0.001

> <Tether>
0.000

$$$$
VeraChem MOL file


 25 24  0  0  0  0  0  0  0  0999 V2000     
   16.3249   20.0748   24.9997 C   0  0  0  0  0  0  0  0  0  0  0  0
   15.7734   19.0280   25.2764 O   0  5  0  0  0  0  0  0  0  0  0  0
   16.0967   21.1261   25.5649 O   0  0  0  0  0  0  0  0  0  0  0  0
   17.3771   20.0644   23.8966 C   0  0  0  0  0  0  0  0  0  0  0  0
   17.3520   21.0380   23.3925 H   0  0  0  0  0  0  0  0  0  0  0  0
   17.0875   19.3085   23.1568 H   0  0  0  0  0  0  0  0  0  0  0  0
   18.8025   19.7739   24.4276 C   0  0  0  0  0  0  0  0  0  0  0  0
   19.0725   20.5316   25.1764 H   0  0  0  0  0  0  0  0  0  0  0  0
   18.8074   18.8022   24.9407 H   0  0  0  0  0  0  0  0  0  0  0  0
   19.8488   19.7672   23.2921 C   0  0  0  0  0  0  0  0  0  0  0  0
   19.8400   20.7400   22.7819 H   0  0  0  0  0  0  0  0  0  0  0  0
   19.5666   19.0171   22.5437 H   0  0  0  0  0  0  0  0  0  0  0  0
   21.2715   19.4826   23.8283 C   0  0  0  0  0  0  0  0  0  0  0  0
   21.5291   20.2706   24.5492 H   0  0  0  0  0  0  0  0  0  0  0  0
   21.2873   18.5380   24.3889 H   0  0  0  0  0  0  0  0  0  0  0  0
   22.3532   19.4597   22.7185 C   0  0  0  0  0  0  0  0  0  0  0  0
   23.2742   19.8943   23.1305 H   0  0  0  0  0  0  0  0  0  0  0  0
   22.0602   20.1152   21.8870 H   0  0  0  0  0  0  0  0  0  0  0  0
   22.7028   18.0482   22.1852 C   0  0  0  0  0  0  0  0  0  0  0  0
   23.5304   18.1415   21.4686 H   0  0  0  0  0  0  0  0  0  0  0  0
   23.0788   17.4261   23.0091 H   0  0  0  0  0  0  0  0  0  0  0  0
   21.5289   17.3251   21.4927 C   0  0  0  0  0  0  0  0  0  0  0  0
   21.0887   17.9518   20.7063 H   0  0  0  0  0  0  0  0  0  0  0  0
   21.8730   16.3915   21.0292 H   0  0  0  0  0  0  0  0  0  0  0  0
   20.7436   17.0658   22.2136 H   0  0  0  0  0  0  0  0  0  0  0  0
  1  2  1  0  0  0  0
  1  3  2  0  0  0  0
  1  4  1  0  0  0  0
  4  5  1  0  0  0  0
  4  6  1  0  0  0  0
  4  7  1  0  0  0  0
  7  8  1  0  0  0  0
  7  9  1  0  0  0  0
  7 10  1  0  0  0  0
 10 11  1  0  0  0  0
 10 12  1  0  0  0  0
 10 13  1  0  0  0  0
 13 14  1  0  0  0  0
 13 15  1  0  0  0  0
 13 16  1  0  0  0  0
 16 17  1  0  0  0  0
 16 18  1  0  0  0  0
 16 19  1  0  0  0  0
 19 20  1  0  0  0  0
 19 21  1  0  0  0  0
 19 22  1  0  0  0  0
 22 23  1  0  0  0  0
 22 24  1  0  0  0  0
 22 25  1  0  0  0  0
M  END
> <VConfSearch Rank>
587

> <Conf_Id>
125

> <Delta U+W>
2.314

> <U+W>
-49.315

> <U>
9.740

> <W>
-59.054

> <W(PB)>
-61.488

> <W(SA)>
2.433

> <Valence>
10.506

> <Coulomb>
-1.761

> <VdW>
0.994

> <VdW6>
-9.209

> <VdW12>
10.203

> <Bond>
0.193

> <Angle>
2.979

> <Pdih>
7.334

> <Idih>
0.001

> <Tether>
0.000

$$$$
VeraChem MOL file


 25 24  0  0  0  0  0  0  0  0999 V2000     
   22.3601   15.8011   23.9879 C   0  0  0  0  0  0  0  0  0  0  0  0
   21.6430   14.8633   23.6998 O   0  5  0  0  0  0  0  0  0  0  0  0
   23.4502   15.6791   24.5109 O   0  0  0  0  0  0  0  0  0  0  0  0
   21.8538   17.2099   23.6995 C   0  0  0  0  0  0  0  0  0  0  0  0
   21.2411   17.1641   22.7922 H   0  0  0  0  0  0  0  0  0  0  0  0
   22.7204   17.8435   23.4760 H   0  0  0  0  0  0  0  0  0  0  0  0
   21.0427   17.8084   24.8780 C   0  0  0  0  0  0  0  0  0  0  0  0
   20.1525   17.1911   25.0616 H   0  0  0  0  0  0  0  0  0  0  0  0
   21.6526   17.7519   25.7903 H   0  0  0  0  0  0  0  0  0  0  0  0
   20.6213   19.2803   24.6542 C   0  0  0  0  0  0  0  0  0  0  0  0
   21.5141   19.8965   24.4806 H   0  0  0  0  0  0  0  0  0  0  0  0
   20.1603   19.6546   25.5785 H   0  0  0  0  0  0  0  0  0  0  0  0
   19.6263   19.4643   23.4849 C   0  0  0  0  0  0  0  0  0  0  0  0
   20.1020   19.1566   22.5459 H   0  0  0  0  0  0  0  0  0  0  0  0
   18.7571   18.8099   23.6362 H   0  0  0  0  0  0  0  0  0  0  0  0
   19.1530   20.9316   23.3655 C   0  0  0  0  0  0  0  0  0  0  0  0
   20.0149   21.5833   23.1672 H   0  0  0  0  0  0  0  0  0  0  0  0
   18.7356   21.2526   24.3296 H   0  0  0  0  0  0  0  0  0  0  0  0
   18.0806   21.1451   22.2717 C   0  0  0  0  0  0  0  0  0  0  0  0
   17.2146   20.4986   22.4700 H   0  0  0  0  0  0  0  0  0  0  0  0
   17.7158   22.1797   22.3333 H   0  0  0  0  0  0  0  0  0  0  0  0
   18.6047   20.8875   20.8422 C   0  0  0  0  0  0  0  0  0  0  0  0
   18.8724   19.8335   20.6972 H   0  0  0  0  0  0  0  0  0  0  0  0
   17.8359   21.1397   20.1004 H   0  0  0  0  0  0  0  0  0  0  0  0
   19.4909   21.5004   20.6322 H   0  0  0  0  0  0  0  0  0  0  0  0
  1  2  1  0  0  0  0
  1  3  2  0  0  0  0
  1  4  1  0  0  0  0
  4  5  1  0  0  0  0
  4  6  1  0  0  0  0
  4  7  1  0  0  0  0
  7  8  1  0  0  0  0
  7  9  1  0  0  0  0
  7 10  1  0  0  0  0
 10 11  1  0  0  0  0
 10 12  1  0  0  0  0
 10 13  1  0  0  0  0
 13 14  1  0  0  0  0
 13 15  1  0  0  0  0
 13 16  1  0  0  0  0
 16 17  1  0  0  0  0
 16 18  1  0  0  0  0
 16 19  1  0  0  0  0
 19 20  1  0  0  0  0
 19 21  1  0  0  0  0
 19 22  1  0  0  0  0
 22 23  1  0  0  0  0
 22 24  1  0  0  0  0
 22 25  1  0  0  0  0
M  END
> <VConfSearch Rank>
588

> <Conf_Id>
4

> <Delta U+W>
0.189

> <U+W>
-51.441

> <U>
7.701

> <W>
-59.141

> <W(PB)>
-61.609

> <W(SA)>
2.467

> <Valence>
8.550

> <Coulomb>
-1.988

> <VdW>
1.139

> <VdW6>
-8.988

> <VdW12>
10.127

> <Bond>
0.191

> <Angle>
2.738

> <Pdih>
5.621

> <Idih>
0.001

> <Tether>
0.000

$$$$
VeraChem MOL file


 25 24  0  0  0  0  0  0  0  0999 V2000     
   16.1978   17.8715   22.8649 C   0  0  0  0  0  0  0  0  0  0  0  0
   16.2172   17.1488   21.8881 O   0  5  0  0  0  0  0  0  0  0  0  0
   15.2327   17.9927   23.5933 O   0  0  0  0  0  0  0  0  0  0  0  0
   17.4617   18.6512   23.2090 C   0  0  0  0  0  0  0  0  0  0  0  0
   17.1617   19.5921   23.6857 H   0  0  0  0  0  0  0  0  0  0  0  0
   17.9612   18.9076   22.2680 H   0  0  0  0  0  0  0  0  0  0  0  0
   18.4188   17.8613   24.1392 C   0  0  0  0  0  0  0  0  0  0  0  0
   17.8597   17.5393   25.0287 H   0  0  0  0  0  0  0  0  0  0  0  0
   18.7493   16.9443   23.6321 H   0  0  0  0  0  0  0  0  0  0  0  0
   19.6503   18.6785   24.5971 C   0  0  0  0  0  0  0  0  0  0  0  0
   20.2041   18.0870   25.3389 H   0  0  0  0  0  0  0  0  0  0  0  0
   19.3166   19.5896   25.1124 H   0  0  0  0  0  0  0  0  0  0  0  0
   20.6039   19.0548   23.4394 C   0  0  0  0  0  0  0  0  0  0  0  0
   20.8966   18.1467   22.8951 H   0  0  0  0  0  0  0  0  0  0  0  0
   20.0791   19.7027   22.7271 H   0  0  0  0  0  0  0  0  0  0  0  0
   21.8698   19.7771   23.9563 C   0  0  0  0  0  0  0  0  0  0  0  0
   22.3551   19.1492   24.7159 H   0  0  0  0  0  0  0  0  0  0  0  0
   21.5833   20.7100   24.4607 H   0  0  0  0  0  0  0  0  0  0  0  0
   22.8995   20.0855   22.8444 C   0  0  0  0  0  0  0  0  0  0  0  0
   23.8107   20.4862   23.3095 H   0  0  0  0  0  0  0  0  0  0  0  0
   23.1923   19.1537   22.3411 H   0  0  0  0  0  0  0  0  0  0  0  0
   22.3870   21.1010   21.8001 C   0  0  0  0  0  0  0  0  0  0  0  0
   22.0585   22.0301   22.2838 H   0  0  0  0  0  0  0  0  0  0  0  0
   23.1831   21.3540   21.0880 H   0  0  0  0  0  0  0  0  0  0  0  0
   21.5450   20.6950   21.2257 H   0  0  0  0  0  0  0  0  0  0  0  0
  1  2  1  0  0  0  0
  1  3  2  0  0  0  0
  1  4  1  0  0  0  0
  4  5  1  0  0  0  0
  4  6  1  0  0  0  0
  4  7  1  0  0  0  0
  7  8  1  0  0  0  0
  7  9  1  0  0  0  0
  7 10  1  0  0  0  0
 10 11  1  0  0  0  0
 10 12  1  0  0  0  0
 10 13  1  0  0  0  0
 13 14  1  0  0  0  0
 13 15  1  0  0  0  0
 13 16  1  0  0  0  0
 16 17  1  0  0  0  0
 16 18  1  0  0  0  0
 16 19  1  0  0  0  0
 19 20  1  0  0  0  0
 19 21  1  0  0  0  0
 19 22  1  0  0  0  0
 22 23  1  0  0  0  0
 22 24  1  0  0  0  0
 22 25  1  0  0  0  0
M  END
> <VConfSearch Rank>
589

> <Conf_Id>
17

> <Delta U+W>
0.219

> <U+W>
-51.411

> <U>
7.701

> <W>
-59.111

> <W(PB)>
-61.599

> <W(SA)>
2.488

> <Valence>
8.550

> <Coulomb>
-1.988

> <VdW>
1.139

> <VdW6>
-8.988

> <VdW12>
10.127

> <Bond>
0.191

> <Angle>
2.738

> <Pdih>
5.621

> <Idih>
0.001

> <Tether>
0.000

$$$$
VeraChem MOL file


 25 24  0  0  0  0  0  0  0  0999 V2000     
   19.1595   22.7186   24.8725 C   0  0  0  0  0  0  0  0  0  0  0  0
   20.0177   23.5274   24.5788 O   0  5  0  0  0  0  0  0  0  0  0  0
   18.9292   22.3660   26.0126 O   0  0  0  0  0  0  0  0  0  0  0  0
   18.3100   22.1263   23.7515 C   0  0  0  0  0  0  0  0  0  0  0  0
   18.3810   22.7817   22.8750 H   0  0  0  0  0  0  0  0  0  0  0  0
   17.2652   22.1517   24.0828 H   0  0  0  0  0  0  0  0  0  0  0  0
   18.6972   20.6743   23.3689 C   0  0  0  0  0  0  0  0  0  0  0  0
   18.6372   20.0426   24.2650 H   0  0  0  0  0  0  0  0  0  0  0  0
   17.9592   20.2845   22.6550 H   0  0  0  0  0  0  0  0  0  0  0  0
   20.1100   20.5836   22.7439 C   0  0  0  0  0  0  0  0  0  0  0  0
   20.8634   20.9052   23.4762 H   0  0  0  0  0  0  0  0  0  0  0  0
   20.1748   21.2889   21.9041 H   0  0  0  0  0  0  0  0  0  0  0  0
   20.4652   19.1695   22.2264 C   0  0  0  0  0  0  0  0  0  0  0  0
   19.7181   18.8494   21.4874 H   0  0  0  0  0  0  0  0  0  0  0  0
   21.4247   19.2250   21.6942 H   0  0  0  0  0  0  0  0  0  0  0  0
   20.5744   18.1121   23.3494 C   0  0  0  0  0  0  0  0  0  0  0  0
   19.6021   17.9887   23.8437 H   0  0  0  0  0  0  0  0  0  0  0  0
   21.2815   18.4609   24.1144 H   0  0  0  0  0  0  0  0  0  0  0  0
   21.0393   16.7458   22.8030 C   0  0  0  0  0  0  0  0  0  0  0  0
   20.3349   16.3949   22.0360 H   0  0  0  0  0  0  0  0  0  0  0  0
   22.0166   16.8553   22.3128 H   0  0  0  0  0  0  0  0  0  0  0  0
   21.1441   15.6915   23.9234 C   0  0  0  0  0  0  0  0  0  0  0  0
   20.1721   15.5378   24.4103 H   0  0  0  0  0  0  0  0  0  0  0  0
   21.4760   14.7271   23.5174 H   0  0  0  0  0  0  0  0  0  0  0  0
   21.8659   16.0032   24.6897 H   0  0  0  0  0  0  0  0  0  0  0  0
  1  2  1  0  0  0  0
  1  3  2  0  0  0  0
  1  4  1  0  0  0  0
  4  5  1  0  0  0  0
  4  6  1  0  0  0  0
  4  7  1  0  0  0  0
  7  8  1  0  0  0  0
  7  9  1  0  0  0  0
  7 10  1  0  0  0  0
 10 11  1  0  0  0  0
 10 12  1  0  0  0  0
 10 13  1  0  0  0  0
 13 14  1  0  0  0  0
 13 15  1  0  0  0  0
 13 16  1  0  0  0  0
 16 17  1  0  0  0  0
 16 18  1  0  0  0  0
 16 19  1  0  0  0  0
 19 20  1  0  0  0  0
 19 21  1  0  0  0  0
 19 22  1  0  0  0  0
 22 23  1  0  0  0  0
 22 24  1  0  0  0  0
 22 25  1  0  0  0  0
M  END
> <VConfSearch Rank>
590

> <Conf_Id>
142

> <Delta U+W>
0.593

> <U+W>
-51.037

> <U>
8.903

> <W>
-59.940

> <W(PB)>
-62.418

> <W(SA)>
2.478

> <Valence>
8.305

> <Coulomb>
-0.223

> <VdW>
0.821

> <VdW6>
-9.236

> <VdW12>
10.057

> <Bond>
0.173

> <Angle>
2.663

> <Pdih>
5.469

> <Idih>
0.001

> <Tether>
0.000

$$$$
VeraChem MOL file


 25 24  0  0  0  0  0  0  0  0999 V2000     
   23.5769   18.5392   22.4670 C   0  0  0  0  0  0  0  0  0  0  0  0
   24.5819   18.0297   22.9231 O   0  5  0  0  0  0  0  0  0  0  0  0
   23.1966   18.3701   21.3251 O   0  0  0  0  0  0  0  0  0  0  0  0
   22.7658   19.4629   23.3713 C   0  0  0  0  0  0  0  0  0  0  0  0
   22.0757   20.0455   22.7503 H   0  0  0  0  0  0  0  0  0  0  0  0
   23.4649   20.1806   23.8159 H   0  0  0  0  0  0  0  0  0  0  0  0
   21.9957   18.7272   24.5018 C   0  0  0  0  0  0  0  0  0  0  0  0
   22.7223   18.2109   25.1442 H   0  0  0  0  0  0  0  0  0  0  0  0
   21.5006   19.4677   25.1432 H   0  0  0  0  0  0  0  0  0  0  0  0
   20.9553   17.6926   23.9999 C   0  0  0  0  0  0  0  0  0  0  0  0
   20.4735   17.2266   24.8701 H   0  0  0  0  0  0  0  0  0  0  0  0
   21.4809   16.8822   23.4765 H   0  0  0  0  0  0  0  0  0  0  0  0
   19.8590   18.2577   23.0624 C   0  0  0  0  0  0  0  0  0  0  0  0
   20.3154   18.6276   22.1345 H   0  0  0  0  0  0  0  0  0  0  0  0
   19.1987   17.4313   22.7663 H   0  0  0  0  0  0  0  0  0  0  0  0
   19.0073   19.3742   23.7096 C   0  0  0  0  0  0  0  0  0  0  0  0
   19.6419   20.2384   23.9454 H   0  0  0  0  0  0  0  0  0  0  0  0
   18.5892   19.0133   24.6591 H   0  0  0  0  0  0  0  0  0  0  0  0
   17.8618   19.8287   22.7807 C   0  0  0  0  0  0  0  0  0  0  0  0
   18.2779   20.1877   21.8291 H   0  0  0  0  0  0  0  0  0  0  0  0
   17.2147   18.9728   22.5437 H   0  0  0  0  0  0  0  0  0  0  0  0
   17.0171   20.9463   23.4250 C   0  0  0  0  0  0  0  0  0  0  0  0
   17.6336   21.8281   23.6434 H   0  0  0  0  0  0  0  0  0  0  0  0
   16.2079   21.2569   22.7514 H   0  0  0  0  0  0  0  0  0  0  0  0
   16.5637   20.6038   24.3644 H   0  0  0  0  0  0  0  0  0  0  0  0
  1  2  1  0  0  0  0
  1  3  2  0  0  0  0
  1  4  1  0  0  0  0
  4  5  1  0  0  0  0
  4  6  1  0  0  0  0
  4  7  1  0  0  0  0
  7  8  1  0  0  0  0
  7  9  1  0  0  0  0
  7 10  1  0  0  0  0
 10 11  1  0  0  0  0
 10 12  1  0  0  0  0
 10 13  1  0  0  0  0
 13 14  1  0  0  0  0
 13 15  1  0  0  0  0
 13 16  1  0  0  0  0
 16 17  1  0  0  0  0
 16 18  1  0  0  0  0
 16 19  1  0  0  0  0
 19 20  1  0  0  0  0
 19 21  1  0  0  0  0
 19 22  1  0  0  0  0
 22 23  1  0  0  0  0
 22 24  1  0  0  0  0
 22 25  1  0  0  0  0
M  END
> <VConfSearch Rank>
591

> <Conf_Id>
135

> <Delta U+W>
1.314

> <U+W>
-50.316

> <U>
9.773

> <W>
-60.088

> <W(PB)>
-62.535

> <W(SA)>
2.447

> <Valence>
8.741

> <Coulomb>
0.479

> <VdW>
0.552

> <VdW6>
-10.627

> <VdW12>
11.179

> <Bond>
0.227

> <Angle>
3.155

> <Pdih>
5.358

> <Idih>
0.001

> <Tether>
0.000

$$$$
VeraChem MOL file


 25 24  0  0  0  0  0  0  0  0999 V2000     
   23.0642   21.6274   21.5187 C   0  0  0  0  0  0  0  0  0  0  0  0
   22.6239   22.4565   20.7471 O   0  5  0  0  0  0  0  0  0  0  0  0
   24.1612   21.7047   22.0357 O   0  0  0  0  0  0  0  0  0  0  0  0
   22.1827   20.4358   21.8754 C   0  0  0  0  0  0  0  0  0  0  0  0
   22.8356   19.5771   22.0724 H   0  0  0  0  0  0  0  0  0  0  0  0
   21.5813   20.1916   20.9928 H   0  0  0  0  0  0  0  0  0  0  0  0
   21.2736   20.7091   23.1020 C   0  0  0  0  0  0  0  0  0  0  0  0
   21.9041   21.0446   23.9370 H   0  0  0  0  0  0  0  0  0  0  0  0
   20.5906   21.5398   22.8766 H   0  0  0  0  0  0  0  0  0  0  0  0
   20.4625   19.4740   23.5619 C   0  0  0  0  0  0  0  0  0  0  0  0
   19.9803   19.7242   24.5152 H   0  0  0  0  0  0  0  0  0  0  0  0
   21.1452   18.6371   23.7625 H   0  0  0  0  0  0  0  0  0  0  0  0
   19.3779   19.0362   22.5488 C   0  0  0  0  0  0  0  0  0  0  0  0
   18.6658   19.8591   22.3993 H   0  0  0  0  0  0  0  0  0  0  0  0
   19.8417   18.8486   21.5725 H   0  0  0  0  0  0  0  0  0  0  0  0
   18.6061   17.7563   22.9584 C   0  0  0  0  0  0  0  0  0  0  0  0
   19.2967   16.9042   23.0195 H   0  0  0  0  0  0  0  0  0  0  0  0
   17.9090   17.5166   22.1438 H   0  0  0  0  0  0  0  0  0  0  0  0
   17.7900   17.8809   24.2694 C   0  0  0  0  0  0  0  0  0  0  0  0
   17.5078   18.9282   24.4450 H   0  0  0  0  0  0  0  0  0  0  0  0
   16.8484   17.3271   24.1514 H   0  0  0  0  0  0  0  0  0  0  0  0
   18.5283   17.3107   25.5010 C   0  0  0  0  0  0  0  0  0  0  0  0
   19.4779   17.8268   25.6829 H   0  0  0  0  0  0  0  0  0  0  0  0
   17.9107   17.4168   26.4022 H   0  0  0  0  0  0  0  0  0  0  0  0
   18.7445   16.2429   25.3662 H   0  0  0  0  0  0  0  0  0  0  0  0
  1  2  1  0  0  0  0
  1  3  2  0  0  0  0
  1  4  1  0  0  0  0
  4  5  1  0  0  0  0
  4  6  1  0  0  0  0
  4  7  1  0  0  0  0
  7  8  1  0  0  0  0
  7  9  1  0  0  0  0
  7 10  1  0  0  0  0
 10 11  1  0  0  0  0
 10 12  1  0  0  0  0
 10 13  1  0  0  0  0
 13 14  1  0  0  0  0
 13 15  1  0  0  0  0
 13 16  1  0  0  0  0
 16 17  1  0  0  0  0
 16 18  1  0  0  0  0
 16 19  1  0  0  0  0
 19 20  1  0  0  0  0
 19 21  1  0  0  0  0
 19 22  1  0  0  0  0
 22 23  1  0  0  0  0
 22 24  1  0  0  0  0
 22 25  1  0  0  0  0
M  END
> <VConfSearch Rank>
592

> <Conf_Id>
19

> <Delta U+W>
3.222

> <U+W>
-48.407

> <U>
10.617

> <W>
-59.025

> <W(PB)>
-61.462

> <W(SA)>
2.437

> <Valence>
11.188

> <Coulomb>
-1.778

> <VdW>
1.208

> <VdW6>
-9.786

> <VdW12>
10.993

> <Bond>
0.241

> <Angle>
3.294

> <Pdih>
7.653

> <Idih>
0.001

> <Tether>
0.000

$$$$
VeraChem MOL file


 25 24  0  0  0  0  0  0  0  0999 V2000     
   19.3681   22.5646   20.8319 C   0  0  0  0  0  0  0  0  0  0  0  0
   19.8386   22.4696   19.7155 O   0  5  0  0  0  0  0  0  0  0  0  0
   19.0558   23.6220   21.3429 O   0  0  0  0  0  0  0  0  0  0  0  0
   19.1809   21.2889   21.6455 C   0  0  0  0  0  0  0  0  0  0  0  0
   18.9378   20.4817   20.9460 H   0  0  0  0  0  0  0  0  0  0  0  0
   18.3110   21.4272   22.2986 H   0  0  0  0  0  0  0  0  0  0  0  0
   20.4313   20.9276   22.4892 C   0  0  0  0  0  0  0  0  0  0  0  0
   21.2852   20.7441   21.8225 H   0  0  0  0  0  0  0  0  0  0  0  0
   20.7007   21.7967   23.1053 H   0  0  0  0  0  0  0  0  0  0  0  0
   20.2219   19.7092   23.4201 C   0  0  0  0  0  0  0  0  0  0  0  0
   19.3525   19.8843   24.0683 H   0  0  0  0  0  0  0  0  0  0  0  0
   21.0969   19.6343   24.0779 H   0  0  0  0  0  0  0  0  0  0  0  0
   20.0491   18.3735   22.6583 C   0  0  0  0  0  0  0  0  0  0  0  0
   19.2176   18.4608   21.9481 H   0  0  0  0  0  0  0  0  0  0  0  0
   20.9481   18.1773   22.0584 H   0  0  0  0  0  0  0  0  0  0  0  0
   19.7639   17.1542   23.5712 C   0  0  0  0  0  0  0  0  0  0  0  0
   19.6075   16.2836   22.9196 H   0  0  0  0  0  0  0  0  0  0  0  0
   18.8158   17.2992   24.1069 H   0  0  0  0  0  0  0  0  0  0  0  0
   20.8975   16.8106   24.5698 C   0  0  0  0  0  0  0  0  0  0  0  0
   20.9733   15.7176   24.6532 H   0  0  0  0  0  0  0  0  0  0  0  0
   21.8658   17.1546   24.1808 H   0  0  0  0  0  0  0  0  0  0  0  0
   20.6545   17.3818   25.9846 C   0  0  0  0  0  0  0  0  0  0  0  0
   19.7267   16.9806   26.4130 H   0  0  0  0  0  0  0  0  0  0  0  0
   21.4791   17.1092   26.6558 H   0  0  0  0  0  0  0  0  0  0  0  0
   20.5769   18.4750   25.9758 H   0  0  0  0  0  0  0  0  0  0  0  0
  1  2  1  0  0  0  0
  1  3  2  0  0  0  0
  1  4  1  0  0  0  0
  4  5  1  0  0  0  0
  4  6  1  0  0  0  0
  4  7  1  0  0  0  0
  7  8  1  0  0  0  0
  7  9  1  0  0  0  0
  7 10  1  0  0  0  0
 10 11  1  0  0  0  0
 10 12  1  0  0  0  0
 10 13  1  0  0  0  0
 13 14  1  0  0  0  0
 13 15  1  0  0  0  0
 13 16  1  0  0  0  0
 16 17  1  0  0  0  0
 16 18  1  0  0  0  0
 16 19  1  0  0  0  0
 19 20  1  0  0  0  0
 19 21  1  0  0  0  0
 19 22  1  0  0  0  0
 22 23  1  0  0  0  0
 22 24  1  0  0  0  0
 22 25  1  0  0  0  0
M  END
> <VConfSearch Rank>
593

> <Conf_Id>
20

> <Delta U+W>
3.224

> <U+W>
-48.406

> <U>
10.617

> <W>
-59.023

> <W(PB)>
-61.467

> <W(SA)>
2.444

> <Valence>
11.188

> <Coulomb>
-1.778

> <VdW>
1.208

> <VdW6>
-9.786

> <VdW12>
10.993

> <Bond>
0.241

> <Angle>
3.294

> <Pdih>
7.653

> <Idih>
0.001

> <Tether>
0.000

$$$$
VeraChem MOL file


 25 24  0  0  0  0  0  0  0  0999 V2000     
   20.4380   16.6035   21.8802 C   0  0  0  0  0  0  0  0  0  0  0  0
   21.1935   16.9216   20.9826 O   0  5  0  0  0  0  0  0  0  0  0  0
   19.2454   16.4296   21.7229 O   0  0  0  0  0  0  0  0  0  0  0  0
   21.0266   16.3438   23.2656 C   0  0  0  0  0  0  0  0  0  0  0  0
   21.7072   15.4915   23.1562 H   0  0  0  0  0  0  0  0  0  0  0  0
   20.2239   16.0200   23.9391 H   0  0  0  0  0  0  0  0  0  0  0  0
   21.8052   17.5360   23.8897 C   0  0  0  0  0  0  0  0  0  0  0  0
   22.4687   17.1370   24.6688 H   0  0  0  0  0  0  0  0  0  0  0  0
   22.4636   17.9892   23.1356 H   0  0  0  0  0  0  0  0  0  0  0  0
   20.9152   18.6240   24.5401 C   0  0  0  0  0  0  0  0  0  0  0  0
   21.5694   19.3268   25.0740 H   0  0  0  0  0  0  0  0  0  0  0  0
   20.2681   18.1662   25.3008 H   0  0  0  0  0  0  0  0  0  0  0  0
   20.0517   19.4169   23.5330 C   0  0  0  0  0  0  0  0  0  0  0  0
   20.6851   19.7869   22.7151 H   0  0  0  0  0  0  0  0  0  0  0  0
   19.3006   18.7550   23.0839 H   0  0  0  0  0  0  0  0  0  0  0  0
   19.3321   20.6046   24.2084 C   0  0  0  0  0  0  0  0  0  0  0  0
   20.0753   21.2794   24.6549 H   0  0  0  0  0  0  0  0  0  0  0  0
   18.7030   20.2332   25.0290 H   0  0  0  0  0  0  0  0  0  0  0  0
   18.4607   21.3902   23.2060 C   0  0  0  0  0  0  0  0  0  0  0  0
   19.0872   21.7638   22.3842 H   0  0  0  0  0  0  0  0  0  0  0  0
   17.7148   20.7187   22.7584 H   0  0  0  0  0  0  0  0  0  0  0  0
   17.7430   22.5751   23.8833 C   0  0  0  0  0  0  0  0  0  0  0  0
   18.4674   23.2796   24.3126 H   0  0  0  0  0  0  0  0  0  0  0  0
   17.1284   23.1218   23.1564 H   0  0  0  0  0  0  0  0  0  0  0  0
   17.0845   22.2264   24.6896 H   0  0  0  0  0  0  0  0  0  0  0  0
  1  2  1  0  0  0  0
  1  3  2  0  0  0  0
  1  4  1  0  0  0  0
  4  5  1  0  0  0  0
  4  6  1  0  0  0  0
  4  7  1  0  0  0  0
  7  8  1  0  0  0  0
  7  9  1  0  0  0  0
  7 10  1  0  0  0  0
 10 11  1  0  0  0  0
 10 12  1  0  0  0  0
 10 13  1  0  0  0  0
 13 14  1  0  0  0  0
 13 15  1  0  0  0  0
 13 16  1  0  0  0  0
 16 17  1  0  0  0  0
 16 18  1  0  0  0  0
 16 19  1  0  0  0  0
 19 20  1  0  0  0  0
 19 21  1  0  0  0  0
 19 22  1  0  0  0  0
 22 23  1  0  0  0  0
 22 24  1  0  0  0  0
 22 25  1  0  0  0  0
M  END
> <VConfSearch Rank>
594

> <Conf_Id>
24

> <Delta U+W>
1.784

> <U+W>
-49.846

> <U>
10.904

> <W>
-60.749

> <W(PB)>
-63.220

> <W(SA)>
2.471

> <Valence>
9.445

> <Coulomb>
0.780

> <VdW>
0.679

> <VdW6>
-10.008

> <VdW12>
10.687

> <Bond>
0.201

> <Angle>
3.198

> <Pdih>
6.039

> <Idih>
0.006

> <Tether>
0.000

$$$$
VeraChem MOL file


 25 24  0  0  0  0  0  0  0  0999 V2000     
   21.9915   20.3935   25.7900 C   0  0  0  0  0  0  0  0  0  0  0  0
   21.7784   19.8008   26.8297 O   0  5  0  0  0  0  0  0  0  0  0  0
   22.9830   20.2182   25.1092 O   0  0  0  0  0  0  0  0  0  0  0  0
   20.9948   21.4634   25.3480 C   0  0  0  0  0  0  0  0  0  0  0  0
   21.3602   21.9319   24.4261 H   0  0  0  0  0  0  0  0  0  0  0  0
   21.0121   22.2391   26.1222 H   0  0  0  0  0  0  0  0  0  0  0  0
   19.5327   20.9702   25.1586 C   0  0  0  0  0  0  0  0  0  0  0  0
   19.2437   20.3236   25.9989 H   0  0  0  0  0  0  0  0  0  0  0  0
   18.8705   21.8450   25.2094 H   0  0  0  0  0  0  0  0  0  0  0  0
   19.2591   20.2491   23.8153 C   0  0  0  0  0  0  0  0  0  0  0  0
   19.5388   20.9053   22.9798 H   0  0  0  0  0  0  0  0  0  0  0  0
   18.1761   20.0852   23.7297 H   0  0  0  0  0  0  0  0  0  0  0  0
   19.9799   18.8896   23.6716 C   0  0  0  0  0  0  0  0  0  0  0  0
   21.0648   19.0463   23.6224 H   0  0  0  0  0  0  0  0  0  0  0  0
   19.7837   18.2723   24.5590 H   0  0  0  0  0  0  0  0  0  0  0  0
   19.5256   18.1333   22.4042 C   0  0  0  0  0  0  0  0  0  0  0  0
   19.7181   18.7540   21.5184 H   0  0  0  0  0  0  0  0  0  0  0  0
   18.4410   17.9630   22.4463 H   0  0  0  0  0  0  0  0  0  0  0  0
   20.2532   16.7808   22.2537 C   0  0  0  0  0  0  0  0  0  0  0  0
   21.3385   16.9473   22.2095 H   0  0  0  0  0  0  0  0  0  0  0  0
   20.0620   16.1572   23.1380 H   0  0  0  0  0  0  0  0  0  0  0  0
   19.7978   16.0282   20.9873 C   0  0  0  0  0  0  0  0  0  0  0  0
   20.0064   16.6168   20.0843 H   0  0  0  0  0  0  0  0  0  0  0  0
   20.3250   15.0696   20.8963 H   0  0  0  0  0  0  0  0  0  0  0  0
   18.7202   15.8205   21.0199 H   0  0  0  0  0  0  0  0  0  0  0  0
  1  2  1  0  0  0  0
  1  3  2  0  0  0  0
  1  4  1  0  0  0  0
  4  5  1  0  0  0  0
  4  6  1  0  0  0  0
  4  7  1  0  0  0  0
  7  8  1  0  0  0  0
  7  9  1  0  0  0  0
  7 10  1  0  0  0  0
 10 11  1  0  0  0  0
 10 12  1  0  0  0  0
 10 13  1  0  0  0  0
 13 14  1  0  0  0  0
 13 15  1  0  0  0  0
 13 16  1  0  0  0  0
 16 17  1  0  0  0  0
 16 18  1  0  0  0  0
 16 19  1  0  0  0  0
 19 20  1  0  0  0  0
 19 21  1  0  0  0  0
 19 22  1  0  0  0  0
 22 23  1  0  0  0  0
 22 24  1  0  0  0  0
 22 25  1  0  0  0  0
M  END
> <VConfSearch Rank>
595

> <Conf_Id>
9

> <Delta U+W>
1.764

> <U+W>
-49.865

> <U>
10.902

> <W>
-60.768

> <W(PB)>
-63.223

> <W(SA)>
2.456

> <Valence>
9.445

> <Coulomb>
0.778

> <VdW>
0.679

> <VdW6>
-10.007

> <VdW12>
10.687

> <Bond>
0.201

> <Angle>
3.198

> <Pdih>
6.040

> <Idih>
0.006

> <Tether>
0.000

$$$$
VeraChem MOL file


 25 24  0  0  0  0  0  0  0  0999 V2000     
   17.0587   19.0265   25.6510 C   0  0  0  0  0  0  0  0  0  0  0  0
   17.4976   18.0489   26.2239 O   0  5  0  0  0  0  0  0  0  0  0  0
   16.1583   19.7155   26.0885 O   0  0  0  0  0  0  0  0  0  0  0  0
   17.6856   19.4228   24.3192 C   0  0  0  0  0  0  0  0  0  0  0  0
   16.9018   19.8700   23.6965 H   0  0  0  0  0  0  0  0  0  0  0  0
   18.0088   18.5065   23.8158 H   0  0  0  0  0  0  0  0  0  0  0  0
   18.8655   20.4170   24.4843 C   0  0  0  0  0  0  0  0  0  0  0  0
   18.4816   21.3158   24.9865 H   0  0  0  0  0  0  0  0  0  0  0  0
   19.6260   19.9937   25.1550 H   0  0  0  0  0  0  0  0  0  0  0  0
   19.5110   20.8387   23.1398 C   0  0  0  0  0  0  0  0  0  0  0  0
   19.8220   21.8889   23.2252 H   0  0  0  0  0  0  0  0  0  0  0  0
   18.7649   20.8134   22.3338 H   0  0  0  0  0  0  0  0  0  0  0  0
   20.7601   20.0155   22.7361 C   0  0  0  0  0  0  0  0  0  0  0  0
   21.1798   20.4527   21.8199 H   0  0  0  0  0  0  0  0  0  0  0  0
   21.5286   20.1273   23.5121 H   0  0  0  0  0  0  0  0  0  0  0  0
   20.4797   18.5138   22.4925 C   0  0  0  0  0  0  0  0  0  0  0  0
   19.6076   18.4133   21.8324 H   0  0  0  0  0  0  0  0  0  0  0  0
   20.2195   18.0262   23.4411 H   0  0  0  0  0  0  0  0  0  0  0  0
   21.6717   17.7650   21.8522 C   0  0  0  0  0  0  0  0  0  0  0  0
   21.3602   16.7368   21.6224 H   0  0  0  0  0  0  0  0  0  0  0  0
   21.9313   18.2323   20.8922 H   0  0  0  0  0  0  0  0  0  0  0  0
   22.9196   17.7165   22.7603 C   0  0  0  0  0  0  0  0  0  0  0  0
   22.6781   17.2757   23.7362 H   0  0  0  0  0  0  0  0  0  0  0  0
   23.7070   17.1064   22.2990 H   0  0  0  0  0  0  0  0  0  0  0  0
   23.3314   18.7196   22.9279 H   0  0  0  0  0  0  0  0  0  0  0  0
  1  2  1  0  0  0  0
  1  3  2  0  0  0  0
  1  4  1  0  0  0  0
  4  5  1  0  0  0  0
  4  6  1  0  0  0  0
  4  7  1  0  0  0  0
  7  8  1  0  0  0  0
  7  9  1  0  0  0  0
  7 10  1  0  0  0  0
 10 11  1  0  0  0  0
 10 12  1  0  0  0  0
 10 13  1  0  0  0  0
 13 14  1  0  0  0  0
 13 15  1  0  0  0  0
 13 16  1  0  0  0  0
 16 17  1  0  0  0  0
 16 18  1  0  0  0  0
 16 19  1  0  0  0  0
 19 20  1  0  0  0  0
 19 21  1  0  0  0  0
 19 22  1  0  0  0  0
 22 23  1  0  0  0  0
 22 24  1  0  0  0  0
 22 25  1  0  0  0  0
M  END
> <VConfSearch Rank>
596

> <Conf_Id>
89

> <Delta U+W>
2.903

> <U+W>
-48.726

> <U>
10.996

> <W>
-59.723

> <W(PB)>
-62.151

> <W(SA)>
2.428

> <Valence>
10.985

> <Coulomb>
-0.995

> <VdW>
1.006

> <VdW6>
-10.062

> <VdW12>
11.069

> <Bond>
0.238

> <Angle>
3.202

> <Pdih>
7.544

> <Idih>
0.001

> <Tether>
0.000

$$$$
VeraChem MOL file


 25 24  0  0  0  0  0  0  0  0999 V2000     
   16.8102   18.9028   22.3509 C   0  0  0  0  0  0  0  0  0  0  0  0
   16.3150   18.2976   23.2813 O   0  5  0  0  0  0  0  0  0  0  0  0
   16.5193   20.0479   22.0651 O   0  0  0  0  0  0  0  0  0  0  0  0
   17.8023   18.1616   21.4565 C   0  0  0  0  0  0  0  0  0  0  0  0
   17.3342   18.0955   20.4676 H   0  0  0  0  0  0  0  0  0  0  0  0
   17.9119   17.1331   21.8209 H   0  0  0  0  0  0  0  0  0  0  0  0
   19.1967   18.8341   21.3117 C   0  0  0  0  0  0  0  0  0  0  0  0
   19.6601   18.4553   20.3907 H   0  0  0  0  0  0  0  0  0  0  0  0
   19.0780   19.9168   21.1660 H   0  0  0  0  0  0  0  0  0  0  0  0
   20.1779   18.5596   22.4786 C   0  0  0  0  0  0  0  0  0  0  0  0
   21.1634   18.9376   22.1797 H   0  0  0  0  0  0  0  0  0  0  0  0
   20.2919   17.4760   22.6182 H   0  0  0  0  0  0  0  0  0  0  0  0
   19.7631   19.2156   23.8181 C   0  0  0  0  0  0  0  0  0  0  0  0
   19.5886   20.2899   23.6698 H   0  0  0  0  0  0  0  0  0  0  0  0
   18.8095   18.7875   24.1498 H   0  0  0  0  0  0  0  0  0  0  0  0
   20.7938   19.0072   24.9537 C   0  0  0  0  0  0  0  0  0  0  0  0
   20.9920   17.9339   25.0790 H   0  0  0  0  0  0  0  0  0  0  0  0
   20.3445   19.3512   25.8953 H   0  0  0  0  0  0  0  0  0  0  0  0
   22.1238   19.7629   24.7317 C   0  0  0  0  0  0  0  0  0  0  0  0
   22.6350   19.3792   23.8394 H   0  0  0  0  0  0  0  0  0  0  0  0
   21.9194   20.8273   24.5514 H   0  0  0  0  0  0  0  0  0  0  0  0
   23.0638   19.6210   25.9459 C   0  0  0  0  0  0  0  0  0  0  0  0
   23.3068   18.5668   26.1329 H   0  0  0  0  0  0  0  0  0  0  0  0
   24.0042   20.1600   25.7721 H   0  0  0  0  0  0  0  0  0  0  0  0
   22.6005   20.0322   26.8523 H   0  0  0  0  0  0  0  0  0  0  0  0
  1  2  1  0  0  0  0
  1  3  2  0  0  0  0
  1  4  1  0  0  0  0
  4  5  1  0  0  0  0
  4  6  1  0  0  0  0
  4  7  1  0  0  0  0
  7  8  1  0  0  0  0
  7  9  1  0  0  0  0
  7 10  1  0  0  0  0
 10 11  1  0  0  0  0
 10 12  1  0  0  0  0
 10 13  1  0  0  0  0
 13 14  1  0  0  0  0
 13 15  1  0  0  0  0
 13 16  1  0  0  0  0
 16 17  1  0  0  0  0
 16 18  1  0  0  0  0
 16 19  1  0  0  0  0
 19 20  1  0  0  0  0
 19 21  1  0  0  0  0
 19 22  1  0  0  0  0
 22 23  1  0  0  0  0
 22 24  1  0  0  0  0
 22 25  1  0  0  0  0
M  END
> <VConfSearch Rank>
597

> <Conf_Id>
114

> <Delta U+W>
2.758

> <U+W>
-48.871

> <U>
11.422

> <W>
-60.293

> <W(PB)>
-62.719

> <W(SA)>
2.425

> <Valence>
10.135

> <Coulomb>
0.369

> <VdW>
0.918

> <VdW6>
-10.482

> <VdW12>
11.400

> <Bond>
0.245

> <Angle>
3.539

> <Pdih>
6.346

> <Idih>
0.006

> <Tether>
0.000

$$$$
VeraChem MOL file


 25 24  0  0  0  0  0  0  0  0999 V2000     
   18.4253   19.7469   20.0751 C   0  0  0  0  0  0  0  0  0  0  0  0
   19.1923   20.4273   19.4226 O   0  5  0  0  0  0  0  0  0  0  0  0
   18.0469   18.6437   19.7332 O   0  0  0  0  0  0  0  0  0  0  0  0
   17.8903   20.3157   21.3863 C   0  0  0  0  0  0  0  0  0  0  0  0
   16.8105   20.1273   21.4097 H   0  0  0  0  0  0  0  0  0  0  0  0
   18.0223   21.4044   21.3752 H   0  0  0  0  0  0  0  0  0  0  0  0
   18.5500   19.7079   22.6514 C   0  0  0  0  0  0  0  0  0  0  0  0
   18.0200   20.0742   23.5409 H   0  0  0  0  0  0  0  0  0  0  0  0
   18.4201   18.6179   22.6301 H   0  0  0  0  0  0  0  0  0  0  0  0
   20.0509   20.0673   22.7666 C   0  0  0  0  0  0  0  0  0  0  0  0
   20.1622   21.1576   22.6908 H   0  0  0  0  0  0  0  0  0  0  0  0
   20.6036   19.6410   21.9180 H   0  0  0  0  0  0  0  0  0  0  0  0
   20.6997   19.5998   24.0914 C   0  0  0  0  0  0  0  0  0  0  0  0
   21.7100   20.0250   24.1421 H   0  0  0  0  0  0  0  0  0  0  0  0
   20.1431   20.0173   24.9414 H   0  0  0  0  0  0  0  0  0  0  0  0
   20.7834   18.0593   24.2268 C   0  0  0  0  0  0  0  0  0  0  0  0
   21.3370   17.6421   23.3747 H   0  0  0  0  0  0  0  0  0  0  0  0
   19.7733   17.6331   24.1808 H   0  0  0  0  0  0  0  0  0  0  0  0
   21.4390   17.5933   25.5480 C   0  0  0  0  0  0  0  0  0  0  0  0
   20.8947   18.0183   26.4026 H   0  0  0  0  0  0  0  0  0  0  0  0
   21.3348   16.5023   25.6259 H   0  0  0  0  0  0  0  0  0  0  0  0
   22.9365   17.9558   25.6521 C   0  0  0  0  0  0  0  0  0  0  0  0
   23.3741   17.5202   26.5597 H   0  0  0  0  0  0  0  0  0  0  0  0
   23.4951   17.5702   24.7894 H   0  0  0  0  0  0  0  0  0  0  0  0
   23.0847   19.0416   25.7015 H   0  0  0  0  0  0  0  0  0  0  0  0
  1  2  1  0  0  0  0
  1  3  2  0  0  0  0
  1  4  1  0  0  0  0
  4  5  1  0  0  0  0
  4  6  1  0  0  0  0
  4  7  1  0  0  0  0
  7  8  1  0  0  0  0
  7  9  1  0  0  0  0
  7 10  1  0  0  0  0
 10 11  1  0  0  0  0
 10 12  1  0  0  0  0
 10 13  1  0  0  0  0
 13 14  1  0  0  0  0
 13 15  1  0  0  0  0
 13 16  1  0  0  0  0
 16 17  1  0  0  0  0
 16 18  1  0  0  0  0
 16 19  1  0  0  0  0
 19 20  1  0  0  0  0
 19 21  1  0  0  0  0
 19 22  1  0  0  0  0
 22 23  1  0  0  0  0
 22 24  1  0  0  0  0
 22 25  1  0  0  0  0
M  END
> <VConfSearch Rank>
598

> <Conf_Id>
87

> <Delta U+W>
1.453

> <U+W>
-50.176

> <U>
9.763

> <W>
-59.940

> <W(PB)>
-62.392

> <W(SA)>
2.452

> <Valence>
8.883

> <Coulomb>
-0.122

> <VdW>
1.003

> <VdW6>
-9.782

> <VdW12>
10.785

> <Bond>
0.212

> <Angle>
2.940

> <Pdih>
5.730

> <Idih>
0.001

> <Tether>
0.000

$$$$
VeraChem MOL file


 25 24  0  0  0  0  0  0  0  0999 V2000     
   18.7672   17.2902   20.0638 C   0  0  0  0  0  0  0  0  0  0  0  0
   19.6984   17.4536   19.3004 O   0  5  0  0  0  0  0  0  0  0  0  0
   18.0427   16.3148   20.0431 O   0  0  0  0  0  0  0  0  0  0  0  0
   18.5044   18.3597   21.1181 C   0  0  0  0  0  0  0  0  0  0  0  0
   17.4243   18.3965   21.3040 H   0  0  0  0  0  0  0  0  0  0  0  0
   18.7949   19.3303   20.6986 H   0  0  0  0  0  0  0  0  0  0  0  0
   19.2667   18.1003   22.4408 C   0  0  0  0  0  0  0  0  0  0  0  0
   18.9722   17.1218   22.8444 H   0  0  0  0  0  0  0  0  0  0  0  0
   20.3424   18.0480   22.2262 H   0  0  0  0  0  0  0  0  0  0  0  0
   18.9883   19.2023   23.4890 C   0  0  0  0  0  0  0  0  0  0  0  0
   17.9034   19.2871   23.6387 H   0  0  0  0  0  0  0  0  0  0  0  0
   19.3192   20.1752   23.1023 H   0  0  0  0  0  0  0  0  0  0  0  0
   19.6503   18.9280   24.8626 C   0  0  0  0  0  0  0  0  0  0  0  0
   19.3563   19.7213   25.5625 H   0  0  0  0  0  0  0  0  0  0  0  0
   19.2356   17.9988   25.2762 H   0  0  0  0  0  0  0  0  0  0  0  0
   21.1975   18.8128   24.8415 C   0  0  0  0  0  0  0  0  0  0  0  0
   21.4877   17.9190   24.2739 H   0  0  0  0  0  0  0  0  0  0  0  0
   21.5492   18.6390   25.8675 H   0  0  0  0  0  0  0  0  0  0  0  0
   21.9424   20.0399   24.2606 C   0  0  0  0  0  0  0  0  0  0  0  0
   23.0213   19.8333   24.2739 H   0  0  0  0  0  0  0  0  0  0  0  0
   21.6732   20.1804   23.2053 H   0  0  0  0  0  0  0  0  0  0  0  0
   21.6760   21.3429   25.0448 C   0  0  0  0  0  0  0  0  0  0  0  0
   21.9232   21.2195   26.1072 H   0  0  0  0  0  0  0  0  0  0  0  0
   22.2882   22.1627   24.6475 H   0  0  0  0  0  0  0  0  0  0  0  0
   20.6241   21.6458   24.9688 H   0  0  0  0  0  0  0  0  0  0  0  0
  1  2  1  0  0  0  0
  1  3  2  0  0  0  0
  1  4  1  0  0  0  0
  4  5  1  0  0  0  0
  4  6  1  0  0  0  0
  4  7  1  0  0  0  0
  7  8  1  0  0  0  0
  7  9  1  0  0  0  0
  7 10  1  0  0  0  0
 10 11  1  0  0  0  0
 10 12  1  0  0  0  0
 10 13  1  0  0  0  0
 13 14  1  0  0  0  0
 13 15  1  0  0  0  0
 13 16  1  0  0  0  0
 16 17  1  0  0  0  0
 16 18  1  0  0  0  0
 16 19  1  0  0  0  0
 19 20  1  0  0  0  0
 19 21  1  0  0  0  0
 19 22  1  0  0  0  0
 22 23  1  0  0  0  0
 22 24  1  0  0  0  0
 22 25  1  0  0  0  0
M  END
> <VConfSearch Rank>
599

> <Conf_Id>
29

> <Delta U+W>
0.850

> <U+W>
-50.780

> <U>
8.646

> <W>
-59.426

> <W(PB)>
-61.868

> <W(SA)>
2.442

> <Valence>
8.924

> <Coulomb>
-1.171

> <VdW>
0.894

> <VdW6>
-10.223

> <VdW12>
11.117

> <Bond>
0.231

> <Angle>
3.232

> <Pdih>
5.461

> <Idih>
0.001

> <Tether>
0.000

$$$$
VeraChem MOL file


 25 24  0  0  0  0  0  0  0  0999 V2000     
   22.8871   21.6998   22.3650 C   0  0  0  0  0  0  0  0  0  0  0  0
   23.1950   21.3131   21.2549 O   0  5  0  0  0  0  0  0  0  0  0  0
   23.6729   22.1989   23.1461 O   0  0  0  0  0  0  0  0  0  0  0  0
   21.4385   21.5322   22.8097 C   0  0  0  0  0  0  0  0  0  0  0  0
   20.7976   21.6246   21.9247 H   0  0  0  0  0  0  0  0  0  0  0  0
   21.1894   22.3640   23.4793 H   0  0  0  0  0  0  0  0  0  0  0  0
   21.1794   20.1793   23.5172 C   0  0  0  0  0  0  0  0  0  0  0  0
   21.4546   19.3637   22.8354 H   0  0  0  0  0  0  0  0  0  0  0  0
   21.8337   20.0972   24.3960 H   0  0  0  0  0  0  0  0  0  0  0  0
   19.7026   20.0323   23.9508 C   0  0  0  0  0  0  0  0  0  0  0  0
   19.0503   20.0740   23.0686 H   0  0  0  0  0  0  0  0  0  0  0  0
   19.4261   20.8928   24.5749 H   0  0  0  0  0  0  0  0  0  0  0  0
   19.4216   18.7372   24.7535 C   0  0  0  0  0  0  0  0  0  0  0  0
   20.0126   18.7592   25.6791 H   0  0  0  0  0  0  0  0  0  0  0  0
   18.3710   18.7387   25.0723 H   0  0  0  0  0  0  0  0  0  0  0  0
   19.7261   17.4134   24.0035 C   0  0  0  0  0  0  0  0  0  0  0  0
   19.4707   16.5719   24.6617 H   0  0  0  0  0  0  0  0  0  0  0  0
   20.8071   17.3349   23.8289 H   0  0  0  0  0  0  0  0  0  0  0  0
   18.9858   17.2340   22.6552 C   0  0  0  0  0  0  0  0  0  0  0  0
   19.2940   18.0155   21.9480 H   0  0  0  0  0  0  0  0  0  0  0  0
   19.2977   16.2800   22.2085 H   0  0  0  0  0  0  0  0  0  0  0  0
   17.4484   17.2367   22.7982 C   0  0  0  0  0  0  0  0  0  0  0  0
   17.0820   18.2120   23.1424 H   0  0  0  0  0  0  0  0  0  0  0  0
   16.9721   17.0239   21.8324 H   0  0  0  0  0  0  0  0  0  0  0  0
   17.1192   16.4725   23.5141 H   0  0  0  0  0  0  0  0  0  0  0  0
  1  2  1  0  0  0  0
  1  3  2  0  0  0  0
  1  4  1  0  0  0  0
  4  5  1  0  0  0  0
  4  6  1  0  0  0  0
  4  7  1  0  0  0  0
  7  8  1  0  0  0  0
  7  9  1  0  0  0  0
  7 10  1  0  0  0  0
 10 11  1  0  0  0  0
 10 12  1  0  0  0  0
 10 13  1  0  0  0  0
 13 14  1  0  0  0  0
 13 15  1  0  0  0  0
 13 16  1  0  0  0  0
 16 17  1  0  0  0  0
 16 18  1  0  0  0  0
 16 19  1  0  0  0  0
 19 20  1  0  0  0  0
 19 21  1  0  0  0  0
 19 22  1  0  0  0  0
 22 23  1  0  0  0  0
 22 24  1  0  0  0  0
 22 25  1  0  0  0  0
M  END
> <VConfSearch Rank>
600

> <Conf_Id>
30

> <Delta U+W>
0.843

> <U+W>
-50.787

> <U>
8.647

> <W>
-59.434

> <W(PB)>
-61.861

> <W(SA)>
2.428

> <Valence>
8.924

> <Coulomb>
-1.170

> <VdW>
0.894

> <VdW6>
-10.224

> <VdW12>
11.118

> <Bond>
0.231

> <Angle>
3.232

> <Pdih>
5.460

> <Idih>
0.000

> <Tether>
0.000

$$$$
VeraChem MOL file


 25 24  0  0  0  0  0  0  0  0999 V2000     
   21.0866   21.7912   26.9039 C   0  0  0  0  0  0  0  0  0  0  0  0
   21.0111   20.8512   27.6715 O   0  5  0  0  0  0  0  0  0  0  0  0
   21.3515   22.9214   27.2625 O   0  0  0  0  0  0  0  0  0  0  0  0
   20.8413   21.5725   25.4101 C   0  0  0  0  0  0  0  0  0  0  0  0
   21.7388   21.9100   24.8786 H   0  0  0  0  0  0  0  0  0  0  0  0
   20.0225   22.2380   25.1124 H   0  0  0  0  0  0  0  0  0  0  0  0
   20.5067   20.1134   25.0007 C   0  0  0  0  0  0  0  0  0  0  0  0
   21.3282   19.4512   25.3077 H   0  0  0  0  0  0  0  0  0  0  0  0
   19.6104   19.7795   25.5416 H   0  0  0  0  0  0  0  0  0  0  0  0
   20.2746   19.9825   23.4796 C   0  0  0  0  0  0  0  0  0  0  0  0
   21.1719   20.3169   22.9410 H   0  0  0  0  0  0  0  0  0  0  0  0
   19.4530   20.6453   23.1751 H   0  0  0  0  0  0  0  0  0  0  0  0
   19.9419   18.5303   23.0746 C   0  0  0  0  0  0  0  0  0  0  0  0
   20.7634   17.8672   23.3790 H   0  0  0  0  0  0  0  0  0  0  0  0
   19.0446   18.1956   23.6131 H   0  0  0  0  0  0  0  0  0  0  0  0
   19.7097   18.3987   21.5539 C   0  0  0  0  0  0  0  0  0  0  0  0
   20.6069   18.7333   21.0152 H   0  0  0  0  0  0  0  0  0  0  0  0
   18.8882   19.0616   21.2493 H   0  0  0  0  0  0  0  0  0  0  0  0
   19.3773   16.9472   21.1489 C   0  0  0  0  0  0  0  0  0  0  0  0
   20.1978   16.2813   21.4504 H   0  0  0  0  0  0  0  0  0  0  0  0
   18.4791   16.6096   21.6845 H   0  0  0  0  0  0  0  0  0  0  0  0
   19.1461   16.8199   19.6297 C   0  0  0  0  0  0  0  0  0  0  0  0
   20.0409   17.1215   19.0696 H   0  0  0  0  0  0  0  0  0  0  0  0
   18.9111   15.7822   19.3597 H   0  0  0  0  0  0  0  0  0  0  0  0
   18.3093   17.4523   19.3054 H   0  0  0  0  0  0  0  0  0  0  0  0
  1  2  1  0  0  0  0
  1  3  2  0  0  0  0
  1  4  1  0  0  0  0
  4  5  1  0  0  0  0
  4  6  1  0  0  0  0
  4  7  1  0  0  0  0
  7  8  1  0  0  0  0
  7  9  1  0  0  0  0
  7 10  1  0  0  0  0
 10 11  1  0  0  0  0
 10 12  1  0  0  0  0
 10 13  1  0  0  0  0
 13 14  1  0  0  0  0
 13 15  1  0  0  0  0
 13 16  1  0  0  0  0
 16 17  1  0  0  0  0
 16 18  1  0  0  0  0
 16 19  1  0  0  0  0
 19 20  1  0  0  0  0
 19 21  1  0  0  0  0
 19 22  1  0  0  0  0
 22 23  1  0  0  0  0
 22 24  1  0  0  0  0
 22 25  1  0  0  0  0
M  END
> <VConfSearch Rank>
601

> <Conf_Id>
0

> <Delta U+W>
0.000

> <U+W>
-51.629

> <U>
6.586

> <W>
-58.216

> <W(PB)>
-60.757

> <W(SA)>
2.541

> <Valence>
8.027

> <Coulomb>
-2.892

> <VdW>
1.451

> <VdW6>
-7.931

> <VdW12>
9.383

> <Bond>
0.149

> <Angle>
2.726

> <Pdih>
5.152

> <Idih>
0.000

> <Tether>
0.000

$$$$
VeraChem MOL file


 25 24  0  0  0  0  0  0  0  0999 V2000     
   19.7343   21.8689   26.9196 C   0  0  0  0  0  0  0  0  0  0  0  0
   19.2390   22.9578   26.7062 O   0  5  0  0  0  0  0  0  0  0  0  0
   19.6024   21.2621   27.9642 O   0  0  0  0  0  0  0  0  0  0  0  0
   20.5474   21.2175   25.8067 C   0  0  0  0  0  0  0  0  0  0  0  0
   21.3381   20.6153   26.2702 H   0  0  0  0  0  0  0  0  0  0  0  0
   21.0391   22.0129   25.2338 H   0  0  0  0  0  0  0  0  0  0  0  0
   19.6854   20.3373   24.8684 C   0  0  0  0  0  0  0  0  0  0  0  0
   19.1898   19.5544   25.4592 H   0  0  0  0  0  0  0  0  0  0  0  0
   18.8907   20.9519   24.4230 H   0  0  0  0  0  0  0  0  0  0  0  0
   20.5308   19.6894   23.7506 C   0  0  0  0  0  0  0  0  0  0  0  0
   21.3249   19.0766   24.1991 H   0  0  0  0  0  0  0  0  0  0  0  0
   21.0259   20.4746   23.1628 H   0  0  0  0  0  0  0  0  0  0  0  0
   19.6688   18.8128   22.8168 C   0  0  0  0  0  0  0  0  0  0  0  0
   19.1736   18.0275   23.4044 H   0  0  0  0  0  0  0  0  0  0  0  0
   18.8747   19.4254   22.3681 H   0  0  0  0  0  0  0  0  0  0  0  0
   20.5135   18.1646   21.6987 C   0  0  0  0  0  0  0  0  0  0  0  0
   21.3077   17.5519   22.1470 H   0  0  0  0  0  0  0  0  0  0  0  0
   21.0088   18.9497   21.1109 H   0  0  0  0  0  0  0  0  0  0  0  0
   19.6521   17.2884   20.7651 C   0  0  0  0  0  0  0  0  0  0  0  0
   19.1564   16.5007   21.3494 H   0  0  0  0  0  0  0  0  0  0  0  0
   18.8576   17.8985   20.3133 H   0  0  0  0  0  0  0  0  0  0  0  0
   20.4992   16.6430   19.6501 C   0  0  0  0  0  0  0  0  0  0  0  0
   19.8712   16.0240   18.9962 H   0  0  0  0  0  0  0  0  0  0  0  0
   20.9818   17.4096   19.0298 H   0  0  0  0  0  0  0  0  0  0  0  0
   21.2829   16.0013   20.0737 H   0  0  0  0  0  0  0  0  0  0  0  0
  1  2  1  0  0  0  0
  1  3  2  0  0  0  0
  1  4  1  0  0  0  0
  4  5  1  0  0  0  0
  4  6  1  0  0  0  0
  4  7  1  0  0  0  0
  7  8  1  0  0  0  0
  7  9  1  0  0  0  0
  7 10  1  0  0  0  0
 10 11  1  0  0  0  0
 10 12  1  0  0  0  0
 10 13  1  0  0  0  0
 13 14  1  0  0  0  0
 13 15  1  0  0  0  0
 13 16  1  0  0  0  0
 16 17  1  0  0  0  0
 16 18  1  0  0  0  0
 16 19  1  0  0  0  0
 19 20  1  0  0  0  0
 19 21  1  0  0  0  0
 19 22  1  0  0  0  0
 22 23  1  0  0  0  0
 22 24  1  0  0  0  0
 22 25  1  0  0  0  0
M  END
> <VConfSearch Rank>
602

> <Conf_Id>
27

> <Delta U+W>
-1.297

> <U+W>
-52.926

> <U>
5.617

> <W>
-58.543

> <W(PB)>
-61.065

> <W(SA)>
2.522

> <Valence>
7.531

> <Coulomb>
-2.818

> <VdW>
0.904

> <VdW6>
-7.640

> <VdW12>
8.544

> <Bond>
0.115

> <Angle>
2.271

> <Pdih>
5.144

> <Idih>
0.001

> <Tether>
0.000

$$$$
VeraChem MOL file


 25 24  0  0  0  0  0  0  0  0999 V2000     
   17.3433   17.6954   25.7835 C   0  0  0  0  0  0  0  0  0  0  0  0
   17.0939   18.4353   26.7148 O   0  5  0  0  0  0  0  0  0  0  0  0
   16.5597   17.4561   24.8858 O   0  0  0  0  0  0  0  0  0  0  0  0
   18.7101   17.0173   25.7503 C   0  0  0  0  0  0  0  0  0  0  0  0
   18.6557   16.1526   25.0778 H   0  0  0  0  0  0  0  0  0  0  0  0
   18.9064   16.6260   26.7554 H   0  0  0  0  0  0  0  0  0  0  0  0
   19.8689   17.9556   25.3239 C   0  0  0  0  0  0  0  0  0  0  0  0
   19.8929   18.8298   25.9893 H   0  0  0  0  0  0  0  0  0  0  0  0
   20.8229   17.4283   25.4602 H   0  0  0  0  0  0  0  0  0  0  0  0
   19.7484   18.4191   23.8548 C   0  0  0  0  0  0  0  0  0  0  0  0
   18.8040   18.9630   23.7145 H   0  0  0  0  0  0  0  0  0  0  0  0
   19.7112   17.5415   23.1949 H   0  0  0  0  0  0  0  0  0  0  0  0
   20.9283   19.3255   23.4426 C   0  0  0  0  0  0  0  0  0  0  0  0
   20.9647   20.2028   24.1030 H   0  0  0  0  0  0  0  0  0  0  0  0
   21.8736   18.7826   23.5792 H   0  0  0  0  0  0  0  0  0  0  0  0
   20.8081   19.7898   21.9749 C   0  0  0  0  0  0  0  0  0  0  0  0
   19.8627   20.3326   21.8381 H   0  0  0  0  0  0  0  0  0  0  0  0
   20.7713   18.9126   21.3144 H   0  0  0  0  0  0  0  0  0  0  0  0
   21.9869   20.6962   21.5626 C   0  0  0  0  0  0  0  0  0  0  0  0
   22.0256   21.5757   22.2202 H   0  0  0  0  0  0  0  0  0  0  0  0
   22.9343   20.1557   21.6963 H   0  0  0  0  0  0  0  0  0  0  0  0
   21.8630   21.1577   20.0966 C   0  0  0  0  0  0  0  0  0  0  0  0
   20.9382   21.7289   19.9414 H   0  0  0  0  0  0  0  0  0  0  0  0
   22.7088   21.8007   19.8205 H   0  0  0  0  0  0  0  0  0  0  0  0
   21.8537   20.2981   19.4136 H   0  0  0  0  0  0  0  0  0  0  0  0
  1  2  1  0  0  0  0
  1  3  2  0  0  0  0
  1  4  1  0  0  0  0
  4  5  1  0  0  0  0
  4  6  1  0  0  0  0
  4  7  1  0  0  0  0
  7  8  1  0  0  0  0
  7  9  1  0  0  0  0
  7 10  1  0  0  0  0
 10 11  1  0  0  0  0
 10 12  1  0  0  0  0
 10 13  1  0  0  0  0
 13 14  1  0  0  0  0
 13 15  1  0  0  0  0
 13 16  1  0  0  0  0
 16 17  1  0  0  0  0
 16 18  1  0  0  0  0
 16 19  1  0  0  0  0
 19 20  1  0  0  0  0
 19 21  1  0  0  0  0
 19 22  1  0  0  0  0
 22 23  1  0  0  0  0
 22 24  1  0  0  0  0
 22 25  1  0  0  0  0
M  END
> <VConfSearch Rank>
603

> <Conf_Id>
37

> <Delta U+W>
-0.230

> <U+W>
-51.860

> <U>
7.816

> <W>
-59.675

> <W(PB)>
-62.180

> <W(SA)>
2.505

> <Valence>
7.785

> <Coulomb>
-0.713

> <VdW>
0.744

> <VdW6>
-8.514

> <VdW12>
9.259

> <Bond>
0.136

> <Angle>
2.433

> <Pdih>
5.216

> <Idih>
0.000

> <Tether>
0.000

$$$$
VeraChem MOL file


 25 24  0  0  0  0  0  0  0  0999 V2000     
   21.5727   23.0286   23.6187 C   0  0  0  0  0  0  0  0  0  0  0  0
   21.0679   23.8341   22.8615 O   0  5  0  0  0  0  0  0  0  0  0  0
   22.7240   22.6500   23.5282 O   0  0  0  0  0  0  0  0  0  0  0  0
   20.7167   22.4757   24.7548 C   0  0  0  0  0  0  0  0  0  0  0  0
   20.1957   23.3234   25.2151 H   0  0  0  0  0  0  0  0  0  0  0  0
   21.3802   22.0567   25.5210 H   0  0  0  0  0  0  0  0  0  0  0  0
   19.6807   21.4135   24.3040 C   0  0  0  0  0  0  0  0  0  0  0  0
   19.0229   21.1753   25.1508 H   0  0  0  0  0  0  0  0  0  0  0  0
   19.0421   21.8388   23.5173 H   0  0  0  0  0  0  0  0  0  0  0  0
   20.3448   20.1148   23.7938 C   0  0  0  0  0  0  0  0  0  0  0  0
   20.9924   19.7008   24.5788 H   0  0  0  0  0  0  0  0  0  0  0  0
   20.9915   20.3423   22.9350 H   0  0  0  0  0  0  0  0  0  0  0  0
   19.2956   19.0603   23.3805 C   0  0  0  0  0  0  0  0  0  0  0  0
   18.6496   18.8291   24.2385 H   0  0  0  0  0  0  0  0  0  0  0  0
   18.6486   19.4752   22.5953 H   0  0  0  0  0  0  0  0  0  0  0  0
   19.9584   17.7627   22.8699 C   0  0  0  0  0  0  0  0  0  0  0  0
   20.6056   17.3478   23.6548 H   0  0  0  0  0  0  0  0  0  0  0  0
   20.6045   17.9938   22.0119 H   0  0  0  0  0  0  0  0  0  0  0  0
   18.9100   16.7086   22.4561 C   0  0  0  0  0  0  0  0  0  0  0  0
   18.2629   16.4736   23.3125 H   0  0  0  0  0  0  0  0  0  0  0  0
   18.2619   17.1196   21.6696 H   0  0  0  0  0  0  0  0  0  0  0  0
   19.5760   15.4144   21.9469 C   0  0  0  0  0  0  0  0  0  0  0  0
   20.2061   14.9644   22.7252 H   0  0  0  0  0  0  0  0  0  0  0  0
   18.8165   14.6766   21.6572 H   0  0  0  0  0  0  0  0  0  0  0  0
   20.2052   15.6153   21.0699 H   0  0  0  0  0  0  0  0  0  0  0  0
  1  2  1  0  0  0  0
  1  3  2  0  0  0  0
  1  4  1  0  0  0  0
  4  5  1  0  0  0  0
  4  6  1  0  0  0  0
  4  7  1  0  0  0  0
  7  8  1  0  0  0  0
  7  9  1  0  0  0  0
  7 10  1  0  0  0  0
 10 11  1  0  0  0  0
 10 12  1  0  0  0  0
 10 13  1  0  0  0  0
 13 14  1  0  0  0  0
 13 15  1  0  0  0  0
 13 16  1  0  0  0  0
 16 17  1  0  0  0  0
 16 18  1  0  0  0  0
 16 19  1  0  0  0  0
 19 20  1  0  0  0  0
 19 21  1  0  0  0  0
 19 22  1  0  0  0  0
 22 23  1  0  0  0  0
 22 24  1  0  0  0  0
 22 25  1  0  0  0  0
M  END
> <VConfSearch Rank>
604

> <Conf_Id>
54

> <Delta U+W>
-0.224

> <U+W>
-51.854

> <U>
7.816

> <W>
-59.670

> <W(PB)>
-62.157

> <W(SA)>
2.487

> <Valence>
7.785

> <Coulomb>
-0.713

> <VdW>
0.744

> <VdW6>
-8.515

> <VdW12>
9.259

> <Bond>
0.136

> <Angle>
2.433

> <Pdih>
5.215

> <Idih>
0.000

> <Tether>
0.000

$$$$
VeraChem MOL file


 25 24  0  0  0  0  0  0  0  0999 V2000     
   23.3682   20.8006   25.0992 C   0  0  0  0  0  0  0  0  0  0  0  0
   23.2916   20.4620   26.2639 O   0  5  0  0  0  0  0  0  0  0  0  0
   24.3735   20.6766   24.4275 O   0  0  0  0  0  0  0  0  0  0  0  0
   22.1417   21.4334   24.4477 C   0  0  0  0  0  0  0  0  0  0  0  0
   22.4824   22.3234   23.9055 H   0  0  0  0  0  0  0  0  0  0  0  0
   21.4659   21.7824   25.2378 H   0  0  0  0  0  0  0  0  0  0  0  0
   21.3862   20.4919   23.4739 C   0  0  0  0  0  0  0  0  0  0  0  0
   20.6256   21.0792   22.9444 H   0  0  0  0  0  0  0  0  0  0  0  0
   22.0856   20.1183   22.7132 H   0  0  0  0  0  0  0  0  0  0  0  0
   20.7155   19.3009   24.2003 C   0  0  0  0  0  0  0  0  0  0  0  0
   19.9830   19.6748   24.9287 H   0  0  0  0  0  0  0  0  0  0  0  0
   21.4761   18.7585   24.7784 H   0  0  0  0  0  0  0  0  0  0  0  0
   20.0289   18.2978   23.2424 C   0  0  0  0  0  0  0  0  0  0  0  0
   20.7571   17.9386   22.5027 H   0  0  0  0  0  0  0  0  0  0  0  0
   19.7256   17.4224   23.8306 H   0  0  0  0  0  0  0  0  0  0  0  0
   18.7913   18.8824   22.5176 C   0  0  0  0  0  0  0  0  0  0  0  0
   19.0933   19.7536   21.9229 H   0  0  0  0  0  0  0  0  0  0  0  0
   18.0657   19.2460   23.2579 H   0  0  0  0  0  0  0  0  0  0  0  0
   18.1013   17.8736   21.5696 C   0  0  0  0  0  0  0  0  0  0  0  0
   17.3271   18.4027   20.9971 H   0  0  0  0  0  0  0  0  0  0  0  0
   18.8273   17.4980   20.8353 H   0  0  0  0  0  0  0  0  0  0  0  0
   17.4455   16.6861   22.3077 C   0  0  0  0  0  0  0  0  0  0  0  0
   18.1961   16.0531   22.7970 H   0  0  0  0  0  0  0  0  0  0  0  0
   16.7408   17.0391   23.0718 H   0  0  0  0  0  0  0  0  0  0  0  0
   16.8900   16.0555   21.6016 H   0  0  0  0  0  0  0  0  0  0  0  0
  1  2  1  0  0  0  0
  1  3  2  0  0  0  0
  1  4  1  0  0  0  0
  4  5  1  0  0  0  0
  4  6  1  0  0  0  0
  4  7  1  0  0  0  0
  7  8  1  0  0  0  0
  7  9  1  0  0  0  0
  7 10  1  0  0  0  0
 10 11  1  0  0  0  0
 10 12  1  0  0  0  0
 10 13  1  0  0  0  0
 13 14  1  0  0  0  0
 13 15  1  0  0  0  0
 13 16  1  0  0  0  0
 16 17  1  0  0  0  0
 16 18  1  0  0  0  0
 16 19  1  0  0  0  0
 19 20  1  0  0  0  0
 19 21  1  0  0  0  0
 19 22  1  0  0  0  0
 22 23  1  0  0  0  0
 22 24  1  0  0  0  0
 22 25  1  0  0  0  0
M  END
> <VConfSearch Rank>
605

> <Conf_Id>
101

> <Delta U+W>
1.534

> <U+W>
-50.095

> <U>
9.416

> <W>
-59.512

> <W(PB)>
-61.988

> <W(SA)>
2.476

> <Valence>
8.939

> <Coulomb>
-0.615

> <VdW>
1.092

> <VdW6>
-9.710

> <VdW12>
10.802

> <Bond>
0.216

> <Angle>
2.979

> <Pdih>
5.743

> <Idih>
0.000

> <Tether>
0.000

$$$$
VeraChem MOL file


 25 24  0  0  0  0  0  0  0  0999 V2000     
   18.7173   18.1272   19.4586 C   0  0  0  0  0  0  0  0  0  0  0  0
   19.2694   18.8534   18.6558 O   0  5  0  0  0  0  0  0  0  0  0  0
   18.2146   17.0601   19.1665 O   0  0  0  0  0  0  0  0  0  0  0  0
   18.6726   18.5686   20.9172 C   0  0  0  0  0  0  0  0  0  0  0  0
   17.7501   18.1773   21.3625 H   0  0  0  0  0  0  0  0  0  0  0  0
   18.6030   19.6619   20.9315 H   0  0  0  0  0  0  0  0  0  0  0  0
   19.9043   18.0864   21.7271 C   0  0  0  0  0  0  0  0  0  0  0  0
   19.9979   16.9979   21.6087 H   0  0  0  0  0  0  0  0  0  0  0  0
   20.8182   18.5238   21.3020 H   0  0  0  0  0  0  0  0  0  0  0  0
   19.8216   18.4134   23.2373 C   0  0  0  0  0  0  0  0  0  0  0  0
   20.6590   17.9116   23.7386 H   0  0  0  0  0  0  0  0  0  0  0  0
   18.9024   17.9836   23.6580 H   0  0  0  0  0  0  0  0  0  0  0  0
   19.8773   19.9305   23.5426 C   0  0  0  0  0  0  0  0  0  0  0  0
   20.7962   20.3600   23.1229 H   0  0  0  0  0  0  0  0  0  0  0  0
   19.0459   20.4359   23.0356 H   0  0  0  0  0  0  0  0  0  0  0  0
   19.7807   20.2614   25.0537 C   0  0  0  0  0  0  0  0  0  0  0  0
   18.8162   19.9001   25.4356 H   0  0  0  0  0  0  0  0  0  0  0  0
   19.7630   21.3533   25.1728 H   0  0  0  0  0  0  0  0  0  0  0  0
   20.9145   19.6835   25.9368 C   0  0  0  0  0  0  0  0  0  0  0  0
   20.7319   19.9819   26.9783 H   0  0  0  0  0  0  0  0  0  0  0  0
   20.8818   18.5861   25.9272 H   0  0  0  0  0  0  0  0  0  0  0  0
   22.3210   20.1667   25.5218 C   0  0  0  0  0  0  0  0  0  0  0  0
   22.3697   21.2631   25.5012 H   0  0  0  0  0  0  0  0  0  0  0  0
   23.0761   19.8073   26.2328 H   0  0  0  0  0  0  0  0  0  0  0  0
   22.5944   19.7902   24.5280 H   0  0  0  0  0  0  0  0  0  0  0  0
  1  2  1  0  0  0  0
  1  3  2  0  0  0  0
  1  4  1  0  0  0  0
  4  5  1  0  0  0  0
  4  6  1  0  0  0  0
  4  7  1  0  0  0  0
  7  8  1  0  0  0  0
  7  9  1  0  0  0  0
  7 10  1  0  0  0  0
 10 11  1  0  0  0  0
 10 12  1  0  0  0  0
 10 13  1  0  0  0  0
 13 14  1  0  0  0  0
 13 15  1  0  0  0  0
 13 16  1  0  0  0  0
 16 17  1  0  0  0  0
 16 18  1  0  0  0  0
 16 19  1  0  0  0  0
 19 20  1  0  0  0  0
 19 21  1  0  0  0  0
 19 22  1  0  0  0  0
 22 23  1  0  0  0  0
 22 24  1  0  0  0  0
 22 25  1  0  0  0  0
M  END
> <VConfSearch Rank>
606

> <Conf_Id>
75

> <Delta U+W>
1.014

> <U+W>
-50.615

> <U>
8.474

> <W>
-59.089

> <W(PB)>
-61.530

> <W(SA)>
2.441

> <Valence>
9.080

> <Coulomb>
-1.772

> <VdW>
1.165

> <VdW6>
-9.830

> <VdW12>
10.996

> <Bond>
0.240

> <Angle>
3.225

> <Pdih>
5.615

> <Idih>
0.001

> <Tether>
0.000

$$$$
VeraChem MOL file


 25 24  0  0  0  0  0  0  0  0999 V2000     
   21.0686   15.3875   21.6581 C   0  0  0  0  0  0  0  0  0  0  0  0
   20.8769   15.4271   20.4588 O   0  5  0  0  0  0  0  0  0  0  0  0
   21.8566   14.6302   22.1895 O   0  0  0  0  0  0  0  0  0  0  0  0
   20.2931   16.3565   22.5434 C   0  0  0  0  0  0  0  0  0  0  0  0
   20.1176   15.8691   23.5099 H   0  0  0  0  0  0  0  0  0  0  0  0
   19.3123   16.5276   22.0835 H   0  0  0  0  0  0  0  0  0  0  0  0
   21.0289   17.7034   22.7496 C   0  0  0  0  0  0  0  0  0  0  0  0
   22.0138   17.5141   23.1986 H   0  0  0  0  0  0  0  0  0  0  0  0
   21.2085   18.1720   21.7720 H   0  0  0  0  0  0  0  0  0  0  0  0
   20.2231   18.6672   23.6474 C   0  0  0  0  0  0  0  0  0  0  0  0
   20.0456   18.1946   24.6231 H   0  0  0  0  0  0  0  0  0  0  0  0
   19.2380   18.8421   23.1989 H   0  0  0  0  0  0  0  0  0  0  0  0
   20.9650   20.0085   23.8552 C   0  0  0  0  0  0  0  0  0  0  0  0
   21.9304   19.7947   24.3338 H   0  0  0  0  0  0  0  0  0  0  0  0
   21.1993   20.4703   22.8863 H   0  0  0  0  0  0  0  0  0  0  0  0
   20.1863   21.0096   24.7462 C   0  0  0  0  0  0  0  0  0  0  0  0
   20.9145   21.5619   25.3558 H   0  0  0  0  0  0  0  0  0  0  0  0
   19.5491   20.4693   25.4596 H   0  0  0  0  0  0  0  0  0  0  0  0
   19.3467   22.0518   23.9665 C   0  0  0  0  0  0  0  0  0  0  0  0
   18.9070   22.7548   24.6874 H   0  0  0  0  0  0  0  0  0  0  0  0
   20.0066   22.6471   23.3204 H   0  0  0  0  0  0  0  0  0  0  0  0
   18.2126   21.4421   23.1165 C   0  0  0  0  0  0  0  0  0  0  0  0
   17.5737   20.7871   23.7230 H   0  0  0  0  0  0  0  0  0  0  0  0
   17.5814   22.2343   22.6938 H   0  0  0  0  0  0  0  0  0  0  0  0
   18.6157   20.8592   22.2791 H   0  0  0  0  0  0  0  0  0  0  0  0
  1  2  1  0  0  0  0
  1  3  2  0  0  0  0
  1  4  1  0  0  0  0
  4  5  1  0  0  0  0
  4  6  1  0  0  0  0
  4  7  1  0  0  0  0
  7  8  1  0  0  0  0
  7  9  1  0  0  0  0
  7 10  1  0  0  0  0
 10 11  1  0  0  0  0
 10 12  1  0  0  0  0
 10 13  1  0  0  0  0
 13 14  1  0  0  0  0
 13 15  1  0  0  0  0
 13 16  1  0  0  0  0
 16 17  1  0  0  0  0
 16 18  1  0  0  0  0
 16 19  1  0  0  0  0
 19 20  1  0  0  0  0
 19 21  1  0  0  0  0
 19 22  1  0  0  0  0
 22 23  1  0  0  0  0
 22 24  1  0  0  0  0
 22 25  1  0  0  0  0
M  END
> <VConfSearch Rank>
607

> <Conf_Id>
125

> <Delta U+W>
2.314

> <U+W>
-49.315

> <U>
9.740

> <W>
-59.054

> <W(PB)>
-61.488

> <W(SA)>
2.433

> <Valence>
10.506

> <Coulomb>
-1.761

> <VdW>
0.994

> <VdW6>
-9.209

> <VdW12>
10.203

> <Bond>
0.193

> <Angle>
2.979

> <Pdih>
7.334

> <Idih>
0.001

> <Tether>
0.000

$$$$
VeraChem MOL file


 25 24  0  0  0  0  0  0  0  0999 V2000     
   22.9451   21.4337   21.4578 C   0  0  0  0  0  0  0  0  0  0  0  0
   22.9639   22.4804   22.0749 O   0  5  0  0  0  0  0  0  0  0  0  0
   23.5623   21.2486   20.4275 O   0  0  0  0  0  0  0  0  0  0  0  0
   22.0803   20.2979   21.9926 C   0  0  0  0  0  0  0  0  0  0  0  0
   22.0840   20.3635   23.0864 H   0  0  0  0  0  0  0  0  0  0  0  0
   22.5589   19.3494   21.7214 H   0  0  0  0  0  0  0  0  0  0  0  0
   20.6294   20.3408   21.4466 C   0  0  0  0  0  0  0  0  0  0  0  0
   20.1453   21.2746   21.7644 H   0  0  0  0  0  0  0  0  0  0  0  0
   20.6667   20.3691   20.3487 H   0  0  0  0  0  0  0  0  0  0  0  0
   19.7687   19.1310   21.8821 C   0  0  0  0  0  0  0  0  0  0  0  0
   20.2504   18.1996   21.5545 H   0  0  0  0  0  0  0  0  0  0  0  0
   18.8046   19.1833   21.3580 H   0  0  0  0  0  0  0  0  0  0  0  0
   19.5113   19.0760   23.4059 C   0  0  0  0  0  0  0  0  0  0  0  0
   20.4640   18.9551   23.9353 H   0  0  0  0  0  0  0  0  0  0  0  0
   19.0751   20.0275   23.7390 H   0  0  0  0  0  0  0  0  0  0  0  0
   18.5626   17.9140   23.7815 C   0  0  0  0  0  0  0  0  0  0  0  0
   19.0173   16.9569   23.4918 H   0  0  0  0  0  0  0  0  0  0  0  0
   17.6354   18.0066   23.1996 H   0  0  0  0  0  0  0  0  0  0  0  0
   18.1970   17.8793   25.2838 C   0  0  0  0  0  0  0  0  0  0  0  0
   17.7368   18.8334   25.5758 H   0  0  0  0  0  0  0  0  0  0  0  0
   17.4335   17.1053   25.4427 H   0  0  0  0  0  0  0  0  0  0  0  0
   19.4036   17.5824   26.2006 C   0  0  0  0  0  0  0  0  0  0  0  0
   20.1435   18.3916   26.1641 H   0  0  0  0  0  0  0  0  0  0  0  0
   19.0768   17.4785   27.2434 H   0  0  0  0  0  0  0  0  0  0  0  0
   19.8996   16.6480   25.9072 H   0  0  0  0  0  0  0  0  0  0  0  0
  1  2  1  0  0  0  0
  1  3  2  0  0  0  0
  1  4  1  0  0  0  0
  4  5  1  0  0  0  0
  4  6  1  0  0  0  0
  4  7  1  0  0  0  0
  7  8  1  0  0  0  0
  7  9  1  0  0  0  0
  7 10  1  0  0  0  0
 10 11  1  0  0  0  0
 10 12  1  0  0  0  0
 10 13  1  0  0  0  0
 13 14  1  0  0  0  0
 13 15  1  0  0  0  0
 13 16  1  0  0  0  0
 16 17  1  0  0  0  0
 16 18  1  0  0  0  0
 16 19  1  0  0  0  0
 19 20  1  0  0  0  0
 19 21  1  0  0  0  0
 19 22  1  0  0  0  0
 22 23  1  0  0  0  0
 22 24  1  0  0  0  0
 22 25  1  0  0  0  0
M  END
> <VConfSearch Rank>
608

> <Conf_Id>
4

> <Delta U+W>
0.189

> <U+W>
-51.441

> <U>
7.701

> <W>
-59.141

> <W(PB)>
-61.609

> <W(SA)>
2.467

> <Valence>
8.550

> <Coulomb>
-1.988

> <VdW>
1.139

> <VdW6>
-8.988

> <VdW12>
10.127

> <Bond>
0.191

> <Angle>
2.738

> <Pdih>
5.621

> <Idih>
0.001

> <Tether>
0.000

$$$$
VeraChem MOL file


 25 24  0  0  0  0  0  0  0  0999 V2000     
   23.0484   21.9487   23.6891 C   0  0  0  0  0  0  0  0  0  0  0  0
   23.1235   22.1770   24.8803 O   0  5  0  0  0  0  0  0  0  0  0  0
   23.8424   22.3704   22.8715 O   0  0  0  0  0  0  0  0  0  0  0  0
   21.9084   21.0649   23.1958 C   0  0  0  0  0  0  0  0  0  0  0  0
   21.6392   21.3904   22.1839 H   0  0  0  0  0  0  0  0  0  0  0  0
   21.0411   21.2505   23.8392 H   0  0  0  0  0  0  0  0  0  0  0  0
   22.2758   19.5582   23.1935 C   0  0  0  0  0  0  0  0  0  0  0  0
   23.2020   19.4221   22.6180 H   0  0  0  0  0  0  0  0  0  0  0  0
   22.4978   19.2331   24.2194 H   0  0  0  0  0  0  0  0  0  0  0  0
   21.1770   18.6546   22.5849 C   0  0  0  0  0  0  0  0  0  0  0  0
   21.5677   17.6301   22.5162 H   0  0  0  0  0  0  0  0  0  0  0  0
   20.9645   18.9758   21.5560 H   0  0  0  0  0  0  0  0  0  0  0  0
   19.8673   18.6402   23.4068 C   0  0  0  0  0  0  0  0  0  0  0  0
   20.0899   18.3670   24.4472 H   0  0  0  0  0  0  0  0  0  0  0  0
   19.4332   19.6471   23.4237 H   0  0  0  0  0  0  0  0  0  0  0  0
   18.8383   17.6457   22.8210 C   0  0  0  0  0  0  0  0  0  0  0  0
   19.3019   16.6524   22.7482 H   0  0  0  0  0  0  0  0  0  0  0  0
   18.5782   17.9435   21.7960 H   0  0  0  0  0  0  0  0  0  0  0  0
   17.5495   17.5241   23.6671 C   0  0  0  0  0  0  0  0  0  0  0  0
   16.9298   16.7178   23.2511 H   0  0  0  0  0  0  0  0  0  0  0  0
   17.8055   17.2212   24.6918 H   0  0  0  0  0  0  0  0  0  0  0  0
   16.7157   18.8234   23.7025 C   0  0  0  0  0  0  0  0  0  0  0  0
   16.4744   19.1633   22.6869 H   0  0  0  0  0  0  0  0  0  0  0  0
   15.7713   18.6588   24.2371 H   0  0  0  0  0  0  0  0  0  0  0  0
   17.2521   19.6300   24.2176 H   0  0  0  0  0  0  0  0  0  0  0  0
  1  2  1  0  0  0  0
  1  3  2  0  0  0  0
  1  4  1  0  0  0  0
  4  5  1  0  0  0  0
  4  6  1  0  0  0  0
  4  7  1  0  0  0  0
  7  8  1  0  0  0  0
  7  9  1  0  0  0  0
  7 10  1  0  0  0  0
 10 11  1  0  0  0  0
 10 12  1  0  0  0  0
 10 13  1  0  0  0  0
 13 14  1  0  0  0  0
 13 15  1  0  0  0  0
 13 16  1  0  0  0  0
 16 17  1  0  0  0  0
 16 18  1  0  0  0  0
 16 19  1  0  0  0  0
 19 20  1  0  0  0  0
 19 21  1  0  0  0  0
 19 22  1  0  0  0  0
 22 23  1  0  0  0  0
 22 24  1  0  0  0  0
 22 25  1  0  0  0  0
M  END
> <VConfSearch Rank>
609

> <Conf_Id>
17

> <Delta U+W>
0.219

> <U+W>
-51.411

> <U>
7.701

> <W>
-59.111

> <W(PB)>
-61.599

> <W(SA)>
2.488

> <Valence>
8.550

> <Coulomb>
-1.988

> <VdW>
1.139

> <VdW6>
-8.988

> <VdW12>
10.127

> <Bond>
0.191

> <Angle>
2.738

> <Pdih>
5.621

> <Idih>
0.001

> <Tether>
0.000

$$$$
VeraChem MOL file


 25 24  0  0  0  0  0  0  0  0999 V2000     
   18.0905   21.1871   20.6979 C   0  0  0  0  0  0  0  0  0  0  0  0
   18.8082   22.0148   20.1716 O   0  5  0  0  0  0  0  0  0  0  0  0
   17.0968   21.4682   21.3386 O   0  0  0  0  0  0  0  0  0  0  0  0
   18.4441   19.7120   20.5300 C   0  0  0  0  0  0  0  0  0  0  0  0
   19.1129   19.6084   19.6670 H   0  0  0  0  0  0  0  0  0  0  0  0
   17.5191   19.1790   20.2803 H   0  0  0  0  0  0  0  0  0  0  0  0
   19.0875   19.0723   21.7876 C   0  0  0  0  0  0  0  0  0  0  0  0
   18.4090   19.2055   22.6406 H   0  0  0  0  0  0  0  0  0  0  0  0
   19.1871   17.9905   21.6264 H   0  0  0  0  0  0  0  0  0  0  0  0
   20.4774   19.6709   22.1109 C   0  0  0  0  0  0  0  0  0  0  0  0
   20.3783   20.7402   22.3434 H   0  0  0  0  0  0  0  0  0  0  0  0
   21.1106   19.6068   21.2155 H   0  0  0  0  0  0  0  0  0  0  0  0
   21.2006   18.9551   23.2763 C   0  0  0  0  0  0  0  0  0  0  0  0
   21.3087   17.8872   23.0422 H   0  0  0  0  0  0  0  0  0  0  0  0
   22.2186   19.3605   23.3550 H   0  0  0  0  0  0  0  0  0  0  0  0
   20.4874   19.1209   24.6383 C   0  0  0  0  0  0  0  0  0  0  0  0
   19.4949   18.6534   24.6010 H   0  0  0  0  0  0  0  0  0  0  0  0
   20.3317   20.1889   24.8434 H   0  0  0  0  0  0  0  0  0  0  0  0
   21.2997   18.4886   25.7881 C   0  0  0  0  0  0  0  0  0  0  0  0
   21.4587   17.4204   25.5850 H   0  0  0  0  0  0  0  0  0  0  0  0
   22.2932   18.9550   25.8407 H   0  0  0  0  0  0  0  0  0  0  0  0
   20.5855   18.6514   27.1450 C   0  0  0  0  0  0  0  0  0  0  0  0
   19.6010   18.1656   27.1315 H   0  0  0  0  0  0  0  0  0  0  0  0
   21.1767   18.1969   27.9505 H   0  0  0  0  0  0  0  0  0  0  0  0
   20.4409   19.7124   27.3878 H   0  0  0  0  0  0  0  0  0  0  0  0
  1  2  1  0  0  0  0
  1  3  2  0  0  0  0
  1  4  1  0  0  0  0
  4  5  1  0  0  0  0
  4  6  1  0  0  0  0
  4  7  1  0  0  0  0
  7  8  1  0  0  0  0
  7  9  1  0  0  0  0
  7 10  1  0  0  0  0
 10 11  1  0  0  0  0
 10 12  1  0  0  0  0
 10 13  1  0  0  0  0
 13 14  1  0  0  0  0
 13 15  1  0  0  0  0
 13 16  1  0  0  0  0
 16 17  1  0  0  0  0
 16 18  1  0  0  0  0
 16 19  1  0  0  0  0
 19 20  1  0  0  0  0
 19 21  1  0  0  0  0
 19 22  1  0  0  0  0
 22 23  1  0  0  0  0
 22 24  1  0  0  0  0
 22 25  1  0  0  0  0
M  END
> <VConfSearch Rank>
610

> <Conf_Id>
142

> <Delta U+W>
0.593

> <U+W>
-51.037

> <U>
8.903

> <W>
-59.940

> <W(PB)>
-62.418

> <W(SA)>
2.478

> <Valence>
8.305

> <Coulomb>
-0.223

> <VdW>
0.821

> <VdW6>
-9.236

> <VdW12>
10.057

> <Bond>
0.173

> <Angle>
2.663

> <Pdih>
5.469

> <Idih>
0.001

> <Tether>
0.000

$$$$
VeraChem MOL file


 25 24  0  0  0  0  0  0  0  0999 V2000     
   17.8525   21.7502   23.5994 C   0  0  0  0  0  0  0  0  0  0  0  0
   16.7001   21.9592   23.2739 O   0  5  0  0  0  0  0  0  0  0  0  0
   18.3172   22.0769   24.6738 O   0  0  0  0  0  0  0  0  0  0  0  0
   18.7707   21.0649   22.5913 C   0  0  0  0  0  0  0  0  0  0  0  0
   19.8096   21.2005   22.9133 H   0  0  0  0  0  0  0  0  0  0  0  0
   18.6681   21.6000   21.6401 H   0  0  0  0  0  0  0  0  0  0  0  0
   18.4588   19.5595   22.3709 C   0  0  0  0  0  0  0  0  0  0  0  0
   17.4349   19.4653   21.9837 H   0  0  0  0  0  0  0  0  0  0  0  0
   19.1149   19.1657   21.5839 H   0  0  0  0  0  0  0  0  0  0  0  0
   18.5890   18.6851   23.6449 C   0  0  0  0  0  0  0  0  0  0  0  0
   18.3433   17.6462   23.3861 H   0  0  0  0  0  0  0  0  0  0  0  0
   17.8308   19.0012   24.3745 H   0  0  0  0  0  0  0  0  0  0  0  0
   19.9782   18.7163   24.3302 C   0  0  0  0  0  0  0  0  0  0  0  0
   20.1913   19.7296   24.6962 H   0  0  0  0  0  0  0  0  0  0  0  0
   19.9378   18.0750   25.2210 H   0  0  0  0  0  0  0  0  0  0  0  0
   21.1291   18.2355   23.4165 C   0  0  0  0  0  0  0  0  0  0  0  0
   21.2297   18.9104   22.5565 H   0  0  0  0  0  0  0  0  0  0  0  0
   20.8903   17.2401   23.0182 H   0  0  0  0  0  0  0  0  0  0  0  0
   22.4728   18.1799   24.1734 C   0  0  0  0  0  0  0  0  0  0  0  0
   22.7123   19.1744   24.5750 H   0  0  0  0  0  0  0  0  0  0  0  0
   22.3866   17.5007   25.0328 H   0  0  0  0  0  0  0  0  0  0  0  0
   23.6208   17.7062   23.2593 C   0  0  0  0  0  0  0  0  0  0  0  0
   23.7506   18.3863   22.4073 H   0  0  0  0  0  0  0  0  0  0  0  0
   24.5678   17.6724   23.8134 H   0  0  0  0  0  0  0  0  0  0  0  0
   23.4211   16.7001   22.8677 H   0  0  0  0  0  0  0  0  0  0  0  0
  1  2  1  0  0  0  0
  1  3  2  0  0  0  0
  1  4  1  0  0  0  0
  4  5  1  0  0  0  0
  4  6  1  0  0  0  0
  4  7  1  0  0  0  0
  7  8  1  0  0  0  0
  7  9  1  0  0  0  0
  7 10  1  0  0  0  0
 10 11  1  0  0  0  0
 10 12  1  0  0  0  0
 10 13  1  0  0  0  0
 13 14  1  0  0  0  0
 13 15  1  0  0  0  0
 13 16  1  0  0  0  0
 16 17  1  0  0  0  0
 16 18  1  0  0  0  0
 16 19  1  0  0  0  0
 19 20  1  0  0  0  0
 19 21  1  0  0  0  0
 19 22  1  0  0  0  0
 22 23  1  0  0  0  0
 22 24  1  0  0  0  0
 22 25  1  0  0  0  0
M  END
> <VConfSearch Rank>
611

> <Conf_Id>
135

> <Delta U+W>
1.314

> <U+W>
-50.316

> <U>
9.773

> <W>
-60.088

> <W(PB)>
-62.535

> <W(SA)>
2.447

> <Valence>
8.741

> <Coulomb>
0.479

> <VdW>
0.552

> <VdW6>
-10.627

> <VdW12>
11.179

> <Bond>
0.227

> <Angle>
3.155

> <Pdih>
5.358

> <Idih>
0.001

> <Tether>
0.000

$$$$
VeraChem MOL file


 25 24  0  0  0  0  0  0  0  0999 V2000     
   22.2796   22.7681   22.7764 C   0  0  0  0  0  0  0  0  0  0  0  0
   22.1943   23.2435   21.6613 O   0  5  0  0  0  0  0  0  0  0  0  0
   22.6251   23.4024   23.7537 O   0  0  0  0  0  0  0  0  0  0  0  0
   21.9110   21.3008   22.9639 C   0  0  0  0  0  0  0  0  0  0  0  0
   22.5256   20.8975   23.7775 H   0  0  0  0  0  0  0  0  0  0  0  0
   22.1922   20.7682   22.0488 H   0  0  0  0  0  0  0  0  0  0  0  0
   20.4060   21.0967   23.2786 C   0  0  0  0  0  0  0  0  0  0  0  0
   20.1413   21.7218   24.1427 H   0  0  0  0  0  0  0  0  0  0  0  0
   19.8008   21.4602   22.4366 H   0  0  0  0  0  0  0  0  0  0  0  0
   20.0313   19.6296   23.5984 C   0  0  0  0  0  0  0  0  0  0  0  0
   18.9939   19.6177   23.9558 H   0  0  0  0  0  0  0  0  0  0  0  0
   20.6549   19.2603   24.4237 H   0  0  0  0  0  0  0  0  0  0  0  0
   20.1553   18.6822   22.3812 C   0  0  0  0  0  0  0  0  0  0  0  0
   19.4840   19.0255   21.5824 H   0  0  0  0  0  0  0  0  0  0  0  0
   21.1725   18.7382   21.9744 H   0  0  0  0  0  0  0  0  0  0  0  0
   19.8561   17.1956   22.7007 C   0  0  0  0  0  0  0  0  0  0  0  0
   20.5827   16.8145   23.4313 H   0  0  0  0  0  0  0  0  0  0  0  0
   20.0283   16.6195   21.7814 H   0  0  0  0  0  0  0  0  0  0  0  0
   18.4113   16.9124   23.1828 C   0  0  0  0  0  0  0  0  0  0  0  0
   17.7224   17.6736   22.7914 H   0  0  0  0  0  0  0  0  0  0  0  0
   18.0803   15.9545   22.7583 H   0  0  0  0  0  0  0  0  0  0  0  0
   18.2910   16.8201   24.7204 C   0  0  0  0  0  0  0  0  0  0  0  0
   18.5989   17.7508   25.2106 H   0  0  0  0  0  0  0  0  0  0  0  0
   17.2533   16.6142   25.0129 H   0  0  0  0  0  0  0  0  0  0  0  0
   18.9174   16.0084   25.1125 H   0  0  0  0  0  0  0  0  0  0  0  0
  1  2  1  0  0  0  0
  1  3  2  0  0  0  0
  1  4  1  0  0  0  0
  4  5  1  0  0  0  0
  4  6  1  0  0  0  0
  4  7  1  0  0  0  0
  7  8  1  0  0  0  0
  7  9  1  0  0  0  0
  7 10  1  0  0  0  0
 10 11  1  0  0  0  0
 10 12  1  0  0  0  0
 10 13  1  0  0  0  0
 13 14  1  0  0  0  0
 13 15  1  0  0  0  0
 13 16  1  0  0  0  0
 16 17  1  0  0  0  0
 16 18  1  0  0  0  0
 16 19  1  0  0  0  0
 19 20  1  0  0  0  0
 19 21  1  0  0  0  0
 19 22  1  0  0  0  0
 22 23  1  0  0  0  0
 22 24  1  0  0  0  0
 22 25  1  0  0  0  0
M  END
> <VConfSearch Rank>
612

> <Conf_Id>
19

> <Delta U+W>
3.222

> <U+W>
-48.407

> <U>
10.617

> <W>
-59.025

> <W(PB)>
-61.462

> <W(SA)>
2.437

> <Valence>
11.188

> <Coulomb>
-1.778

> <VdW>
1.208

> <VdW6>
-9.786

> <VdW12>
10.993

> <Bond>
0.241

> <Angle>
3.294

> <Pdih>
7.653

> <Idih>
0.001

> <Tether>
0.000

$$$$
VeraChem MOL file


 25 24  0  0  0  0  0  0  0  0999 V2000     
   16.2159   19.6062   24.8539 C   0  0  0  0  0  0  0  0  0  0  0  0
   16.1206   20.4946   25.6776 O   0  5  0  0  0  0  0  0  0  0  0  0
   15.4222   18.6912   24.7560 O   0  0  0  0  0  0  0  0  0  0  0  0
   17.4099   19.6279   23.9062 C   0  0  0  0  0  0  0  0  0  0  0  0
   17.6559   20.6765   23.7061 H   0  0  0  0  0  0  0  0  0  0  0  0
   17.0972   19.1795   22.9556 H   0  0  0  0  0  0  0  0  0  0  0  0
   18.6399   18.8732   24.4748 C   0  0  0  0  0  0  0  0  0  0  0  0
   18.9746   19.3595   25.4015 H   0  0  0  0  0  0  0  0  0  0  0  0
   18.3287   17.8569   24.7535 H   0  0  0  0  0  0  0  0  0  0  0  0
   19.8211   18.7718   23.4801 C   0  0  0  0  0  0  0  0  0  0  0  0
   19.4783   18.3082   22.5451 H   0  0  0  0  0  0  0  0  0  0  0  0
   20.5684   18.0951   23.9133 H   0  0  0  0  0  0  0  0  0  0  0  0
   20.4908   20.1334   23.1770 C   0  0  0  0  0  0  0  0  0  0  0  0
   19.7369   20.8390   22.8064 H   0  0  0  0  0  0  0  0  0  0  0  0
   20.8829   20.5621   24.1093 H   0  0  0  0  0  0  0  0  0  0  0  0
   21.6273   20.0620   22.1260 C   0  0  0  0  0  0  0  0  0  0  0  0
   21.9844   21.0869   21.9561 H   0  0  0  0  0  0  0  0  0  0  0  0
   21.2263   19.7228   21.1610 H   0  0  0  0  0  0  0  0  0  0  0  0
   22.8407   19.1916   22.5388 C   0  0  0  0  0  0  0  0  0  0  0  0
   23.7592   19.6756   22.1793 H   0  0  0  0  0  0  0  0  0  0  0  0
   22.9260   19.1506   23.6334 H   0  0  0  0  0  0  0  0  0  0  0  0
   22.7919   17.7636   21.9508 C   0  0  0  0  0  0  0  0  0  0  0  0
   22.7862   17.7937   20.8535 H   0  0  0  0  0  0  0  0  0  0  0  0
   23.6719   17.1882   22.2661 H   0  0  0  0  0  0  0  0  0  0  0  0
   21.8997   17.2177   22.2780 H   0  0  0  0  0  0  0  0  0  0  0  0
  1  2  1  0  0  0  0
  1  3  2  0  0  0  0
  1  4  1  0  0  0  0
  4  5  1  0  0  0  0
  4  6  1  0  0  0  0
  4  7  1  0  0  0  0
  7  8  1  0  0  0  0
  7  9  1  0  0  0  0
  7 10  1  0  0  0  0
 10 11  1  0  0  0  0
 10 12  1  0  0  0  0
 10 13  1  0  0  0  0
 13 14  1  0  0  0  0
 13 15  1  0  0  0  0
 13 16  1  0  0  0  0
 16 17  1  0  0  0  0
 16 18  1  0  0  0  0
 16 19  1  0  0  0  0
 19 20  1  0  0  0  0
 19 21  1  0  0  0  0
 19 22  1  0  0  0  0
 22 23  1  0  0  0  0
 22 24  1  0  0  0  0
 22 25  1  0  0  0  0
M  END
> <VConfSearch Rank>
613

> <Conf_Id>
20

> <Delta U+W>
3.224

> <U+W>
-48.406

> <U>
10.617

> <W>
-59.023

> <W(PB)>
-61.467

> <W(SA)>
2.444

> <Valence>
11.188

> <Coulomb>
-1.778

> <VdW>
1.208

> <VdW6>
-9.786

> <VdW12>
10.993

> <Bond>
0.241

> <Angle>
3.294

> <Pdih>
7.653

> <Idih>
0.001

> <Tether>
0.000

$$$$
VeraChem MOL file


 25 24  0  0  0  0  0  0  0  0999 V2000     
   18.0879   18.9316   20.9384 C   0  0  0  0  0  0  0  0  0  0  0  0
   18.1220   20.0030   20.3653 O   0  5  0  0  0  0  0  0  0  0  0  0
   17.1434   18.5577   21.6057 O   0  0  0  0  0  0  0  0  0  0  0  0
   19.2652   17.9751   20.7579 C   0  0  0  0  0  0  0  0  0  0  0  0
   19.2961   17.7224   19.6918 H   0  0  0  0  0  0  0  0  0  0  0  0
   19.0528   17.0429   21.2954 H   0  0  0  0  0  0  0  0  0  0  0  0
   20.6497   18.5392   21.1844 C   0  0  0  0  0  0  0  0  0  0  0  0
   21.4265   17.9444   20.6854 H   0  0  0  0  0  0  0  0  0  0  0  0
   20.7677   19.5654   20.8094 H   0  0  0  0  0  0  0  0  0  0  0  0
   20.9279   18.4954   22.7075 C   0  0  0  0  0  0  0  0  0  0  0  0
   21.9784   18.7723   22.8713 H   0  0  0  0  0  0  0  0  0  0  0  0
   20.8197   17.4653   23.0736 H   0  0  0  0  0  0  0  0  0  0  0  0
   20.0303   19.4391   23.5396 C   0  0  0  0  0  0  0  0  0  0  0  0
   20.0576   20.4493   23.1085 H   0  0  0  0  0  0  0  0  0  0  0  0
   18.9883   19.0982   23.4944 H   0  0  0  0  0  0  0  0  0  0  0  0
   20.4749   19.4947   25.0173 C   0  0  0  0  0  0  0  0  0  0  0  0
   21.5152   19.8431   25.0758 H   0  0  0  0  0  0  0  0  0  0  0  0
   20.4516   18.4830   25.4452 H   0  0  0  0  0  0  0  0  0  0  0  0
   19.5722   20.4279   25.8514 C   0  0  0  0  0  0  0  0  0  0  0  0
   19.5940   21.4409   25.4264 H   0  0  0  0  0  0  0  0  0  0  0  0
   18.5308   20.0814   25.7967 H   0  0  0  0  0  0  0  0  0  0  0  0
   20.0183   20.4809   27.3265 C   0  0  0  0  0  0  0  0  0  0  0  0
   21.0470   20.8545   27.4126 H   0  0  0  0  0  0  0  0  0  0  0  0
   19.3658   21.1485   27.9042 H   0  0  0  0  0  0  0  0  0  0  0  0
   19.9757   19.4846   27.7857 H   0  0  0  0  0  0  0  0  0  0  0  0
  1  2  1  0  0  0  0
  1  3  2  0  0  0  0
  1  4  1  0  0  0  0
  4  5  1  0  0  0  0
  4  6  1  0  0  0  0
  4  7  1  0  0  0  0
  7  8  1  0  0  0  0
  7  9  1  0  0  0  0
  7 10  1  0  0  0  0
 10 11  1  0  0  0  0
 10 12  1  0  0  0  0
 10 13  1  0  0  0  0
 13 14  1  0  0  0  0
 13 15  1  0  0  0  0
 13 16  1  0  0  0  0
 16 17  1  0  0  0  0
 16 18  1  0  0  0  0
 16 19  1  0  0  0  0
 19 20  1  0  0  0  0
 19 21  1  0  0  0  0
 19 22  1  0  0  0  0
 22 23  1  0  0  0  0
 22 24  1  0  0  0  0
 22 25  1  0  0  0  0
M  END
> <VConfSearch Rank>
614

> <Conf_Id>
24

> <Delta U+W>
1.784

> <U+W>
-49.846

> <U>
10.904

> <W>
-60.749

> <W(PB)>
-63.220

> <W(SA)>
2.471

> <Valence>
9.445

> <Coulomb>
0.780

> <VdW>
0.679

> <VdW6>
-10.008

> <VdW12>
10.687

> <Bond>
0.201

> <Angle>
3.198

> <Pdih>
6.039

> <Idih>
0.006

> <Tether>
0.000

$$$$
VeraChem MOL file


 25 24  0  0  0  0  0  0  0  0999 V2000     
   18.5399   19.2209   26.3324 C   0  0  0  0  0  0  0  0  0  0  0  0
   17.7179   20.1022   26.1738 O   0  5  0  0  0  0  0  0  0  0  0  0
   18.2689   18.0367   26.2965 O   0  0  0  0  0  0  0  0  0  0  0  0
   19.9773   19.6207   26.6603 C   0  0  0  0  0  0  0  0  0  0  0  0
   20.5718   18.7133   26.8216 H   0  0  0  0  0  0  0  0  0  0  0  0
   19.9392   20.1457   27.6217 H   0  0  0  0  0  0  0  0  0  0  0  0
   20.6669   20.5370   25.6105 C   0  0  0  0  0  0  0  0  0  0  0  0
   19.9773   21.3335   25.2980 H   0  0  0  0  0  0  0  0  0  0  0  0
   21.5087   21.0425   26.1026 H   0  0  0  0  0  0  0  0  0  0  0  0
   21.2221   19.7976   24.3678 C   0  0  0  0  0  0  0  0  0  0  0  0
   21.9196   19.0110   24.6866 H   0  0  0  0  0  0  0  0  0  0  0  0
   21.8124   20.5135   23.7796 H   0  0  0  0  0  0  0  0  0  0  0  0
   20.1318   19.1873   23.4582 C   0  0  0  0  0  0  0  0  0  0  0  0
   19.6164   18.3759   23.9873 H   0  0  0  0  0  0  0  0  0  0  0  0
   19.3766   19.9503   23.2248 H   0  0  0  0  0  0  0  0  0  0  0  0
   20.7277   18.6306   22.1469 C   0  0  0  0  0  0  0  0  0  0  0  0
   21.4861   17.8714   22.3825 H   0  0  0  0  0  0  0  0  0  0  0  0
   21.2397   19.4368   21.6039 H   0  0  0  0  0  0  0  0  0  0  0  0
   19.6414   18.0106   21.2431 C   0  0  0  0  0  0  0  0  0  0  0  0
   19.1282   17.2024   21.7824 H   0  0  0  0  0  0  0  0  0  0  0  0
   18.8815   18.7678   21.0050 H   0  0  0  0  0  0  0  0  0  0  0  0
   20.2393   17.4552   19.9348 C   0  0  0  0  0  0  0  0  0  0  0  0
   20.9807   16.6726   20.1430 H   0  0  0  0  0  0  0  0  0  0  0  0
   19.4534   17.0186   19.3050 H   0  0  0  0  0  0  0  0  0  0  0  0
   20.7321   18.2500   19.3596 H   0  0  0  0  0  0  0  0  0  0  0  0
  1  2  1  0  0  0  0
  1  3  2  0  0  0  0
  1  4  1  0  0  0  0
  4  5  1  0  0  0  0
  4  6  1  0  0  0  0
  4  7  1  0  0  0  0
  7  8  1  0  0  0  0
  7  9  1  0  0  0  0
  7 10  1  0  0  0  0
 10 11  1  0  0  0  0
 10 12  1  0  0  0  0
 10 13  1  0  0  0  0
 13 14  1  0  0  0  0
 13 15  1  0  0  0  0
 13 16  1  0  0  0  0
 16 17  1  0  0  0  0
 16 18  1  0  0  0  0
 16 19  1  0  0  0  0
 19 20  1  0  0  0  0
 19 21  1  0  0  0  0
 19 22  1  0  0  0  0
 22 23  1  0  0  0  0
 22 24  1  0  0  0  0
 22 25  1  0  0  0  0
M  END
> <VConfSearch Rank>
615

> <Conf_Id>
9

> <Delta U+W>
1.764

> <U+W>
-49.865

> <U>
10.902

> <W>
-60.768

> <W(PB)>
-63.223

> <W(SA)>
2.456

> <Valence>
9.445

> <Coulomb>
0.778

> <VdW>
0.679

> <VdW6>
-10.007

> <VdW12>
10.687

> <Bond>
0.201

> <Angle>
3.198

> <Pdih>
6.040

> <Idih>
0.006

> <Tether>
0.000

$$$$
VeraChem MOL file


 25 24  0  0  0  0  0  0  0  0999 V2000     
   22.4044   21.7100   22.2477 C   0  0  0  0  0  0  0  0  0  0  0  0
   21.8597   22.5741   22.9059 O   0  5  0  0  0  0  0  0  0  0  0  0
   23.5160   21.8271   21.7708 O   0  0  0  0  0  0  0  0  0  0  0  0
   21.6606   20.3982   22.0249 C   0  0  0  0  0  0  0  0  0  0  0  0
   21.9454   20.0115   21.0392 H   0  0  0  0  0  0  0  0  0  0  0  0
   20.5906   20.6234   21.9820 H   0  0  0  0  0  0  0  0  0  0  0  0
   21.9670   19.3419   23.1194 C   0  0  0  0  0  0  0  0  0  0  0  0
   23.0492   19.1515   23.1110 H   0  0  0  0  0  0  0  0  0  0  0  0
   21.7364   19.7491   24.1135 H   0  0  0  0  0  0  0  0  0  0  0  0
   21.2262   17.9974   22.9054 C   0  0  0  0  0  0  0  0  0  0  0  0
   21.8877   17.1864   23.2395 H   0  0  0  0  0  0  0  0  0  0  0  0
   21.0566   17.8215   21.8343 H   0  0  0  0  0  0  0  0  0  0  0  0
   19.8943   17.8618   23.6854 C   0  0  0  0  0  0  0  0  0  0  0  0
   19.5037   16.8475   23.5271 H   0  0  0  0  0  0  0  0  0  0  0  0
   20.0986   17.9502   24.7606 H   0  0  0  0  0  0  0  0  0  0  0  0
   18.8105   18.8865   23.2748 C   0  0  0  0  0  0  0  0  0  0  0  0
   18.7238   18.8987   22.1799 H   0  0  0  0  0  0  0  0  0  0  0  0
   19.1178   19.8948   23.5815 H   0  0  0  0  0  0  0  0  0  0  0  0
   17.4193   18.5796   23.8763 C   0  0  0  0  0  0  0  0  0  0  0  0
   16.6908   19.2894   23.4608 H   0  0  0  0  0  0  0  0  0  0  0  0
   17.0914   17.5791   23.5620 H   0  0  0  0  0  0  0  0  0  0  0  0
   17.3868   18.6764   25.4170 C   0  0  0  0  0  0  0  0  0  0  0  0
   17.7350   19.6608   25.7559 H   0  0  0  0  0  0  0  0  0  0  0  0
   16.3643   18.5326   25.7895 H   0  0  0  0  0  0  0  0  0  0  0  0
   18.0202   17.9091   25.8794 H   0  0  0  0  0  0  0  0  0  0  0  0
  1  2  1  0  0  0  0
  1  3  2  0  0  0  0
  1  4  1  0  0  0  0
  4  5  1  0  0  0  0
  4  6  1  0  0  0  0
  4  7  1  0  0  0  0
  7  8  1  0  0  0  0
  7  9  1  0  0  0  0
  7 10  1  0  0  0  0
 10 11  1  0  0  0  0
 10 12  1  0  0  0  0
 10 13  1  0  0  0  0
 13 14  1  0  0  0  0
 13 15  1  0  0  0  0
 13 16  1  0  0  0  0
 16 17  1  0  0  0  0
 16 18  1  0  0  0  0
 16 19  1  0  0  0  0
 19 20  1  0  0  0  0
 19 21  1  0  0  0  0
 19 22  1  0  0  0  0
 22 23  1  0  0  0  0
 22 24  1  0  0  0  0
 22 25  1  0  0  0  0
M  END
> <VConfSearch Rank>
616

> <Conf_Id>
89

> <Delta U+W>
2.903

> <U+W>
-48.726

> <U>
10.996

> <W>
-59.723

> <W(PB)>
-62.151

> <W(SA)>
2.428

> <Valence>
10.985

> <Coulomb>
-0.995

> <VdW>
1.006

> <VdW6>
-10.062

> <VdW12>
11.069

> <Bond>
0.238

> <Angle>
3.202

> <Pdih>
7.544

> <Idih>
0.001

> <Tether>
0.000

$$$$
VeraChem MOL file


 25 24  0  0  0  0  0  0  0  0999 V2000     
   18.0123   21.4989   22.2025 C   0  0  0  0  0  0  0  0  0  0  0  0
   18.6402   21.7710   21.1980 O   0  5  0  0  0  0  0  0  0  0  0  0
   16.8987   21.0117   22.1856 O   0  0  0  0  0  0  0  0  0  0  0  0
   18.6308   21.8481   23.5548 C   0  0  0  0  0  0  0  0  0  0  0  0
   17.9823   22.6106   24.0014 H   0  0  0  0  0  0  0  0  0  0  0  0
   19.6054   22.3231   23.3896 H   0  0  0  0  0  0  0  0  0  0  0  0
   18.7714   20.6597   24.5475 C   0  0  0  0  0  0  0  0  0  0  0  0
   18.8488   21.0744   25.5616 H   0  0  0  0  0  0  0  0  0  0  0  0
   17.8550   20.0532   24.5392 H   0  0  0  0  0  0  0  0  0  0  0  0
   20.0082   19.7567   24.3135 C   0  0  0  0  0  0  0  0  0  0  0  0
   20.0865   19.0729   25.1677 H   0  0  0  0  0  0  0  0  0  0  0  0
   20.9199   20.3692   24.3235 H   0  0  0  0  0  0  0  0  0  0  0  0
   19.9488   18.9341   23.0034 C   0  0  0  0  0  0  0  0  0  0  0  0
   19.0093   18.3663   22.9609 H   0  0  0  0  0  0  0  0  0  0  0  0
   19.9382   19.6190   22.1470 H   0  0  0  0  0  0  0  0  0  0  0  0
   21.1476   17.9719   22.8228 C   0  0  0  0  0  0  0  0  0  0  0  0
   22.0873   18.5360   22.8980 H   0  0  0  0  0  0  0  0  0  0  0  0
   21.1121   17.5636   21.8035 H   0  0  0  0  0  0  0  0  0  0  0  0
   21.1591   16.7984   23.8289 C   0  0  0  0  0  0  0  0  0  0  0  0
   21.2775   17.1762   24.8526 H   0  0  0  0  0  0  0  0  0  0  0  0
   20.1970   16.2691   23.7915 H   0  0  0  0  0  0  0  0  0  0  0  0
   22.3008   15.8067   23.5270 C   0  0  0  0  0  0  0  0  0  0  0  0
   23.2779   16.3041   23.5840 H   0  0  0  0  0  0  0  0  0  0  0  0
   22.2978   14.9815   24.2510 H   0  0  0  0  0  0  0  0  0  0  0  0
   22.1929   15.3764   22.5228 H   0  0  0  0  0  0  0  0  0  0  0  0
  1  2  1  0  0  0  0
  1  3  2  0  0  0  0
  1  4  1  0  0  0  0
  4  5  1  0  0  0  0
  4  6  1  0  0  0  0
  4  7  1  0  0  0  0
  7  8  1  0  0  0  0
  7  9  1  0  0  0  0
  7 10  1  0  0  0  0
 10 11  1  0  0  0  0
 10 12  1  0  0  0  0
 10 13  1  0  0  0  0
 13 14  1  0  0  0  0
 13 15  1  0  0  0  0
 13 16  1  0  0  0  0
 16 17  1  0  0  0  0
 16 18  1  0  0  0  0
 16 19  1  0  0  0  0
 19 20  1  0  0  0  0
 19 21  1  0  0  0  0
 19 22  1  0  0  0  0
 22 23  1  0  0  0  0
 22 24  1  0  0  0  0
 22 25  1  0  0  0  0
M  END
> <VConfSearch Rank>
617

> <Conf_Id>
114

> <Delta U+W>
2.758

> <U+W>
-48.871

> <U>
11.422

> <W>
-60.293

> <W(PB)>
-62.719

> <W(SA)>
2.425

> <Valence>
10.135

> <Coulomb>
0.369

> <VdW>
0.918

> <VdW6>
-10.482

> <VdW12>
11.400

> <Bond>
0.245

> <Angle>
3.539

> <Pdih>
6.346

> <Idih>
0.006

> <Tether>
0.000

$$$$
VeraChem MOL file


 25 24  0  0  0  0  0  0  0  0999 V2000     
   17.3982   21.5543   24.1891 C   0  0  0  0  0  0  0  0  0  0  0  0
   16.4152   21.1258   23.6172 O   0  5  0  0  0  0  0  0  0  0  0  0
   17.4711   21.6853   25.3952 O   0  0  0  0  0  0  0  0  0  0  0  0
   18.6008   21.9708   23.3470 C   0  0  0  0  0  0  0  0  0  0  0  0
   18.9468   22.9399   23.7252 H   0  0  0  0  0  0  0  0  0  0  0  0
   18.2661   22.1339   22.3154 H   0  0  0  0  0  0  0  0  0  0  0  0
   19.7720   20.9547   23.3769 C   0  0  0  0  0  0  0  0  0  0  0  0
   20.6355   21.3904   22.8564 H   0  0  0  0  0  0  0  0  0  0  0  0
   20.0765   20.7952   24.4196 H   0  0  0  0  0  0  0  0  0  0  0  0
   19.4024   19.6062   22.7135 C   0  0  0  0  0  0  0  0  0  0  0  0
   19.0123   19.8013   21.7052 H   0  0  0  0  0  0  0  0  0  0  0  0
   18.5872   19.1257   23.2721 H   0  0  0  0  0  0  0  0  0  0  0  0
   20.5944   18.6264   22.5962 C   0  0  0  0  0  0  0  0  0  0  0  0
   20.2716   17.7718   21.9883 H   0  0  0  0  0  0  0  0  0  0  0  0
   21.4142   19.1080   22.0461 H   0  0  0  0  0  0  0  0  0  0  0  0
   21.1107   18.1174   23.9647 C   0  0  0  0  0  0  0  0  0  0  0  0
   20.2897   17.6392   24.5159 H   0  0  0  0  0  0  0  0  0  0  0  0
   21.4381   18.9707   24.5721 H   0  0  0  0  0  0  0  0  0  0  0  0
   22.2972   17.1322   23.8460 C   0  0  0  0  0  0  0  0  0  0  0  0
   23.1162   17.6033   23.2851 H   0  0  0  0  0  0  0  0  0  0  0  0
   22.6877   16.9298   24.8529 H   0  0  0  0  0  0  0  0  0  0  0  0
   21.9173   15.7898   23.1839 C   0  0  0  0  0  0  0  0  0  0  0  0
   22.7665   15.0947   23.2118 H   0  0  0  0  0  0  0  0  0  0  0  0
   21.0766   15.3170   23.7081 H   0  0  0  0  0  0  0  0  0  0  0  0
   21.6354   15.9258   22.1325 H   0  0  0  0  0  0  0  0  0  0  0  0
  1  2  1  0  0  0  0
  1  3  2  0  0  0  0
  1  4  1  0  0  0  0
  4  5  1  0  0  0  0
  4  6  1  0  0  0  0
  4  7  1  0  0  0  0
  7  8  1  0  0  0  0
  7  9  1  0  0  0  0
  7 10  1  0  0  0  0
 10 11  1  0  0  0  0
 10 12  1  0  0  0  0
 10 13  1  0  0  0  0
 13 14  1  0  0  0  0
 13 15  1  0  0  0  0
 13 16  1  0  0  0  0
 16 17  1  0  0  0  0
 16 18  1  0  0  0  0
 16 19  1  0  0  0  0
 19 20  1  0  0  0  0
 19 21  1  0  0  0  0
 19 22  1  0  0  0  0
 22 23  1  0  0  0  0
 22 24  1  0  0  0  0
 22 25  1  0  0  0  0
M  END
> <VConfSearch Rank>
618

> <Conf_Id>
87

> <Delta U+W>
1.453

> <U+W>
-50.176

> <U>
9.763

> <W>
-59.940

> <W(PB)>
-62.392

> <W(SA)>
2.452

> <Valence>
8.883

> <Coulomb>
-0.122

> <VdW>
1.003

> <VdW6>
-9.782

> <VdW12>
10.785

> <Bond>
0.212

> <Angle>
2.940

> <Pdih>
5.730

> <Idih>
0.001

> <Tether>
0.000

$$$$
VeraChem MOL file


 25 24  0  0  0  0  0  0  0  0999 V2000     
   18.8539   16.0373   25.5370 C   0  0  0  0  0  0  0  0  0  0  0  0
   19.1396   15.0917   24.8293 O   0  5  0  0  0  0  0  0  0  0  0  0
   18.8676   15.9976   26.7515 O   0  0  0  0  0  0  0  0  0  0  0  0
   18.4750   17.3517   24.8641 C   0  0  0  0  0  0  0  0  0  0  0  0
   17.7416   17.8612   25.5005 H   0  0  0  0  0  0  0  0  0  0  0  0
   17.9755   17.1177   23.9163 H   0  0  0  0  0  0  0  0  0  0  0  0
   19.6950   18.2714   24.6113 C   0  0  0  0  0  0  0  0  0  0  0  0
   20.1899   18.4901   25.5675 H   0  0  0  0  0  0  0  0  0  0  0  0
   20.4226   17.7330   23.9895 H   0  0  0  0  0  0  0  0  0  0  0  0
   19.2841   19.5931   23.9222 C   0  0  0  0  0  0  0  0  0  0  0  0
   18.5060   20.0826   24.5235 H   0  0  0  0  0  0  0  0  0  0  0  0
   18.8256   19.3775   22.9482 H   0  0  0  0  0  0  0  0  0  0  0  0
   20.4595   20.5865   23.7434 C   0  0  0  0  0  0  0  0  0  0  0  0
   20.0742   21.5162   23.3044 H   0  0  0  0  0  0  0  0  0  0  0  0
   20.8431   20.8633   24.7347 H   0  0  0  0  0  0  0  0  0  0  0  0
   21.6416   20.0667   22.8830 C   0  0  0  0  0  0  0  0  0  0  0  0
   22.1326   19.2349   23.4048 H   0  0  0  0  0  0  0  0  0  0  0  0
   22.3981   20.8599   22.8126 H   0  0  0  0  0  0  0  0  0  0  0  0
   21.2648   19.6091   21.4523 C   0  0  0  0  0  0  0  0  0  0  0  0
   22.1711   19.2412   20.9522 H   0  0  0  0  0  0  0  0  0  0  0  0
   20.5754   18.7556   21.4980 H   0  0  0  0  0  0  0  0  0  0  0  0
   20.6458   20.7343   20.5950 C   0  0  0  0  0  0  0  0  0  0  0  0
   21.3124   21.6052   20.5495 H   0  0  0  0  0  0  0  0  0  0  0  0
   20.4738   20.3852   19.5687 H   0  0  0  0  0  0  0  0  0  0  0  0
   19.6803   21.0601   21.0021 H   0  0  0  0  0  0  0  0  0  0  0  0
  1  2  1  0  0  0  0
  1  3  2  0  0  0  0
  1  4  1  0  0  0  0
  4  5  1  0  0  0  0
  4  6  1  0  0  0  0
  4  7  1  0  0  0  0
  7  8  1  0  0  0  0
  7  9  1  0  0  0  0
  7 10  1  0  0  0  0
 10 11  1  0  0  0  0
 10 12  1  0  0  0  0
 10 13  1  0  0  0  0
 13 14  1  0  0  0  0
 13 15  1  0  0  0  0
 13 16  1  0  0  0  0
 16 17  1  0  0  0  0
 16 18  1  0  0  0  0
 16 19  1  0  0  0  0
 19 20  1  0  0  0  0
 19 21  1  0  0  0  0
 19 22  1  0  0  0  0
 22 23  1  0  0  0  0
 22 24  1  0  0  0  0
 22 25  1  0  0  0  0
M  END
> <VConfSearch Rank>
619

> <Conf_Id>
29

> <Delta U+W>
0.850

> <U+W>
-50.780

> <U>
8.646

> <W>
-59.426

> <W(PB)>
-61.868

> <W(SA)>
2.442

> <Valence>
8.924

> <Coulomb>
-1.171

> <VdW>
0.894

> <VdW6>
-10.223

> <VdW12>
11.117

> <Bond>
0.231

> <Angle>
3.232

> <Pdih>
5.461

> <Idih>
0.001

> <Tether>
0.000

$$$$
VeraChem MOL file


 25 24  0  0  0  0  0  0  0  0999 V2000     
   18.6060   21.1042   20.1675 C   0  0  0  0  0  0  0  0  0  0  0  0
   18.7775   22.2646   20.4848 O   0  5  0  0  0  0  0  0  0  0  0  0
   17.6901   20.7269   19.4635 O   0  0  0  0  0  0  0  0  0  0  0  0
   19.5833   20.0610   20.6975 C   0  0  0  0  0  0  0  0  0  0  0  0
   20.5675   20.5346   20.7950 H   0  0  0  0  0  0  0  0  0  0  0  0
   19.6772   19.2690   19.9449 H   0  0  0  0  0  0  0  0  0  0  0  0
   19.1435   19.4600   22.0552 C   0  0  0  0  0  0  0  0  0  0  0  0
   19.0371   20.2730   22.7855 H   0  0  0  0  0  0  0  0  0  0  0  0
   18.1534   18.9968   21.9443 H   0  0  0  0  0  0  0  0  0  0  0  0
   20.1549   18.4113   22.5729 C   0  0  0  0  0  0  0  0  0  0  0  0
   21.1352   18.8825   22.7222 H   0  0  0  0  0  0  0  0  0  0  0  0
   20.3005   17.6437   21.8007 H   0  0  0  0  0  0  0  0  0  0  0  0
   19.7025   17.7103   23.8783 C   0  0  0  0  0  0  0  0  0  0  0  0
   18.7689   17.1658   23.6826 H   0  0  0  0  0  0  0  0  0  0  0  0
   20.4425   16.9440   24.1440 H   0  0  0  0  0  0  0  0  0  0  0  0
   19.4816   18.6502   25.0931 C   0  0  0  0  0  0  0  0  0  0  0  0
   19.1847   18.0407   25.9573 H   0  0  0  0  0  0  0  0  0  0  0  0
   18.6290   19.3115   24.8905 H   0  0  0  0  0  0  0  0  0  0  0  0
   20.7040   19.5144   25.4891 C   0  0  0  0  0  0  0  0  0  0  0  0
   20.9649   20.1977   24.6700 H   0  0  0  0  0  0  0  0  0  0  0  0
   20.4220   20.1519   26.3382 H   0  0  0  0  0  0  0  0  0  0  0  0
   21.9402   18.6780   25.8844 C   0  0  0  0  0  0  0  0  0  0  0  0
   22.3220   18.1034   25.0312 H   0  0  0  0  0  0  0  0  0  0  0  0
   22.7498   19.3309   26.2354 H   0  0  0  0  0  0  0  0  0  0  0  0
   21.6971   17.9755   26.6921 H   0  0  0  0  0  0  0  0  0  0  0  0
  1  2  1  0  0  0  0
  1  3  2  0  0  0  0
  1  4  1  0  0  0  0
  4  5  1  0  0  0  0
  4  6  1  0  0  0  0
  4  7  1  0  0  0  0
  7  8  1  0  0  0  0
  7  9  1  0  0  0  0
  7 10  1  0  0  0  0
 10 11  1  0  0  0  0
 10 12  1  0  0  0  0
 10 13  1  0  0  0  0
 13 14  1  0  0  0  0
 13 15  1  0  0  0  0
 13 16  1  0  0  0  0
 16 17  1  0  0  0  0
 16 18  1  0  0  0  0
 16 19  1  0  0  0  0
 19 20  1  0  0  0  0
 19 21  1  0  0  0  0
 19 22  1  0  0  0  0
 22 23  1  0  0  0  0
 22 24  1  0  0  0  0
 22 25  1  0  0  0  0
M  END
> <VConfSearch Rank>
620

> <Conf_Id>
30

> <Delta U+W>
0.843

> <U+W>
-50.787

> <U>
8.647

> <W>
-59.434

> <W(PB)>
-61.861

> <W(SA)>
2.428

> <Valence>
8.924

> <Coulomb>
-1.170

> <VdW>
0.894

> <VdW6>
-10.224

> <VdW12>
11.118

> <Bond>
0.231

> <Angle>
3.232

> <Pdih>
5.460

> <Idih>
0.000

> <Tether>
0.000

$$$$
VeraChem MOL file


 25 24  0  0  0  0  0  0  0  0999 V2000     
   24.3066   18.8008   21.1143 C   0  0  0  0  0  0  0  0  0  0  0  0
   23.9992   19.4900   20.1608 O   0  5  0  0  0  0  0  0  0  0  0  0
   25.4084   18.3069   21.2487 O   0  0  0  0  0  0  0  0  0  0  0  0
   23.2790   18.5242   22.2130 C   0  0  0  0  0  0  0  0  0  0  0  0
   23.7095   18.8739   23.1587 H   0  0  0  0  0  0  0  0  0  0  0  0
   23.1704   17.4362   22.2926 H   0  0  0  0  0  0  0  0  0  0  0  0
   21.8872   19.1760   21.9973 C   0  0  0  0  0  0  0  0  0  0  0  0
   22.0042   20.2653   21.9120 H   0  0  0  0  0  0  0  0  0  0  0  0
   21.4646   18.8263   21.0451 H   0  0  0  0  0  0  0  0  0  0  0  0
   20.9138   18.8467   23.1499 C   0  0  0  0  0  0  0  0  0  0  0  0
   21.3384   19.1972   24.1007 H   0  0  0  0  0  0  0  0  0  0  0  0
   20.7985   17.7572   23.2333 H   0  0  0  0  0  0  0  0  0  0  0  0
   19.5301   19.4961   22.9333 C   0  0  0  0  0  0  0  0  0  0  0  0
   19.6451   20.5855   22.8499 H   0  0  0  0  0  0  0  0  0  0  0  0
   19.1052   19.1457   21.9826 H   0  0  0  0  0  0  0  0  0  0  0  0
   18.5563   19.1672   24.0855 C   0  0  0  0  0  0  0  0  0  0  0  0
   18.9810   19.5175   25.0363 H   0  0  0  0  0  0  0  0  0  0  0  0
   18.4410   18.0777   24.1689 H   0  0  0  0  0  0  0  0  0  0  0  0
   17.1731   19.8162   23.8691 C   0  0  0  0  0  0  0  0  0  0  0  0
   17.2842   20.9064   23.7869 H   0  0  0  0  0  0  0  0  0  0  0  0
   16.7443   19.4667   22.9196 H   0  0  0  0  0  0  0  0  0  0  0  0
   16.2037   19.4855   25.0216 C   0  0  0  0  0  0  0  0  0  0  0  0
   16.5934   19.8523   25.9802 H   0  0  0  0  0  0  0  0  0  0  0  0
   15.2259   19.9547   24.8515 H   0  0  0  0  0  0  0  0  0  0  0  0
   16.0494   18.4018   25.1064 H   0  0  0  0  0  0  0  0  0  0  0  0
  1  2  1  0  0  0  0
  1  3  2  0  0  0  0
  1  4  1  0  0  0  0
  4  5  1  0  0  0  0
  4  6  1  0  0  0  0
  4  7  1  0  0  0  0
  7  8  1  0  0  0  0
  7  9  1  0  0  0  0
  7 10  1  0  0  0  0
 10 11  1  0  0  0  0
 10 12  1  0  0  0  0
 10 13  1  0  0  0  0
 13 14  1  0  0  0  0
 13 15  1  0  0  0  0
 13 16  1  0  0  0  0
 16 17  1  0  0  0  0
 16 18  1  0  0  0  0
 16 19  1  0  0  0  0
 19 20  1  0  0  0  0
 19 21  1  0  0  0  0
 19 22  1  0  0  0  0
 22 23  1  0  0  0  0
 22 24  1  0  0  0  0
 22 25  1  0  0  0  0
M  END
> <VConfSearch Rank>
621

> <Conf_Id>
0

> <Delta U+W>
0.000

> <U+W>
-51.629

> <U>
6.586

> <W>
-58.216

> <W(PB)>
-60.757

> <W(SA)>
2.541

> <Valence>
8.027

> <Coulomb>
-2.892

> <VdW>
1.451

> <VdW6>
-7.931

> <VdW12>
9.383

> <Bond>
0.149

> <Angle>
2.726

> <Pdih>
5.152

> <Idih>
0.000

> <Tether>
0.000

$$$$
VeraChem MOL file


 25 24  0  0  0  0  0  0  0  0999 V2000     
   21.5176   22.8223   20.6120 C   0  0  0  0  0  0  0  0  0  0  0  0
   20.7402   23.1567   19.7399 O   0  5  0  0  0  0  0  0  0  0  0  0
   22.2341   23.6005   21.2100 O   0  0  0  0  0  0  0  0  0  0  0  0
   21.5807   21.3476   20.9930 C   0  0  0  0  0  0  0  0  0  0  0  0
   22.6070   21.1201   21.3054 H   0  0  0  0  0  0  0  0  0  0  0  0
   21.3765   20.7544   20.0936 H   0  0  0  0  0  0  0  0  0  0  0  0
   20.5841   20.9739   22.1178 C   0  0  0  0  0  0  0  0  0  0  0  0
   20.7935   21.5857   23.0063 H   0  0  0  0  0  0  0  0  0  0  0  0
   19.5631   21.2201   21.7945 H   0  0  0  0  0  0  0  0  0  0  0  0
   20.6670   19.4765   22.4853 C   0  0  0  0  0  0  0  0  0  0  0  0
   21.6890   19.2334   22.8070 H   0  0  0  0  0  0  0  0  0  0  0  0
   20.4584   18.8678   21.5948 H   0  0  0  0  0  0  0  0  0  0  0  0
   19.6722   19.1070   23.6066 C   0  0  0  0  0  0  0  0  0  0  0  0
   19.8806   19.7156   24.4973 H   0  0  0  0  0  0  0  0  0  0  0  0
   18.6501   19.3500   23.2852 H   0  0  0  0  0  0  0  0  0  0  0  0
   19.7545   17.6098   23.9747 C   0  0  0  0  0  0  0  0  0  0  0  0
   20.7765   17.3665   24.2963 H   0  0  0  0  0  0  0  0  0  0  0  0
   19.5461   17.0009   23.0842 H   0  0  0  0  0  0  0  0  0  0  0  0
   18.7602   17.2402   25.0954 C   0  0  0  0  0  0  0  0  0  0  0  0
   18.9667   17.8460   25.9886 H   0  0  0  0  0  0  0  0  0  0  0  0
   17.7364   17.4804   24.7765 H   0  0  0  0  0  0  0  0  0  0  0  0
   18.8454   15.7444   25.4601 C   0  0  0  0  0  0  0  0  0  0  0  0
   18.1323   15.4993   26.2578 H   0  0  0  0  0  0  0  0  0  0  0  0
   18.6121   15.1144   24.5917 H   0  0  0  0  0  0  0  0  0  0  0  0
   19.8517   15.4828   25.8129 H   0  0  0  0  0  0  0  0  0  0  0  0
  1  2  1  0  0  0  0
  1  3  2  0  0  0  0
  1  4  1  0  0  0  0
  4  5  1  0  0  0  0
  4  6  1  0  0  0  0
  4  7  1  0  0  0  0
  7  8  1  0  0  0  0
  7  9  1  0  0  0  0
  7 10  1  0  0  0  0
 10 11  1  0  0  0  0
 10 12  1  0  0  0  0
 10 13  1  0  0  0  0
 13 14  1  0  0  0  0
 13 15  1  0  0  0  0
 13 16  1  0  0  0  0
 16 17  1  0  0  0  0
 16 18  1  0  0  0  0
 16 19  1  0  0  0  0
 19 20  1  0  0  0  0
 19 21  1  0  0  0  0
 19 22  1  0  0  0  0
 22 23  1  0  0  0  0
 22 24  1  0  0  0  0
 22 25  1  0  0  0  0
M  END
> <VConfSearch Rank>
622

> <Conf_Id>
27

> <Delta U+W>
-1.297

> <U+W>
-52.926

> <U>
5.617

> <W>
-58.543

> <W(PB)>
-61.065

> <W(SA)>
2.522

> <Valence>
7.531

> <Coulomb>
-2.818

> <VdW>
0.904

> <VdW6>
-7.640

> <VdW12>
8.544

> <Bond>
0.115

> <Angle>
2.271

> <Pdih>
5.144

> <Idih>
0.001

> <Tether>
0.000

$$$$
VeraChem MOL file


 25 24  0  0  0  0  0  0  0  0999 V2000     
   16.7217   21.0435   22.9717 C   0  0  0  0  0  0  0  0  0  0  0  0
   16.7391   21.9205   22.1305 O   0  5  0  0  0  0  0  0  0  0  0  0
   16.0544   20.0323   22.8758 O   0  0  0  0  0  0  0  0  0  0  0  0
   17.5725   21.2323   24.2245 C   0  0  0  0  0  0  0  0  0  0  0  0
   17.1965   20.5624   25.0073 H   0  0  0  0  0  0  0  0  0  0  0  0
   17.4109   22.2571   24.5791 H   0  0  0  0  0  0  0  0  0  0  0  0
   19.0883   20.9950   23.9987 C   0  0  0  0  0  0  0  0  0  0  0  0
   19.4437   21.6530   23.1935 H   0  0  0  0  0  0  0  0  0  0  0  0
   19.6336   21.2843   24.9073 H   0  0  0  0  0  0  0  0  0  0  0  0
   19.4148   19.5242   23.6552 C   0  0  0  0  0  0  0  0  0  0  0  0
   18.8864   19.2324   22.7370 H   0  0  0  0  0  0  0  0  0  0  0  0
   19.0456   18.8695   24.4565 H   0  0  0  0  0  0  0  0  0  0  0  0
   20.9312   19.3043   23.4662 C   0  0  0  0  0  0  0  0  0  0  0  0
   21.2994   19.9594   22.6647 H   0  0  0  0  0  0  0  0  0  0  0  0
   21.4614   19.5926   24.3842 H   0  0  0  0  0  0  0  0  0  0  0  0
   21.2581   17.8351   23.1221 C   0  0  0  0  0  0  0  0  0  0  0  0
   20.7279   17.5465   22.2041 H   0  0  0  0  0  0  0  0  0  0  0  0
   20.8896   17.1798   23.9233 H   0  0  0  0  0  0  0  0  0  0  0  0
   22.7737   17.6148   22.9325 C   0  0  0  0  0  0  0  0  0  0  0  0
   23.1454   18.2675   22.1305 H   0  0  0  0  0  0  0  0  0  0  0  0
   23.3071   17.9007   23.8497 H   0  0  0  0  0  0  0  0  0  0  0  0
   23.0958   16.1466   22.5889 C   0  0  0  0  0  0  0  0  0  0  0  0
   22.5998   15.8432   21.6576 H   0  0  0  0  0  0  0  0  0  0  0  0
   24.1769   16.0082   22.4577 H   0  0  0  0  0  0  0  0  0  0  0  0
   22.7627   15.4735   23.3898 H   0  0  0  0  0  0  0  0  0  0  0  0
  1  2  1  0  0  0  0
  1  3  2  0  0  0  0
  1  4  1  0  0  0  0
  4  5  1  0  0  0  0
  4  6  1  0  0  0  0
  4  7  1  0  0  0  0
  7  8  1  0  0  0  0
  7  9  1  0  0  0  0
  7 10  1  0  0  0  0
 10 11  1  0  0  0  0
 10 12  1  0  0  0  0
 10 13  1  0  0  0  0
 13 14  1  0  0  0  0
 13 15  1  0  0  0  0
 13 16  1  0  0  0  0
 16 17  1  0  0  0  0
 16 18  1  0  0  0  0
 16 19  1  0  0  0  0
 19 20  1  0  0  0  0
 19 21  1  0  0  0  0
 19 22  1  0  0  0  0
 22 23  1  0  0  0  0
 22 24  1  0  0  0  0
 22 25  1  0  0  0  0
M  END
> <VConfSearch Rank>
623

> <Conf_Id>
37

> <Delta U+W>
-0.230

> <U+W>
-51.860

> <U>
7.816

> <W>
-59.675

> <W(PB)>
-62.180

> <W(SA)>
2.505

> <Valence>
7.785

> <Coulomb>
-0.713

> <VdW>
0.744

> <VdW6>
-8.514

> <VdW12>
9.259

> <Bond>
0.136

> <Angle>
2.433

> <Pdih>
5.216

> <Idih>
0.000

> <Tether>
0.000

$$$$
VeraChem MOL file


 25 24  0  0  0  0  0  0  0  0999 V2000     
   20.7389   15.5730   24.5610 C   0  0  0  0  0  0  0  0  0  0  0  0
   19.9033   14.7679   24.1997 O   0  5  0  0  0  0  0  0  0  0  0  0
   20.9182   15.8813   25.7228 O   0  0  0  0  0  0  0  0  0  0  0  0
   21.6216   16.2191   23.4968 C   0  0  0  0  0  0  0  0  0  0  0  0
   21.9646   15.4217   22.8270 H   0  0  0  0  0  0  0  0  0  0  0  0
   22.5140   16.6300   23.9844 H   0  0  0  0  0  0  0  0  0  0  0  0
   20.9084   17.3198   22.6695 C   0  0  0  0  0  0  0  0  0  0  0  0
   21.5660   17.6290   21.8458 H   0  0  0  0  0  0  0  0  0  0  0  0
   20.0023   16.9004   22.2103 H   0  0  0  0  0  0  0  0  0  0  0  0
   20.5399   18.5569   23.5191 C   0  0  0  0  0  0  0  0  0  0  0  0
   21.4468   18.9644   23.9865 H   0  0  0  0  0  0  0  0  0  0  0  0
   19.8678   18.2585   24.3355 H   0  0  0  0  0  0  0  0  0  0  0  0
   19.8601   19.6521   22.6695 C   0  0  0  0  0  0  0  0  0  0  0  0
   20.5316   19.9542   21.8541 H   0  0  0  0  0  0  0  0  0  0  0  0
   18.9533   19.2437   22.2026 H   0  0  0  0  0  0  0  0  0  0  0  0
   19.4910   20.8882   23.5179 C   0  0  0  0  0  0  0  0  0  0  0  0
   20.3976   21.2966   23.9851 H   0  0  0  0  0  0  0  0  0  0  0  0
   18.8195   20.5863   24.3334 H   0  0  0  0  0  0  0  0  0  0  0  0
   18.8109   21.9830   22.6692 C   0  0  0  0  0  0  0  0  0  0  0  0
   19.4805   22.2888   21.8534 H   0  0  0  0  0  0  0  0  0  0  0  0
   17.9024   21.5784   22.2018 H   0  0  0  0  0  0  0  0  0  0  0  0
   18.4440   23.2155   23.5201 C   0  0  0  0  0  0  0  0  0  0  0  0
   19.3392   23.6596   23.9746 H   0  0  0  0  0  0  0  0  0  0  0  0
   17.9617   23.9832   22.9012 H   0  0  0  0  0  0  0  0  0  0  0  0
   17.7492   22.9439   24.3257 H   0  0  0  0  0  0  0  0  0  0  0  0
  1  2  1  0  0  0  0
  1  3  2  0  0  0  0
  1  4  1  0  0  0  0
  4  5  1  0  0  0  0
  4  6  1  0  0  0  0
  4  7  1  0  0  0  0
  7  8  1  0  0  0  0
  7  9  1  0  0  0  0
  7 10  1  0  0  0  0
 10 11  1  0  0  0  0
 10 12  1  0  0  0  0
 10 13  1  0  0  0  0
 13 14  1  0  0  0  0
 13 15  1  0  0  0  0
 13 16  1  0  0  0  0
 16 17  1  0  0  0  0
 16 18  1  0  0  0  0
 16 19  1  0  0  0  0
 19 20  1  0  0  0  0
 19 21  1  0  0  0  0
 19 22  1  0  0  0  0
 22 23  1  0  0  0  0
 22 24  1  0  0  0  0
 22 25  1  0  0  0  0
M  END
> <VConfSearch Rank>
624

> <Conf_Id>
54

> <Delta U+W>
-0.224

> <U+W>
-51.854

> <U>
7.816

> <W>
-59.670

> <W(PB)>
-62.157

> <W(SA)>
2.487

> <Valence>
7.785

> <Coulomb>
-0.713

> <VdW>
0.744

> <VdW6>
-8.515

> <VdW12>
9.259

> <Bond>
0.136

> <Angle>
2.433

> <Pdih>
5.215

> <Idih>
0.000

> <Tether>
0.000

$$$$
VeraChem MOL file


 25 24  0  0  0  0  0  0  0  0999 V2000     
   19.8391   22.3784   25.7151 C   0  0  0  0  0  0  0  0  0  0  0  0
   18.6775   22.7249   25.6273 O   0  5  0  0  0  0  0  0  0  0  0  0
   20.4146   22.2168   26.7733 O   0  0  0  0  0  0  0  0  0  0  0  0
   20.6254   22.1510   24.4270 C   0  0  0  0  0  0  0  0  0  0  0  0
   21.5925   22.6546   24.5413 H   0  0  0  0  0  0  0  0  0  0  0  0
   20.1020   22.6520   23.6036 H   0  0  0  0  0  0  0  0  0  0  0  0
   20.8576   20.6565   24.0832 C   0  0  0  0  0  0  0  0  0  0  0  0
   21.5563   20.5996   23.2392 H   0  0  0  0  0  0  0  0  0  0  0  0
   21.3450   20.1593   24.9333 H   0  0  0  0  0  0  0  0  0  0  0  0
   19.5447   19.9185   23.7260 C   0  0  0  0  0  0  0  0  0  0  0  0
   19.0816   20.3884   22.8476 H   0  0  0  0  0  0  0  0  0  0  0  0
   18.8301   20.0370   24.5520 H   0  0  0  0  0  0  0  0  0  0  0  0
   19.7357   18.4052   23.4644 C   0  0  0  0  0  0  0  0  0  0  0  0
   20.2160   17.9393   24.3356 H   0  0  0  0  0  0  0  0  0  0  0  0
   18.7414   17.9492   23.3768 H   0  0  0  0  0  0  0  0  0  0  0  0
   20.5557   18.0967   22.1872 C   0  0  0  0  0  0  0  0  0  0  0  0
   21.5531   18.5453   22.2756 H   0  0  0  0  0  0  0  0  0  0  0  0
   20.0777   18.5671   21.3173 H   0  0  0  0  0  0  0  0  0  0  0  0
   20.7351   16.5832   21.9231 C   0  0  0  0  0  0  0  0  0  0  0  0
   21.4368   16.4533   21.0876 H   0  0  0  0  0  0  0  0  0  0  0  0
   21.2017   16.1068   22.7964 H   0  0  0  0  0  0  0  0  0  0  0  0
   19.4156   15.8589   21.5779 C   0  0  0  0  0  0  0  0  0  0  0  0
   18.7245   15.8550   22.4298 H   0  0  0  0  0  0  0  0  0  0  0  0
   18.9137   16.3402   20.7285 H   0  0  0  0  0  0  0  0  0  0  0  0
   19.6119   14.8137   21.3059 H   0  0  0  0  0  0  0  0  0  0  0  0
  1  2  1  0  0  0  0
  1  3  2  0  0  0  0
  1  4  1  0  0  0  0
  4  5  1  0  0  0  0
  4  6  1  0  0  0  0
  4  7  1  0  0  0  0
  7  8  1  0  0  0  0
  7  9  1  0  0  0  0
  7 10  1  0  0  0  0
 10 11  1  0  0  0  0
 10 12  1  0  0  0  0
 10 13  1  0  0  0  0
 13 14  1  0  0  0  0
 13 15  1  0  0  0  0
 13 16  1  0  0  0  0
 16 17  1  0  0  0  0
 16 18  1  0  0  0  0
 16 19  1  0  0  0  0
 19 20  1  0  0  0  0
 19 21  1  0  0  0  0
 19 22  1  0  0  0  0
 22 23  1  0  0  0  0
 22 24  1  0  0  0  0
 22 25  1  0  0  0  0
M  END
> <VConfSearch Rank>
625

> <Conf_Id>
101

> <Delta U+W>
1.534

> <U+W>
-50.095

> <U>
9.416

> <W>
-59.512

> <W(PB)>
-61.988

> <W(SA)>
2.476

> <Valence>
8.939

> <Coulomb>
-0.615

> <VdW>
1.092

> <VdW6>
-9.710

> <VdW12>
10.802

> <Bond>
0.216

> <Angle>
2.979

> <Pdih>
5.743

> <Idih>
0.000

> <Tether>
0.000

$$$$
VeraChem MOL file


 25 24  0  0  0  0  0  0  0  0999 V2000     
   22.2309   16.7249   25.8930 C   0  0  0  0  0  0  0  0  0  0  0  0
   23.3899   16.7230   25.5277 O   0  5  0  0  0  0  0  0  0  0  0  0
   21.8784   16.4191   27.0151 O   0  0  0  0  0  0  0  0  0  0  0  0
   21.1620   17.1564   24.8953 C   0  0  0  0  0  0  0  0  0  0  0  0
   20.2408   16.6082   25.1259 H   0  0  0  0  0  0  0  0  0  0  0  0
   21.4895   16.8385   23.8993 H   0  0  0  0  0  0  0  0  0  0  0  0
   20.8972   18.6843   24.9244 C   0  0  0  0  0  0  0  0  0  0  0  0
   20.6679   18.9811   25.9572 H   0  0  0  0  0  0  0  0  0  0  0  0
   21.8136   19.2218   24.6440 H   0  0  0  0  0  0  0  0  0  0  0  0
   19.7296   19.1299   24.0118 C   0  0  0  0  0  0  0  0  0  0  0  0
   19.5311   20.1909   24.2101 H   0  0  0  0  0  0  0  0  0  0  0  0
   18.8170   18.5842   24.2875 H   0  0  0  0  0  0  0  0  0  0  0  0
   20.0193   18.9368   22.5029 C   0  0  0  0  0  0  0  0  0  0  0  0
   20.9309   19.4827   22.2272 H   0  0  0  0  0  0  0  0  0  0  0  0
   20.2266   17.8780   22.3034 H   0  0  0  0  0  0  0  0  0  0  0  0
   18.8459   19.3695   21.5874 C   0  0  0  0  0  0  0  0  0  0  0  0
   17.9677   18.7518   21.8195 H   0  0  0  0  0  0  0  0  0  0  0  0
   19.1106   19.1395   20.5464 H   0  0  0  0  0  0  0  0  0  0  0  0
   18.4437   20.8625   21.6796 C   0  0  0  0  0  0  0  0  0  0  0  0
   17.6057   21.0411   20.9918 H   0  0  0  0  0  0  0  0  0  0  0  0
   18.0641   21.0925   22.6837 H   0  0  0  0  0  0  0  0  0  0  0  0
   19.5929   21.8299   21.3226 C   0  0  0  0  0  0  0  0  0  0  0  0
   20.0044   21.6023   20.3307 H   0  0  0  0  0  0  0  0  0  0  0  0
   19.2328   22.8667   21.3104 H   0  0  0  0  0  0  0  0  0  0  0  0
   20.4068   21.7694   22.0561 H   0  0  0  0  0  0  0  0  0  0  0  0
  1  2  1  0  0  0  0
  1  3  2  0  0  0  0
  1  4  1  0  0  0  0
  4  5  1  0  0  0  0
  4  6  1  0  0  0  0
  4  7  1  0  0  0  0
  7  8  1  0  0  0  0
  7  9  1  0  0  0  0
  7 10  1  0  0  0  0
 10 11  1  0  0  0  0
 10 12  1  0  0  0  0
 10 13  1  0  0  0  0
 13 14  1  0  0  0  0
 13 15  1  0  0  0  0
 13 16  1  0  0  0  0
 16 17  1  0  0  0  0
 16 18  1  0  0  0  0
 16 19  1  0  0  0  0
 19 20  1  0  0  0  0
 19 21  1  0  0  0  0
 19 22  1  0  0  0  0
 22 23  1  0  0  0  0
 22 24  1  0  0  0  0
 22 25  1  0  0  0  0
M  END
> <VConfSearch Rank>
626

> <Conf_Id>
75

> <Delta U+W>
1.014

> <U+W>
-50.615

> <U>
8.474

> <W>
-59.089

> <W(PB)>
-61.530

> <W(SA)>
2.441

> <Valence>
9.080

> <Coulomb>
-1.772

> <VdW>
1.165

> <VdW6>
-9.830

> <VdW12>
10.996

> <Bond>
0.240

> <Angle>
3.225

> <Pdih>
5.615

> <Idih>
0.001

> <Tether>
0.000

$$$$
VeraChem MOL file


 25 24  0  0  0  0  0  0  0  0999 V2000     
   21.6387   18.1507   27.0895 C   0  0  0  0  0  0  0  0  0  0  0  0
   22.8518   18.1494   27.0190 O   0  5  0  0  0  0  0  0  0  0  0  0
   21.0243   18.3430   28.1202 O   0  0  0  0  0  0  0  0  0  0  0  0
   20.8430   17.9193   25.8099 C   0  0  0  0  0  0  0  0  0  0  0  0
   19.9142   17.4002   26.0753 H   0  0  0  0  0  0  0  0  0  0  0  0
   21.4201   17.2433   25.1675 H   0  0  0  0  0  0  0  0  0  0  0  0
   20.5243   19.2327   25.0539 C   0  0  0  0  0  0  0  0  0  0  0  0
   19.9577   19.9035   25.7146 H   0  0  0  0  0  0  0  0  0  0  0  0
   21.4639   19.7463   24.8072 H   0  0  0  0  0  0  0  0  0  0  0  0
   19.7201   18.9718   23.7619 C   0  0  0  0  0  0  0  0  0  0  0  0
   18.7822   18.4579   24.0133 H   0  0  0  0  0  0  0  0  0  0  0  0
   20.2864   18.2930   23.1133 H   0  0  0  0  0  0  0  0  0  0  0  0
   19.3991   20.2871   23.0138 C   0  0  0  0  0  0  0  0  0  0  0  0
   18.8060   20.9251   23.6832 H   0  0  0  0  0  0  0  0  0  0  0  0
   20.3232   20.8418   22.8015 H   0  0  0  0  0  0  0  0  0  0  0  0
   18.5976   20.0695   21.7051 C   0  0  0  0  0  0  0  0  0  0  0  0
   17.8923   20.9045   21.5941 H   0  0  0  0  0  0  0  0  0  0  0  0
   17.9789   19.1651   21.7828 H   0  0  0  0  0  0  0  0  0  0  0  0
   19.4603   20.0151   20.4199 C   0  0  0  0  0  0  0  0  0  0  0  0
   18.7895   19.9411   19.5528 H   0  0  0  0  0  0  0  0  0  0  0  0
   20.0084   20.9603   20.3042 H   0  0  0  0  0  0  0  0  0  0  0  0
   20.4561   18.8375   20.3760 C   0  0  0  0  0  0  0  0  0  0  0  0
   19.9455   17.8825   20.5554 H   0  0  0  0  0  0  0  0  0  0  0  0
   20.9424   18.7825   19.3935 H   0  0  0  0  0  0  0  0  0  0  0  0
   21.2452   18.9587   21.1285 H   0  0  0  0  0  0  0  0  0  0  0  0
  1  2  1  0  0  0  0
  1  3  2  0  0  0  0
  1  4  1  0  0  0  0
  4  5  1  0  0  0  0
  4  6  1  0  0  0  0
  4  7  1  0  0  0  0
  7  8  1  0  0  0  0
  7  9  1  0  0  0  0
  7 10  1  0  0  0  0
 10 11  1  0  0  0  0
 10 12  1  0  0  0  0
 10 13  1  0  0  0  0
 13 14  1  0  0  0  0
 13 15  1  0  0  0  0
 13 16  1  0  0  0  0
 16 17  1  0  0  0  0
 16 18  1  0  0  0  0
 16 19  1  0  0  0  0
 19 20  1  0  0  0  0
 19 21  1  0  0  0  0
 19 22  1  0  0  0  0
 22 23  1  0  0  0  0
 22 24  1  0  0  0  0
 22 25  1  0  0  0  0
M  END
> <VConfSearch Rank>
627

> <Conf_Id>
125

> <Delta U+W>
2.314

> <U+W>
-49.315

> <U>
9.740

> <W>
-59.054

> <W(PB)>
-61.488

> <W(SA)>
2.433

> <Valence>
10.506

> <Coulomb>
-1.761

> <VdW>
0.994

> <VdW6>
-9.209

> <VdW12>
10.203

> <Bond>
0.193

> <Angle>
2.979

> <Pdih>
7.334

> <Idih>
0.001

> <Tether>
0.000

$$$$
VeraChem MOL file


 25 24  0  0  0  0  0  0  0  0999 V2000     
   20.9950   19.4159   19.3185 C   0  0  0  0  0  0  0  0  0  0  0  0
   21.1800   20.5988   19.1108 O   0  5  0  0  0  0  0  0  0  0  0  0
   20.9506   18.5772   18.4403 O   0  0  0  0  0  0  0  0  0  0  0  0
   20.7829   18.9621   20.7583 C   0  0  0  0  0  0  0  0  0  0  0  0
   21.3869   19.6097   21.4037 H   0  0  0  0  0  0  0  0  0  0  0  0
   21.1787   17.9442   20.8559 H   0  0  0  0  0  0  0  0  0  0  0  0
   19.2925   19.0002   21.1856 C   0  0  0  0  0  0  0  0  0  0  0  0
   18.9208   20.0326   21.1284 H   0  0  0  0  0  0  0  0  0  0  0  0
   18.7038   18.4183   20.4629 H   0  0  0  0  0  0  0  0  0  0  0  0
   19.0406   18.4314   22.6023 C   0  0  0  0  0  0  0  0  0  0  0  0
   19.4046   17.3961   22.6533 H   0  0  0  0  0  0  0  0  0  0  0  0
   17.9561   18.3884   22.7721 H   0  0  0  0  0  0  0  0  0  0  0  0
   19.6935   19.2688   23.7264 C   0  0  0  0  0  0  0  0  0  0  0  0
   20.7833   19.2613   23.6044 H   0  0  0  0  0  0  0  0  0  0  0  0
   19.3663   20.3141   23.6427 H   0  0  0  0  0  0  0  0  0  0  0  0
   19.3286   18.7246   25.1271 C   0  0  0  0  0  0  0  0  0  0  0  0
   19.6962   17.6945   25.2309 H   0  0  0  0  0  0  0  0  0  0  0  0
   18.2349   18.6752   25.2181 H   0  0  0  0  0  0  0  0  0  0  0  0
   19.8783   19.5892   26.2855 C   0  0  0  0  0  0  0  0  0  0  0  0
   19.5081   20.6191   26.1878 H   0  0  0  0  0  0  0  0  0  0  0  0
   19.4774   19.2042   27.2333 H   0  0  0  0  0  0  0  0  0  0  0  0
   21.4204   19.5968   26.3652 C   0  0  0  0  0  0  0  0  0  0  0  0
   21.8648   20.0819   25.4872 H   0  0  0  0  0  0  0  0  0  0  0  0
   21.7561   20.1471   27.2536 H   0  0  0  0  0  0  0  0  0  0  0  0
   21.8156   18.5747   26.4315 H   0  0  0  0  0  0  0  0  0  0  0  0
  1  2  1  0  0  0  0
  1  3  2  0  0  0  0
  1  4  1  0  0  0  0
  4  5  1  0  0  0  0
  4  6  1  0  0  0  0
  4  7  1  0  0  0  0
  7  8  1  0  0  0  0
  7  9  1  0  0  0  0
  7 10  1  0  0  0  0
 10 11  1  0  0  0  0
 10 12  1  0  0  0  0
 10 13  1  0  0  0  0
 13 14  1  0  0  0  0
 13 15  1  0  0  0  0
 13 16  1  0  0  0  0
 16 17  1  0  0  0  0
 16 18  1  0  0  0  0
 16 19  1  0  0  0  0
 19 20  1  0  0  0  0
 19 21  1  0  0  0  0
 19 22  1  0  0  0  0
 22 23  1  0  0  0  0
 22 24  1  0  0  0  0
 22 25  1  0  0  0  0
M  END
> <VConfSearch Rank>
628

> <Conf_Id>
4

> <Delta U+W>
0.189

> <U+W>
-51.441

> <U>
7.701

> <W>
-59.141

> <W(PB)>
-61.609

> <W(SA)>
2.467

> <Valence>
8.550

> <Coulomb>
-1.988

> <VdW>
1.139

> <VdW6>
-8.988

> <VdW12>
10.127

> <Bond>
0.191

> <Angle>
2.738

> <Pdih>
5.621

> <Idih>
0.001

> <Tether>
0.000

$$$$
VeraChem MOL file


 25 24  0  0  0  0  0  0  0  0999 V2000     
   19.1484   22.7989   21.5469 C   0  0  0  0  0  0  0  0  0  0  0  0
   18.0318   23.0797   21.9356 O   0  5  0  0  0  0  0  0  0  0  0  0
   19.8456   23.5548   20.8994 O   0  0  0  0  0  0  0  0  0  0  0  0
   19.7153   21.4316   21.9116 C   0  0  0  0  0  0  0  0  0  0  0  0
   20.3854   21.1147   21.1036 H   0  0  0  0  0  0  0  0  0  0  0  0
   18.8807   20.7221   21.9398 H   0  0  0  0  0  0  0  0  0  0  0  0
   20.4737   21.4384   23.2644 C   0  0  0  0  0  0  0  0  0  0  0  0
   21.2405   22.2249   23.2345 H   0  0  0  0  0  0  0  0  0  0  0  0
   19.7807   21.7117   24.0721 H   0  0  0  0  0  0  0  0  0  0  0  0
   21.1585   20.0912   23.5963 C   0  0  0  0  0  0  0  0  0  0  0  0
   21.7639   20.2229   24.5035 H   0  0  0  0  0  0  0  0  0  0  0  0
   21.8579   19.8257   22.7917 H   0  0  0  0  0  0  0  0  0  0  0  0
   20.1596   18.9324   23.8211 C   0  0  0  0  0  0  0  0  0  0  0  0
   19.4311   19.2201   24.5912 H   0  0  0  0  0  0  0  0  0  0  0  0
   19.5972   18.7479   22.8980 H   0  0  0  0  0  0  0  0  0  0  0  0
   20.8810   17.6344   24.2526 C   0  0  0  0  0  0  0  0  0  0  0  0
   21.4924   17.8432   25.1411 H   0  0  0  0  0  0  0  0  0  0  0  0
   21.5768   17.3183   23.4634 H   0  0  0  0  0  0  0  0  0  0  0  0
   19.9138   16.4742   24.5847 C   0  0  0  0  0  0  0  0  0  0  0  0
   20.4958   15.6366   24.9932 H   0  0  0  0  0  0  0  0  0  0  0  0
   19.2196   16.7853   25.3775 H   0  0  0  0  0  0  0  0  0  0  0  0
   19.1149   15.9742   23.3614 C   0  0  0  0  0  0  0  0  0  0  0  0
   19.7880   15.6871   22.5431 H   0  0  0  0  0  0  0  0  0  0  0  0
   18.5140   15.0954   23.6288 H   0  0  0  0  0  0  0  0  0  0  0  0
   18.4284   16.7446   22.9888 H   0  0  0  0  0  0  0  0  0  0  0  0
  1  2  1  0  0  0  0
  1  3  2  0  0  0  0
  1  4  1  0  0  0  0
  4  5  1  0  0  0  0
  4  6  1  0  0  0  0
  4  7  1  0  0  0  0
  7  8  1  0  0  0  0
  7  9  1  0  0  0  0
  7 10  1  0  0  0  0
 10 11  1  0  0  0  0
 10 12  1  0  0  0  0
 10 13  1  0  0  0  0
 13 14  1  0  0  0  0
 13 15  1  0  0  0  0
 13 16  1  0  0  0  0
 16 17  1  0  0  0  0
 16 18  1  0  0  0  0
 16 19  1  0  0  0  0
 19 20  1  0  0  0  0
 19 21  1  0  0  0  0
 19 22  1  0  0  0  0
 22 23  1  0  0  0  0
 22 24  1  0  0  0  0
 22 25  1  0  0  0  0
M  END
> <VConfSearch Rank>
629

> <Conf_Id>
17

> <Delta U+W>
0.219

> <U+W>
-51.411

> <U>
7.701

> <W>
-59.111

> <W(PB)>
-61.599

> <W(SA)>
2.488

> <Valence>
8.550

> <Coulomb>
-1.988

> <VdW>
1.139

> <VdW6>
-8.988

> <VdW12>
10.127

> <Bond>
0.191

> <Angle>
2.738

> <Pdih>
5.621

> <Idih>
0.001

> <Tether>
0.000

$$$$
VeraChem MOL file


 25 24  0  0  0  0  0  0  0  0999 V2000     
   20.7644   23.0130   23.0007 C   0  0  0  0  0  0  0  0  0  0  0  0
   20.2970   23.4338   21.9607 O   0  5  0  0  0  0  0  0  0  0  0  0
   21.9565   22.9688   23.2333 O   0  0  0  0  0  0  0  0  0  0  0  0
   19.8026   22.5311   24.0830 C   0  0  0  0  0  0  0  0  0  0  0  0
   18.8112   22.9561   23.8848 H   0  0  0  0  0  0  0  0  0  0  0  0
   20.1433   22.9520   25.0363 H   0  0  0  0  0  0  0  0  0  0  0  0
   19.7110   20.9875   24.2013 C   0  0  0  0  0  0  0  0  0  0  0  0
   20.7166   20.5845   24.3802 H   0  0  0  0  0  0  0  0  0  0  0  0
   19.1050   20.7324   25.0811 H   0  0  0  0  0  0  0  0  0  0  0  0
   19.0881   20.3335   22.9447 C   0  0  0  0  0  0  0  0  0  0  0  0
   19.7256   20.5237   22.0701 H   0  0  0  0  0  0  0  0  0  0  0  0
   18.1228   20.8137   22.7337 H   0  0  0  0  0  0  0  0  0  0  0  0
   18.8575   18.8108   23.0927 C   0  0  0  0  0  0  0  0  0  0  0  0
   18.2131   18.6188   23.9614 H   0  0  0  0  0  0  0  0  0  0  0  0
   18.3055   18.4557   22.2118 H   0  0  0  0  0  0  0  0  0  0  0  0
   20.1672   17.9996   23.2252 C   0  0  0  0  0  0  0  0  0  0  0  0
   20.6961   18.2889   24.1426 H   0  0  0  0  0  0  0  0  0  0  0  0
   20.8322   18.2360   22.3833 H   0  0  0  0  0  0  0  0  0  0  0  0
   19.8965   16.4806   23.2570 C   0  0  0  0  0  0  0  0  0  0  0  0
   19.2300   16.2410   24.0971 H   0  0  0  0  0  0  0  0  0  0  0  0
   19.3745   16.1776   22.3388 H   0  0  0  0  0  0  0  0  0  0  0  0
   21.2031   15.6732   23.3929 C   0  0  0  0  0  0  0  0  0  0  0  0
   21.7307   15.9329   24.3200 H   0  0  0  0  0  0  0  0  0  0  0  0
   20.9921   14.5961   23.4134 H   0  0  0  0  0  0  0  0  0  0  0  0
   21.8765   15.8707   22.5485 H   0  0  0  0  0  0  0  0  0  0  0  0
  1  2  1  0  0  0  0
  1  3  2  0  0  0  0
  1  4  1  0  0  0  0
  4  5  1  0  0  0  0
  4  6  1  0  0  0  0
  4  7  1  0  0  0  0
  7  8  1  0  0  0  0
  7  9  1  0  0  0  0
  7 10  1  0  0  0  0
 10 11  1  0  0  0  0
 10 12  1  0  0  0  0
 10 13  1  0  0  0  0
 13 14  1  0  0  0  0
 13 15  1  0  0  0  0
 13 16  1  0  0  0  0
 16 17  1  0  0  0  0
 16 18  1  0  0  0  0
 16 19  1  0  0  0  0
 19 20  1  0  0  0  0
 19 21  1  0  0  0  0
 19 22  1  0  0  0  0
 22 23  1  0  0  0  0
 22 24  1  0  0  0  0
 22 25  1  0  0  0  0
M  END
> <VConfSearch Rank>
630

> <Conf_Id>
142

> <Delta U+W>
0.593

> <U+W>
-51.037

> <U>
8.903

> <W>
-59.940

> <W(PB)>
-62.418

> <W(SA)>
2.478

> <Valence>
8.305

> <Coulomb>
-0.223

> <VdW>
0.821

> <VdW6>
-9.236

> <VdW12>
10.057

> <Bond>
0.173

> <Angle>
2.663

> <Pdih>
5.469

> <Idih>
0.001

> <Tether>
0.000

$$$$
VeraChem MOL file


 25 24  0  0  0  0  0  0  0  0999 V2000     
   23.6388   18.5144   24.0894 C   0  0  0  0  0  0  0  0  0  0  0  0
   24.3312   18.0911   24.9942 O   0  5  0  0  0  0  0  0  0  0  0  0
   23.7857   18.1966   22.9255 O   0  0  0  0  0  0  0  0  0  0  0  0
   22.5440   19.5207   24.4328 C   0  0  0  0  0  0  0  0  0  0  0  0
   22.2088   20.0045   23.5082 H   0  0  0  0  0  0  0  0  0  0  0  0
   23.0027   20.3055   25.0453 H   0  0  0  0  0  0  0  0  0  0  0  0
   21.3386   18.9095   25.1980 C   0  0  0  0  0  0  0  0  0  0  0  0
   21.6994   18.4951   26.1495 H   0  0  0  0  0  0  0  0  0  0  0  0
   20.6370   19.7100   25.4660 H   0  0  0  0  0  0  0  0  0  0  0  0
   20.5878   17.7945   24.4251 C   0  0  0  0  0  0  0  0  0  0  0  0
   19.7629   17.4263   25.0501 H   0  0  0  0  0  0  0  0  0  0  0  0
   21.2637   16.9398   24.2842 H   0  0  0  0  0  0  0  0  0  0  0  0
   20.0232   18.2115   23.0439 C   0  0  0  0  0  0  0  0  0  0  0  0
   20.8474   18.4764   22.3681 H   0  0  0  0  0  0  0  0  0  0  0  0
   19.5320   17.3380   22.5941 H   0  0  0  0  0  0  0  0  0  0  0  0
   19.0091   19.3764   23.1166 C   0  0  0  0  0  0  0  0  0  0  0  0
   19.5045   20.2792   23.4970 H   0  0  0  0  0  0  0  0  0  0  0  0
   18.2103   19.1239   23.8272 H   0  0  0  0  0  0  0  0  0  0  0  0
   18.3931   19.6834   21.7354 C   0  0  0  0  0  0  0  0  0  0  0  0
   19.1909   19.9336   21.0223 H   0  0  0  0  0  0  0  0  0  0  0  0
   17.8873   18.7884   21.3477 H   0  0  0  0  0  0  0  0  0  0  0  0
   17.3866   20.8493   21.8085 C   0  0  0  0  0  0  0  0  0  0  0  0
   17.8738   21.7670   22.1633 H   0  0  0  0  0  0  0  0  0  0  0  0
   16.9587   21.0537   20.8185 H   0  0  0  0  0  0  0  0  0  0  0  0
   16.5610   20.6130   22.4925 H   0  0  0  0  0  0  0  0  0  0  0  0
  1  2  1  0  0  0  0
  1  3  2  0  0  0  0
  1  4  1  0  0  0  0
  4  5  1  0  0  0  0
  4  6  1  0  0  0  0
  4  7  1  0  0  0  0
  7  8  1  0  0  0  0
  7  9  1  0  0  0  0
  7 10  1  0  0  0  0
 10 11  1  0  0  0  0
 10 12  1  0  0  0  0
 10 13  1  0  0  0  0
 13 14  1  0  0  0  0
 13 15  1  0  0  0  0
 13 16  1  0  0  0  0
 16 17  1  0  0  0  0
 16 18  1  0  0  0  0
 16 19  1  0  0  0  0
 19 20  1  0  0  0  0
 19 21  1  0  0  0  0
 19 22  1  0  0  0  0
 22 23  1  0  0  0  0
 22 24  1  0  0  0  0
 22 25  1  0  0  0  0
M  END
> <VConfSearch Rank>
631

> <Conf_Id>
135

> <Delta U+W>
1.314

> <U+W>
-50.316

> <U>
9.773

> <W>
-60.088

> <W(PB)>
-62.535

> <W(SA)>
2.447

> <Valence>
8.741

> <Coulomb>
0.479

> <VdW>
0.552

> <VdW6>
-10.627

> <VdW12>
11.179

> <Bond>
0.227

> <Angle>
3.155

> <Pdih>
5.358

> <Idih>
0.001

> <Tether>
0.000

$$$$
VeraChem MOL file


 25 24  0  0  0  0  0  0  0  0999 V2000     
   18.6971   15.5081   21.7802 C   0  0  0  0  0  0  0  0  0  0  0  0
   17.8590   15.6199   20.9073 O   0  5  0  0  0  0  0  0  0  0  0  0
   19.3482   14.4985   21.9627 O   0  0  0  0  0  0  0  0  0  0  0  0
   18.9626   16.7086   22.6816 C   0  0  0  0  0  0  0  0  0  0  0  0
   19.2586   16.3335   23.6685 H   0  0  0  0  0  0  0  0  0  0  0  0
   18.0157   17.2449   22.8078 H   0  0  0  0  0  0  0  0  0  0  0  0
   20.0574   17.6512   22.1169 C   0  0  0  0  0  0  0  0  0  0  0  0
   20.9591   17.0573   21.9127 H   0  0  0  0  0  0  0  0  0  0  0  0
   19.7300   18.0591   21.1507 H   0  0  0  0  0  0  0  0  0  0  0  0
   20.4351   18.8079   23.0731 C   0  0  0  0  0  0  0  0  0  0  0  0
   21.3138   19.3157   22.6561 H   0  0  0  0  0  0  0  0  0  0  0  0
   20.7380   18.3989   24.0466 H   0  0  0  0  0  0  0  0  0  0  0  0
   19.3010   19.8425   23.2676 C   0  0  0  0  0  0  0  0  0  0  0  0
   19.0452   20.2893   22.2973 H   0  0  0  0  0  0  0  0  0  0  0  0
   18.3959   19.3331   23.6208 H   0  0  0  0  0  0  0  0  0  0  0  0
   19.6347   20.9675   24.2798 C   0  0  0  0  0  0  0  0  0  0  0  0
   19.8006   20.5386   25.2775 H   0  0  0  0  0  0  0  0  0  0  0  0
   18.7429   21.6022   24.3734 H   0  0  0  0  0  0  0  0  0  0  0  0
   20.8280   21.8702   23.8783 C   0  0  0  0  0  0  0  0  0  0  0  0
   20.9449   21.8845   22.7859 H   0  0  0  0  0  0  0  0  0  0  0  0
   20.6022   22.9040   24.1743 H   0  0  0  0  0  0  0  0  0  0  0  0
   22.1551   21.4590   24.5543 C   0  0  0  0  0  0  0  0  0  0  0  0
   22.4461   20.4351   24.2933 H   0  0  0  0  0  0  0  0  0  0  0  0
   22.9678   22.1284   24.2439 H   0  0  0  0  0  0  0  0  0  0  0  0
   22.0707   21.5182   25.6472 H   0  0  0  0  0  0  0  0  0  0  0  0
  1  2  1  0  0  0  0
  1  3  2  0  0  0  0
  1  4  1  0  0  0  0
  4  5  1  0  0  0  0
  4  6  1  0  0  0  0
  4  7  1  0  0  0  0
  7  8  1  0  0  0  0
  7  9  1  0  0  0  0
  7 10  1  0  0  0  0
 10 11  1  0  0  0  0
 10 12  1  0  0  0  0
 10 13  1  0  0  0  0
 13 14  1  0  0  0  0
 13 15  1  0  0  0  0
 13 16  1  0  0  0  0
 16 17  1  0  0  0  0
 16 18  1  0  0  0  0
 16 19  1  0  0  0  0
 19 20  1  0  0  0  0
 19 21  1  0  0  0  0
 19 22  1  0  0  0  0
 22 23  1  0  0  0  0
 22 24  1  0  0  0  0
 22 25  1  0  0  0  0
M  END
> <VConfSearch Rank>
632

> <Conf_Id>
19

> <Delta U+W>
3.222

> <U+W>
-48.407

> <U>
10.617

> <W>
-59.025

> <W(PB)>
-61.462

> <W(SA)>
2.437

> <Valence>
11.188

> <Coulomb>
-1.778

> <VdW>
1.208

> <VdW6>
-9.786

> <VdW12>
10.993

> <Bond>
0.241

> <Angle>
3.294

> <Pdih>
7.653

> <Idih>
0.001

> <Tether>
0.000

$$$$
VeraChem MOL file


 25 24  0  0  0  0  0  0  0  0999 V2000     
   19.3074   16.0867   20.5269 C   0  0  0  0  0  0  0  0  0  0  0  0
   18.2380   16.1967   19.9602 O   0  5  0  0  0  0  0  0  0  0  0  0
   19.9222   15.0416   20.6071 O   0  0  0  0  0  0  0  0  0  0  0  0
   19.8994   17.3231   21.1940 C   0  0  0  0  0  0  0  0  0  0  0  0
   19.6114   18.1938   20.5947 H   0  0  0  0  0  0  0  0  0  0  0  0
   20.9920   17.2433   21.1486 H   0  0  0  0  0  0  0  0  0  0  0  0
   19.4358   17.4901   22.6648 C   0  0  0  0  0  0  0  0  0  0  0  0
   18.3449   17.6174   22.6951 H   0  0  0  0  0  0  0  0  0  0  0  0
   19.6542   16.5603   23.2082 H   0  0  0  0  0  0  0  0  0  0  0  0
   20.1212   18.6650   23.4028 C   0  0  0  0  0  0  0  0  0  0  0  0
   21.2122   18.5490   23.3495 H   0  0  0  0  0  0  0  0  0  0  0  0
   19.8477   18.6013   24.4635 H   0  0  0  0  0  0  0  0  0  0  0  0
   19.7135   20.0558   22.8606 C   0  0  0  0  0  0  0  0  0  0  0  0
   19.9210   20.1056   21.7845 H   0  0  0  0  0  0  0  0  0  0  0  0
   18.6286   20.1865   22.9721 H   0  0  0  0  0  0  0  0  0  0  0  0
   20.4467   21.2412   23.5379 C   0  0  0  0  0  0  0  0  0  0  0  0
   20.1181   22.1620   23.0368 H   0  0  0  0  0  0  0  0  0  0  0  0
   21.5272   21.1706   23.3521 H   0  0  0  0  0  0  0  0  0  0  0  0
   20.1718   21.3942   25.0549 C   0  0  0  0  0  0  0  0  0  0  0  0
   20.1112   22.4646   25.2951 H   0  0  0  0  0  0  0  0  0  0  0  0
   19.1915   20.9685   25.3098 H   0  0  0  0  0  0  0  0  0  0  0  0
   21.2743   20.7682   25.9381 C   0  0  0  0  0  0  0  0  0  0  0  0
   22.2448   21.2436   25.7456 H   0  0  0  0  0  0  0  0  0  0  0  0
   21.0386   20.9053   27.0014 H   0  0  0  0  0  0  0  0  0  0  0  0
   21.3828   19.6932   25.7548 H   0  0  0  0  0  0  0  0  0  0  0  0
  1  2  1  0  0  0  0
  1  3  2  0  0  0  0
  1  4  1  0  0  0  0
  4  5  1  0  0  0  0
  4  6  1  0  0  0  0
  4  7  1  0  0  0  0
  7  8  1  0  0  0  0
  7  9  1  0  0  0  0
  7 10  1  0  0  0  0
 10 11  1  0  0  0  0
 10 12  1  0  0  0  0
 10 13  1  0  0  0  0
 13 14  1  0  0  0  0
 13 15  1  0  0  0  0
 13 16  1  0  0  0  0
 16 17  1  0  0  0  0
 16 18  1  0  0  0  0
 16 19  1  0  0  0  0
 19 20  1  0  0  0  0
 19 21  1  0  0  0  0
 19 22  1  0  0  0  0
 22 23  1  0  0  0  0
 22 24  1  0  0  0  0
 22 25  1  0  0  0  0
M  END
> <VConfSearch Rank>
633

> <Conf_Id>
20

> <Delta U+W>
3.224

> <U+W>
-48.406

> <U>
10.617

> <W>
-59.023

> <W(PB)>
-61.467

> <W(SA)>
2.444

> <Valence>
11.188

> <Coulomb>
-1.778

> <VdW>
1.208

> <VdW6>
-9.786

> <VdW12>
10.993

> <Bond>
0.241

> <Angle>
3.294

> <Pdih>
7.653

> <Idih>
0.001

> <Tether>
0.000

$$$$
VeraChem MOL file


 25 24  0  0  0  0  0  0  0  0999 V2000     
   20.7899   21.7403   21.7401 C   0  0  0  0  0  0  0  0  0  0  0  0
   20.7935   22.7146   22.4669 O   0  5  0  0  0  0  0  0  0  0  0  0
   19.9048   21.5024   20.9417 O   0  0  0  0  0  0  0  0  0  0  0  0
   21.9920   20.7988   21.7836 C   0  0  0  0  0  0  0  0  0  0  0  0
   22.8569   21.3884   21.4585 H   0  0  0  0  0  0  0  0  0  0  0  0
   21.8526   20.0079   21.0367 H   0  0  0  0  0  0  0  0  0  0  0  0
   22.2978   20.1773   23.1755 C   0  0  0  0  0  0  0  0  0  0  0  0
   23.3433   19.8409   23.1743 H   0  0  0  0  0  0  0  0  0  0  0  0
   22.2302   20.9502   23.9538 H   0  0  0  0  0  0  0  0  0  0  0  0
   21.4125   18.9640   23.5540 C   0  0  0  0  0  0  0  0  0  0  0  0
   21.8157   18.5206   24.4747 H   0  0  0  0  0  0  0  0  0  0  0  0
   21.4937   18.1907   22.7779 H   0  0  0  0  0  0  0  0  0  0  0  0
   19.9250   19.3160   23.7825 C   0  0  0  0  0  0  0  0  0  0  0  0
   19.8489   20.1607   24.4809 H   0  0  0  0  0  0  0  0  0  0  0  0
   19.4688   19.6376   22.8379 H   0  0  0  0  0  0  0  0  0  0  0  0
   19.1319   18.1127   24.3371 C   0  0  0  0  0  0  0  0  0  0  0  0
   19.5749   17.7868   25.2882 H   0  0  0  0  0  0  0  0  0  0  0  0
   19.2132   17.2676   23.6398 H   0  0  0  0  0  0  0  0  0  0  0  0
   17.6442   18.4598   24.5549 C   0  0  0  0  0  0  0  0  0  0  0  0
   17.5594   19.3045   25.2527 H   0  0  0  0  0  0  0  0  0  0  0  0
   17.1971   18.7847   23.6051 H   0  0  0  0  0  0  0  0  0  0  0  0
   16.8547   17.2564   25.1082 C   0  0  0  0  0  0  0  0  0  0  0  0
   17.2616   16.9303   26.0744 H   0  0  0  0  0  0  0  0  0  0  0  0
   15.7997   17.5210   25.2567 H   0  0  0  0  0  0  0  0  0  0  0  0
   16.8965   16.4067   24.4142 H   0  0  0  0  0  0  0  0  0  0  0  0
  1  2  1  0  0  0  0
  1  3  2  0  0  0  0
  1  4  1  0  0  0  0
  4  5  1  0  0  0  0
  4  6  1  0  0  0  0
  4  7  1  0  0  0  0
  7  8  1  0  0  0  0
  7  9  1  0  0  0  0
  7 10  1  0  0  0  0
 10 11  1  0  0  0  0
 10 12  1  0  0  0  0
 10 13  1  0  0  0  0
 13 14  1  0  0  0  0
 13 15  1  0  0  0  0
 13 16  1  0  0  0  0
 16 17  1  0  0  0  0
 16 18  1  0  0  0  0
 16 19  1  0  0  0  0
 19 20  1  0  0  0  0
 19 21  1  0  0  0  0
 19 22  1  0  0  0  0
 22 23  1  0  0  0  0
 22 24  1  0  0  0  0
 22 25  1  0  0  0  0
M  END
> <VConfSearch Rank>
634

> <Conf_Id>
24

> <Delta U+W>
1.784

> <U+W>
-49.846

> <U>
10.904

> <W>
-60.749

> <W(PB)>
-63.220

> <W(SA)>
2.471

> <Valence>
9.445

> <Coulomb>
0.780

> <VdW>
0.679

> <VdW6>
-10.008

> <VdW12>
10.687

> <Bond>
0.201

> <Angle>
3.198

> <Pdih>
6.039

> <Idih>
0.006

> <Tether>
0.000

$$$$
VeraChem MOL file


 25 24  0  0  0  0  0  0  0  0999 V2000     
   20.5419   17.2020   20.9492 C   0  0  0  0  0  0  0  0  0  0  0  0
   21.1821   16.2289   21.2969 O   0  5  0  0  0  0  0  0  0  0  0  0
   19.3419   17.1816   20.7569 O   0  0  0  0  0  0  0  0  0  0  0  0
   21.2928   18.5035   20.6744 C   0  0  0  0  0  0  0  0  0  0  0  0
   20.5796   19.2595   20.3240 H   0  0  0  0  0  0  0  0  0  0  0  0
   21.9689   18.2980   19.8364 H   0  0  0  0  0  0  0  0  0  0  0  0
   22.1207   19.0566   21.8685 C   0  0  0  0  0  0  0  0  0  0  0  0
   22.6789   18.2400   22.3473 H   0  0  0  0  0  0  0  0  0  0  0  0
   22.8771   19.7443   21.4669 H   0  0  0  0  0  0  0  0  0  0  0  0
   21.2963   19.8289   22.9282 C   0  0  0  0  0  0  0  0  0  0  0  0
   20.7505   20.6508   22.4450 H   0  0  0  0  0  0  0  0  0  0  0  0
   21.9977   20.2966   23.6326 H   0  0  0  0  0  0  0  0  0  0  0  0
   20.3080   18.9464   23.7238 C   0  0  0  0  0  0  0  0  0  0  0  0
   19.5198   18.5751   23.0569 H   0  0  0  0  0  0  0  0  0  0  0  0
   20.8350   18.0675   24.1201 H   0  0  0  0  0  0  0  0  0  0  0  0
   19.6545   19.7255   24.8859 C   0  0  0  0  0  0  0  0  0  0  0  0
   19.1322   20.6065   24.4883 H   0  0  0  0  0  0  0  0  0  0  0  0
   20.4343   20.0953   25.5656 H   0  0  0  0  0  0  0  0  0  0  0  0
   18.6589   18.8484   25.6739 C   0  0  0  0  0  0  0  0  0  0  0  0
   17.8761   18.4781   24.9974 H   0  0  0  0  0  0  0  0  0  0  0  0
   19.1784   17.9665   26.0736 H   0  0  0  0  0  0  0  0  0  0  0  0
   18.0076   19.6291   26.8332 C   0  0  0  0  0  0  0  0  0  0  0  0
   17.4542   20.5000   26.4582 H   0  0  0  0  0  0  0  0  0  0  0  0
   17.3032   18.9906   27.3821 H   0  0  0  0  0  0  0  0  0  0  0  0
   18.7664   19.9845   27.5426 H   0  0  0  0  0  0  0  0  0  0  0  0
  1  2  1  0  0  0  0
  1  3  2  0  0  0  0
  1  4  1  0  0  0  0
  4  5  1  0  0  0  0
  4  6  1  0  0  0  0
  4  7  1  0  0  0  0
  7  8  1  0  0  0  0
  7  9  1  0  0  0  0
  7 10  1  0  0  0  0
 10 11  1  0  0  0  0
 10 12  1  0  0  0  0
 10 13  1  0  0  0  0
 13 14  1  0  0  0  0
 13 15  1  0  0  0  0
 13 16  1  0  0  0  0
 16 17  1  0  0  0  0
 16 18  1  0  0  0  0
 16 19  1  0  0  0  0
 19 20  1  0  0  0  0
 19 21  1  0  0  0  0
 19 22  1  0  0  0  0
 22 23  1  0  0  0  0
 22 24  1  0  0  0  0
 22 25  1  0  0  0  0
M  END
> <VConfSearch Rank>
635

> <Conf_Id>
9

> <Delta U+W>
1.764

> <U+W>
-49.865

> <U>
10.902

> <W>
-60.768

> <W(PB)>
-63.223

> <W(SA)>
2.456

> <Valence>
9.445

> <Coulomb>
0.778

> <VdW>
0.679

> <VdW6>
-10.007

> <VdW12>
10.687

> <Bond>
0.201

> <Angle>
3.198

> <Pdih>
6.040

> <Idih>
0.006

> <Tether>
0.000

$$$$
VeraChem MOL file


 25 24  0  0  0  0  0  0  0  0999 V2000     
   17.8289   21.2088   21.2121 C   0  0  0  0  0  0  0  0  0  0  0  0
   17.5392   20.2430   20.5340 O   0  5  0  0  0  0  0  0  0  0  0  0
   17.2162   22.2580   21.1860 O   0  0  0  0  0  0  0  0  0  0  0  0
   19.0141   21.0914   22.1635 C   0  0  0  0  0  0  0  0  0  0  0  0
   19.4889   22.0772   22.2350 H   0  0  0  0  0  0  0  0  0  0  0  0
   19.7450   20.4178   21.7058 H   0  0  0  0  0  0  0  0  0  0  0  0
   18.6028   20.5957   23.5752 C   0  0  0  0  0  0  0  0  0  0  0  0
   17.8771   21.3113   23.9860 H   0  0  0  0  0  0  0  0  0  0  0  0
   18.0751   19.6349   23.5000 H   0  0  0  0  0  0  0  0  0  0  0  0
   19.7938   20.4780   24.5601 C   0  0  0  0  0  0  0  0  0  0  0  0
   19.4364   20.7526   25.5620 H   0  0  0  0  0  0  0  0  0  0  0  0
   20.5707   21.2130   24.3089 H   0  0  0  0  0  0  0  0  0  0  0  0
   20.4125   19.0610   24.6598 C   0  0  0  0  0  0  0  0  0  0  0  0
   21.1842   19.0759   25.4414 H   0  0  0  0  0  0  0  0  0  0  0  0
   19.6418   18.3569   24.9998 H   0  0  0  0  0  0  0  0  0  0  0  0
   21.0422   18.5486   23.3429 C   0  0  0  0  0  0  0  0  0  0  0  0
   21.6972   19.3279   22.9306 H   0  0  0  0  0  0  0  0  0  0  0  0
   20.2540   18.3686   22.6002 H   0  0  0  0  0  0  0  0  0  0  0  0
   21.8689   17.2542   23.5233 C   0  0  0  0  0  0  0  0  0  0  0  0
   22.3597   17.0133   22.5702 H   0  0  0  0  0  0  0  0  0  0  0  0
   22.6734   17.4259   24.2517 H   0  0  0  0  0  0  0  0  0  0  0  0
   21.0177   16.0441   23.9654 C   0  0  0  0  0  0  0  0  0  0  0  0
   20.1910   15.8687   23.2647 H   0  0  0  0  0  0  0  0  0  0  0  0
   21.6312   15.1346   23.9992 H   0  0  0  0  0  0  0  0  0  0  0  0
   20.5944   16.1972   24.9660 H   0  0  0  0  0  0  0  0  0  0  0  0
  1  2  1  0  0  0  0
  1  3  2  0  0  0  0
  1  4  1  0  0  0  0
  4  5  1  0  0  0  0
  4  6  1  0  0  0  0
  4  7  1  0  0  0  0
  7  8  1  0  0  0  0
  7  9  1  0  0  0  0
  7 10  1  0  0  0  0
 10 11  1  0  0  0  0
 10 12  1  0  0  0  0
 10 13  1  0  0  0  0
 13 14  1  0  0  0  0
 13 15  1  0  0  0  0
 13 16  1  0  0  0  0
 16 17  1  0  0  0  0
 16 18  1  0  0  0  0
 16 19  1  0  0  0  0
 19 20  1  0  0  0  0
 19 21  1  0  0  0  0
 19 22  1  0  0  0  0
 22 23  1  0  0  0  0
 22 24  1  0  0  0  0
 22 25  1  0  0  0  0
M  END
> <VConfSearch Rank>
636

> <Conf_Id>
89

> <Delta U+W>
2.903

> <U+W>
-48.726

> <U>
10.996

> <W>
-59.723

> <W(PB)>
-62.151

> <W(SA)>
2.428

> <Valence>
10.985

> <Coulomb>
-0.995

> <VdW>
1.006

> <VdW6>
-10.062

> <VdW12>
11.069

> <Bond>
0.238

> <Angle>
3.202

> <Pdih>
7.544

> <Idih>
0.001

> <Tether>
0.000

$$$$
VeraChem MOL file


 25 24  0  0  0  0  0  0  0  0999 V2000     
   22.3996   21.5570   22.9253 C   0  0  0  0  0  0  0  0  0  0  0  0
   22.5461   21.4178   21.7268 O   0  5  0  0  0  0  0  0  0  0  0  0
   21.9205   22.5533   23.4308 O   0  0  0  0  0  0  0  0  0  0  0  0
   22.9039   20.4474   23.8459 C   0  0  0  0  0  0  0  0  0  0  0  0
   23.7181   20.8839   24.4357 H   0  0  0  0  0  0  0  0  0  0  0  0
   23.3499   19.6526   23.2358 H   0  0  0  0  0  0  0  0  0  0  0  0
   21.8416   19.8530   24.8132 C   0  0  0  0  0  0  0  0  0  0  0  0
   22.3738   19.3784   25.6486 H   0  0  0  0  0  0  0  0  0  0  0  0
   21.2439   20.6614   25.2570 H   0  0  0  0  0  0  0  0  0  0  0  0
   20.9097   18.7874   24.1840 C   0  0  0  0  0  0  0  0  0  0  0  0
   20.3322   18.3297   24.9968 H   0  0  0  0  0  0  0  0  0  0  0  0
   21.5135   17.9828   23.7429 H   0  0  0  0  0  0  0  0  0  0  0  0
   19.9370   19.3507   23.1196 C   0  0  0  0  0  0  0  0  0  0  0  0
   19.3738   20.1960   23.5380 H   0  0  0  0  0  0  0  0  0  0  0  0
   20.5149   19.7478   22.2763 H   0  0  0  0  0  0  0  0  0  0  0  0
   18.9529   18.2948   22.5609 C   0  0  0  0  0  0  0  0  0  0  0  0
   19.5162   17.4354   22.1723 H   0  0  0  0  0  0  0  0  0  0  0  0
   18.4261   18.7336   21.7026 H   0  0  0  0  0  0  0  0  0  0  0  0
   17.9078   17.8126   23.5928 C   0  0  0  0  0  0  0  0  0  0  0  0
   18.4043   17.2953   24.4238 H   0  0  0  0  0  0  0  0  0  0  0  0
   17.3836   18.6780   24.0210 H   0  0  0  0  0  0  0  0  0  0  0  0
   16.8802   16.8577   22.9522 C   0  0  0  0  0  0  0  0  0  0  0  0
   17.3750   15.9690   22.5388 H   0  0  0  0  0  0  0  0  0  0  0  0
   16.1474   16.5219   23.6973 H   0  0  0  0  0  0  0  0  0  0  0  0
   16.3339   17.3551   22.1401 H   0  0  0  0  0  0  0  0  0  0  0  0
  1  2  1  0  0  0  0
  1  3  2  0  0  0  0
  1  4  1  0  0  0  0
  4  5  1  0  0  0  0
  4  6  1  0  0  0  0
  4  7  1  0  0  0  0
  7  8  1  0  0  0  0
  7  9  1  0  0  0  0
  7 10  1  0  0  0  0
 10 11  1  0  0  0  0
 10 12  1  0  0  0  0
 10 13  1  0  0  0  0
 13 14  1  0  0  0  0
 13 15  1  0  0  0  0
 13 16  1  0  0  0  0
 16 17  1  0  0  0  0
 16 18  1  0  0  0  0
 16 19  1  0  0  0  0
 19 20  1  0  0  0  0
 19 21  1  0  0  0  0
 19 22  1  0  0  0  0
 22 23  1  0  0  0  0
 22 24  1  0  0  0  0
 22 25  1  0  0  0  0
M  END
> <VConfSearch Rank>
637

> <Conf_Id>
114

> <Delta U+W>
2.758

> <U+W>
-48.871

> <U>
11.422

> <W>
-60.293

> <W(PB)>
-62.719

> <W(SA)>
2.425

> <Valence>
10.135

> <Coulomb>
0.369

> <VdW>
0.918

> <VdW6>
-10.482

> <VdW12>
11.400

> <Bond>
0.245

> <Angle>
3.539

> <Pdih>
6.346

> <Idih>
0.006

> <Tether>
0.000

$$$$
VeraChem MOL file


 25 24  0  0  0  0  0  0  0  0999 V2000     
   22.7271   17.9969   20.7288 C   0  0  0  0  0  0  0  0  0  0  0  0
   23.1265   16.9052   21.0834 O   0  5  0  0  0  0  0  0  0  0  0  0
   22.1348   18.1903   19.6853 O   0  0  0  0  0  0  0  0  0  0  0  0
   23.0013   19.1958   21.6324 C   0  0  0  0  0  0  0  0  0  0  0  0
   23.3631   20.0113   20.9952 H   0  0  0  0  0  0  0  0  0  0  0  0
   23.8204   18.9393   22.3152 H   0  0  0  0  0  0  0  0  0  0  0  0
   21.7638   19.6751   22.4347 C   0  0  0  0  0  0  0  0  0  0  0  0
   22.0147   20.6107   22.9522 H   0  0  0  0  0  0  0  0  0  0  0  0
   20.9537   19.9081   21.7314 H   0  0  0  0  0  0  0  0  0  0  0  0
   21.2896   18.6287   23.4718 C   0  0  0  0  0  0  0  0  0  0  0  0
   22.1419   18.3426   24.1032 H   0  0  0  0  0  0  0  0  0  0  0  0
   20.9653   17.7133   22.9579 H   0  0  0  0  0  0  0  0  0  0  0  0
   20.1505   19.1367   24.3877 C   0  0  0  0  0  0  0  0  0  0  0  0
   19.9883   18.3880   25.1734 H   0  0  0  0  0  0  0  0  0  0  0  0
   20.4690   20.0572   24.8956 H   0  0  0  0  0  0  0  0  0  0  0  0
   18.8203   19.3879   23.6353 C   0  0  0  0  0  0  0  0  0  0  0  0
   18.5041   18.4681   23.1247 H   0  0  0  0  0  0  0  0  0  0  0  0
   18.9798   20.1398   22.8522 H   0  0  0  0  0  0  0  0  0  0  0  0
   17.6802   19.8883   24.5531 C   0  0  0  0  0  0  0  0  0  0  0  0
   17.9974   20.8021   25.0744 H   0  0  0  0  0  0  0  0  0  0  0  0
   16.8232   20.1709   23.9262 H   0  0  0  0  0  0  0  0  0  0  0  0
   17.2140   18.8364   25.5831 C   0  0  0  0  0  0  0  0  0  0  0  0
   16.3438   19.2056   26.1411 H   0  0  0  0  0  0  0  0  0  0  0  0
   16.9245   17.9012   25.0863 H   0  0  0  0  0  0  0  0  0  0  0  0
   18.0025   18.6101   26.3115 H   0  0  0  0  0  0  0  0  0  0  0  0
  1  2  1  0  0  0  0
  1  3  2  0  0  0  0
  1  4  1  0  0  0  0
  4  5  1  0  0  0  0
  4  6  1  0  0  0  0
  4  7  1  0  0  0  0
  7  8  1  0  0  0  0
  7  9  1  0  0  0  0
  7 10  1  0  0  0  0
 10 11  1  0  0  0  0
 10 12  1  0  0  0  0
 10 13  1  0  0  0  0
 13 14  1  0  0  0  0
 13 15  1  0  0  0  0
 13 16  1  0  0  0  0
 16 17  1  0  0  0  0
 16 18  1  0  0  0  0
 16 19  1  0  0  0  0
 19 20  1  0  0  0  0
 19 21  1  0  0  0  0
 19 22  1  0  0  0  0
 22 23  1  0  0  0  0
 22 24  1  0  0  0  0
 22 25  1  0  0  0  0
M  END
> <VConfSearch Rank>
638

> <Conf_Id>
87

> <Delta U+W>
1.453

> <U+W>
-50.176

> <U>
9.763

> <W>
-59.940

> <W(PB)>
-62.392

> <W(SA)>
2.452

> <Valence>
8.883

> <Coulomb>
-0.122

> <VdW>
1.003

> <VdW6>
-9.782

> <VdW12>
10.785

> <Bond>
0.212

> <Angle>
2.940

> <Pdih>
5.730

> <Idih>
0.001

> <Tether>
0.000

$$$$
VeraChem MOL file


 25 24  0  0  0  0  0  0  0  0999 V2000     
   16.4191   18.4395   24.7353 C   0  0  0  0  0  0  0  0  0  0  0  0
   16.3160   17.2354   24.6082 O   0  5  0  0  0  0  0  0  0  0  0  0
   15.8847   19.0707   25.6257 O   0  0  0  0  0  0  0  0  0  0  0  0
   17.2815   19.1981   23.7329 C   0  0  0  0  0  0  0  0  0  0  0  0
   16.8498   20.1973   23.5996 H   0  0  0  0  0  0  0  0  0  0  0  0
   17.2136   18.6836   22.7669 H   0  0  0  0  0  0  0  0  0  0  0  0
   18.7613   19.3089   24.1755 C   0  0  0  0  0  0  0  0  0  0  0  0
   18.8130   19.8183   25.1476 H   0  0  0  0  0  0  0  0  0  0  0  0
   19.1649   18.2981   24.3213 H   0  0  0  0  0  0  0  0  0  0  0  0
   19.6143   20.0758   23.1386 C   0  0  0  0  0  0  0  0  0  0  0  0
   19.1559   21.0569   22.9544 H   0  0  0  0  0  0  0  0  0  0  0  0
   19.5959   19.5459   22.1773 H   0  0  0  0  0  0  0  0  0  0  0  0
   21.0796   20.2989   23.5897 C   0  0  0  0  0  0  0  0  0  0  0  0
   21.5972   20.8983   22.8293 H   0  0  0  0  0  0  0  0  0  0  0  0
   21.0800   20.9117   24.5013 H   0  0  0  0  0  0  0  0  0  0  0  0
   21.8934   19.0062   23.8623 C   0  0  0  0  0  0  0  0  0  0  0  0
   21.4707   18.4874   24.7327 H   0  0  0  0  0  0  0  0  0  0  0  0
   22.9136   19.2902   24.1536 H   0  0  0  0  0  0  0  0  0  0  0  0
   21.9718   18.0138   22.6760 C   0  0  0  0  0  0  0  0  0  0  0  0
   22.5468   17.1332   22.9935 H   0  0  0  0  0  0  0  0  0  0  0  0
   20.9682   17.6464   22.4238 H   0  0  0  0  0  0  0  0  0  0  0  0
   22.6377   18.6160   21.4198 C   0  0  0  0  0  0  0  0  0  0  0  0
   23.6373   19.0048   21.6534 H   0  0  0  0  0  0  0  0  0  0  0  0
   22.7452   17.8527   20.6384 H   0  0  0  0  0  0  0  0  0  0  0  0
   22.0375   19.4354   21.0047 H   0  0  0  0  0  0  0  0  0  0  0  0
  1  2  1  0  0  0  0
  1  3  2  0  0  0  0
  1  4  1  0  0  0  0
  4  5  1  0  0  0  0
  4  6  1  0  0  0  0
  4  7  1  0  0  0  0
  7  8  1  0  0  0  0
  7  9  1  0  0  0  0
  7 10  1  0  0  0  0
 10 11  1  0  0  0  0
 10 12  1  0  0  0  0
 10 13  1  0  0  0  0
 13 14  1  0  0  0  0
 13 15  1  0  0  0  0
 13 16  1  0  0  0  0
 16 17  1  0  0  0  0
 16 18  1  0  0  0  0
 16 19  1  0  0  0  0
 19 20  1  0  0  0  0
 19 21  1  0  0  0  0
 19 22  1  0  0  0  0
 22 23  1  0  0  0  0
 22 24  1  0  0  0  0
 22 25  1  0  0  0  0
M  END
> <VConfSearch Rank>
639

> <Conf_Id>
29

> <Delta U+W>
0.850

> <U+W>
-50.780

> <U>
8.646

> <W>
-59.426

> <W(PB)>
-61.868

> <W(SA)>
2.442

> <Valence>
8.924

> <Coulomb>
-1.171

> <VdW>
0.894

> <VdW6>
-10.223

> <VdW12>
11.117

> <Bond>
0.231

> <Angle>
3.232

> <Pdih>
5.461

> <Idih>
0.001

> <Tether>
0.000

$$$$
VeraChem MOL file


 25 24  0  0  0  0  0  0  0  0999 V2000     
   19.3197   15.3018   22.8643 C   0  0  0  0  0  0  0  0  0  0  0  0
   18.1274   15.2811   22.6307 O   0  5  0  0  0  0  0  0  0  0  0  0
   19.9070   14.4124   23.4480 O   0  0  0  0  0  0  0  0  0  0  0  0
   20.1199   16.5199   22.4170 C   0  0  0  0  0  0  0  0  0  0  0  0
   19.6649   16.9077   21.4977 H   0  0  0  0  0  0  0  0  0  0  0  0
   21.1332   16.1869   22.1622 H   0  0  0  0  0  0  0  0  0  0  0  0
   20.1764   17.6310   23.4941 C   0  0  0  0  0  0  0  0  0  0  0  0
   19.1514   17.9332   23.7465 H   0  0  0  0  0  0  0  0  0  0  0  0
   20.6265   17.2261   24.4110 H   0  0  0  0  0  0  0  0  0  0  0  0
   20.9869   18.8564   23.0123 C   0  0  0  0  0  0  0  0  0  0  0  0
   20.5152   19.2861   22.1189 H   0  0  0  0  0  0  0  0  0  0  0  0
   21.9857   18.5234   22.6990 H   0  0  0  0  0  0  0  0  0  0  0  0
   21.1553   19.9496   24.0972 C   0  0  0  0  0  0  0  0  0  0  0  0
   21.7132   19.5259   24.9432 H   0  0  0  0  0  0  0  0  0  0  0  0
   21.7885   20.7520   23.6965 H   0  0  0  0  0  0  0  0  0  0  0  0
   19.8335   20.5609   24.6328 C   0  0  0  0  0  0  0  0  0  0  0  0
   20.0804   21.3314   25.3757 H   0  0  0  0  0  0  0  0  0  0  0  0
   19.2726   19.7917   25.1795 H   0  0  0  0  0  0  0  0  0  0  0  0
   18.9113   21.1842   23.5561 C   0  0  0  0  0  0  0  0  0  0  0  0
   18.5785   20.4115   22.8505 H   0  0  0  0  0  0  0  0  0  0  0  0
   18.0028   21.5587   24.0473 H   0  0  0  0  0  0  0  0  0  0  0  0
   19.5735   22.3456   22.7837 C   0  0  0  0  0  0  0  0  0  0  0  0
   20.4272   21.9942   22.1906 H   0  0  0  0  0  0  0  0  0  0  0  0
   18.8556   22.8068   22.0933 H   0  0  0  0  0  0  0  0  0  0  0  0
   19.9288   23.1232   23.4723 H   0  0  0  0  0  0  0  0  0  0  0  0
  1  2  1  0  0  0  0
  1  3  2  0  0  0  0
  1  4  1  0  0  0  0
  4  5  1  0  0  0  0
  4  6  1  0  0  0  0
  4  7  1  0  0  0  0
  7  8  1  0  0  0  0
  7  9  1  0  0  0  0
  7 10  1  0  0  0  0
 10 11  1  0  0  0  0
 10 12  1  0  0  0  0
 10 13  1  0  0  0  0
 13 14  1  0  0  0  0
 13 15  1  0  0  0  0
 13 16  1  0  0  0  0
 16 17  1  0  0  0  0
 16 18  1  0  0  0  0
 16 19  1  0  0  0  0
 19 20  1  0  0  0  0
 19 21  1  0  0  0  0
 19 22  1  0  0  0  0
 22 23  1  0  0  0  0
 22 24  1  0  0  0  0
 22 25  1  0  0  0  0
M  END
> <VConfSearch Rank>
640

> <Conf_Id>
30

> <Delta U+W>
0.843

> <U+W>
-50.787

> <U>
8.647

> <W>
-59.434

> <W(PB)>
-61.861

> <W(SA)>
2.428

> <Valence>
8.924

> <Coulomb>
-1.170

> <VdW>
0.894

> <VdW6>
-10.224

> <VdW12>
11.118

> <Bond>
0.231

> <Angle>
3.232

> <Pdih>
5.460

> <Idih>
0.000

> <Tether>
0.000

$$$$
VeraChem MOL file


 25 24  0  0  0  0  0  0  0  0999 V2000     
   23.8013   22.0384   23.2753 C   0  0  0  0  0  0  0  0  0  0  0  0
   24.0335   21.8025   24.4453 O   0  5  0  0  0  0  0  0  0  0  0  0
   24.4705   22.8005   22.6063 O   0  0  0  0  0  0  0  0  0  0  0  0
   22.6174   21.3593   22.5849 C   0  0  0  0  0  0  0  0  0  0  0  0
   23.0122   20.8151   21.7190 H   0  0  0  0  0  0  0  0  0  0  0  0
   21.9670   22.1518   22.1967 H   0  0  0  0  0  0  0  0  0  0  0  0
   21.7933   20.3954   23.4794 C   0  0  0  0  0  0  0  0  0  0  0  0
   22.4524   19.6077   23.8701 H   0  0  0  0  0  0  0  0  0  0  0  0
   21.4061   20.9457   24.3481 H   0  0  0  0  0  0  0  0  0  0  0  0
   20.6206   19.7549   22.7053 C   0  0  0  0  0  0  0  0  0  0  0  0
   21.0101   19.2054   21.8372 H   0  0  0  0  0  0  0  0  0  0  0  0
   19.9631   20.5442   22.3156 H   0  0  0  0  0  0  0  0  0  0  0  0
   19.8022   18.7964   23.5969 C   0  0  0  0  0  0  0  0  0  0  0  0
   20.4595   18.0070   23.9867 H   0  0  0  0  0  0  0  0  0  0  0  0
   19.4126   19.3457   24.4650 H   0  0  0  0  0  0  0  0  0  0  0  0
   18.6295   18.1557   22.8235 C   0  0  0  0  0  0  0  0  0  0  0  0
   19.0189   17.6063   21.9554 H   0  0  0  0  0  0  0  0  0  0  0  0
   17.9721   18.9449   22.4337 H   0  0  0  0  0  0  0  0  0  0  0  0
   17.8115   17.1975   23.7146 C   0  0  0  0  0  0  0  0  0  0  0  0
   18.4655   16.4054   24.1049 H   0  0  0  0  0  0  0  0  0  0  0  0
   17.4187   17.7440   24.5832 H   0  0  0  0  0  0  0  0  0  0  0  0
   16.6415   16.5598   22.9387 C   0  0  0  0  0  0  0  0  0  0  0  0
   17.0082   15.9800   22.0816 H   0  0  0  0  0  0  0  0  0  0  0  0
   16.0711   15.8820   23.5871 H   0  0  0  0  0  0  0  0  0  0  0  0
   15.9535   17.3287   22.5635 H   0  0  0  0  0  0  0  0  0  0  0  0
  1  2  1  0  0  0  0
  1  3  2  0  0  0  0
  1  4  1  0  0  0  0
  4  5  1  0  0  0  0
  4  6  1  0  0  0  0
  4  7  1  0  0  0  0
  7  8  1  0  0  0  0
  7  9  1  0  0  0  0
  7 10  1  0  0  0  0
 10 11  1  0  0  0  0
 10 12  1  0  0  0  0
 10 13  1  0  0  0  0
 13 14  1  0  0  0  0
 13 15  1  0  0  0  0
 13 16  1  0  0  0  0
 16 17  1  0  0  0  0
 16 18  1  0  0  0  0
 16 19  1  0  0  0  0
 19 20  1  0  0  0  0
 19 21  1  0  0  0  0
 19 22  1  0  0  0  0
 22 23  1  0  0  0  0
 22 24  1  0  0  0  0
 22 25  1  0  0  0  0
M  END
> <VConfSearch Rank>
641

> <Conf_Id>
0

> <Delta U+W>
0.000

> <U+W>
-51.629

> <U>
6.586

> <W>
-58.216

> <W(PB)>
-60.757

> <W(SA)>
2.541

> <Valence>
8.027

> <Coulomb>
-2.892

> <VdW>
1.451

> <VdW6>
-7.931

> <VdW12>
9.383

> <Bond>
0.149

> <Angle>
2.726

> <Pdih>
5.152

> <Idih>
0.000

> <Tether>
0.000

$$$$
VeraChem MOL file


 25 24  0  0  0  0  0  0  0  0999 V2000     
   24.0300   18.8004   20.6043 C   0  0  0  0  0  0  0  0  0  0  0  0
   24.3672   19.8318   20.0574 O   0  5  0  0  0  0  0  0  0  0  0  0
   24.8140   17.9616   21.0022 O   0  0  0  0  0  0  0  0  0  0  0  0
   22.5414   18.5558   20.8240 C   0  0  0  0  0  0  0  0  0  0  0  0
   22.3624   17.4752   20.7716 H   0  0  0  0  0  0  0  0  0  0  0  0
   21.9942   19.0159   19.9924 H   0  0  0  0  0  0  0  0  0  0  0  0
   22.0326   19.1173   22.1745 C   0  0  0  0  0  0  0  0  0  0  0  0
   22.5994   18.6566   22.9956 H   0  0  0  0  0  0  0  0  0  0  0  0
   22.2314   20.1973   22.2165 H   0  0  0  0  0  0  0  0  0  0  0  0
   20.5237   18.8574   22.3734 C   0  0  0  0  0  0  0  0  0  0  0  0
   20.3282   17.7771   22.3298 H   0  0  0  0  0  0  0  0  0  0  0  0
   19.9602   19.3181   21.5503 H   0  0  0  0  0  0  0  0  0  0  0  0
   20.0194   19.4184   23.7204 C   0  0  0  0  0  0  0  0  0  0  0  0
   20.5827   18.9579   24.5436 H   0  0  0  0  0  0  0  0  0  0  0  0
   20.2147   20.4987   23.7642 H   0  0  0  0  0  0  0  0  0  0  0  0
   18.5105   19.1590   23.9199 C   0  0  0  0  0  0  0  0  0  0  0  0
   18.3148   18.0787   23.8763 H   0  0  0  0  0  0  0  0  0  0  0  0
   17.9469   19.6194   23.0969 H   0  0  0  0  0  0  0  0  0  0  0  0
   18.0062   19.7197   25.2663 C   0  0  0  0  0  0  0  0  0  0  0  0
   18.5665   19.2599   26.0923 H   0  0  0  0  0  0  0  0  0  0  0  0
   18.1986   20.8006   25.3128 H   0  0  0  0  0  0  0  0  0  0  0  0
   16.4992   19.4586   25.4618 C   0  0  0  0  0  0  0  0  0  0  0  0
   16.1579   19.8636   26.4233 H   0  0  0  0  0  0  0  0  0  0  0  0
   15.9116   19.9346   24.6658 H   0  0  0  0  0  0  0  0  0  0  0  0
   16.2823   18.3824   25.4511 H   0  0  0  0  0  0  0  0  0  0  0  0
  1  2  1  0  0  0  0
  1  3  2  0  0  0  0
  1  4  1  0  0  0  0
  4  5  1  0  0  0  0
  4  6  1  0  0  0  0
  4  7  1  0  0  0  0
  7  8  1  0  0  0  0
  7  9  1  0  0  0  0
  7 10  1  0  0  0  0
 10 11  1  0  0  0  0
 10 12  1  0  0  0  0
 10 13  1  0  0  0  0
 13 14  1  0  0  0  0
 13 15  1  0  0  0  0
 13 16  1  0  0  0  0
 16 17  1  0  0  0  0
 16 18  1  0  0  0  0
 16 19  1  0  0  0  0
 19 20  1  0  0  0  0
 19 21  1  0  0  0  0
 19 22  1  0  0  0  0
 22 23  1  0  0  0  0
 22 24  1  0  0  0  0
 22 25  1  0  0  0  0
M  END
> <VConfSearch Rank>
642

> <Conf_Id>
27

> <Delta U+W>
-1.297

> <U+W>
-52.926

> <U>
5.617

> <W>
-58.543

> <W(PB)>
-61.065

> <W(SA)>
2.522

> <Valence>
7.531

> <Coulomb>
-2.818

> <VdW>
0.904

> <VdW6>
-7.640

> <VdW12>
8.544

> <Bond>
0.115

> <Angle>
2.271

> <Pdih>
5.144

> <Idih>
0.001

> <Tether>
0.000

$$$$
VeraChem MOL file


 25 24  0  0  0  0  0  0  0  0999 V2000     
   21.8964   20.3831   19.9106 C   0  0  0  0  0  0  0  0  0  0  0  0
   21.3057   21.3156   19.4022 O   0  5  0  0  0  0  0  0  0  0  0  0
   23.0174   20.4681   20.3723 O   0  0  0  0  0  0  0  0  0  0  0  0
   21.1967   19.0276   19.9554 C   0  0  0  0  0  0  0  0  0  0  0  0
   21.9525   18.2484   20.1116 H   0  0  0  0  0  0  0  0  0  0  0  0
   20.7591   18.8516   18.9657 H   0  0  0  0  0  0  0  0  0  0  0  0
   20.0900   18.9250   21.0370 C   0  0  0  0  0  0  0  0  0  0  0  0
   19.3559   19.7283   20.8840 H   0  0  0  0  0  0  0  0  0  0  0  0
   19.5519   17.9762   20.9075 H   0  0  0  0  0  0  0  0  0  0  0  0
   20.6545   18.9985   22.4736 C   0  0  0  0  0  0  0  0  0  0  0  0
   21.1796   19.9531   22.6166 H   0  0  0  0  0  0  0  0  0  0  0  0
   21.3975   18.2021   22.6172 H   0  0  0  0  0  0  0  0  0  0  0  0
   19.5401   18.8624   23.5334 C   0  0  0  0  0  0  0  0  0  0  0  0
   18.7977   19.6592   23.3890 H   0  0  0  0  0  0  0  0  0  0  0  0
   19.0156   17.9071   23.3942 H   0  0  0  0  0  0  0  0  0  0  0  0
   20.1033   18.9366   24.9691 C   0  0  0  0  0  0  0  0  0  0  0  0
   20.6279   19.8918   25.1085 H   0  0  0  0  0  0  0  0  0  0  0  0
   20.8460   18.1400   25.1136 H   0  0  0  0  0  0  0  0  0  0  0  0
   18.9897   18.8011   26.0289 C   0  0  0  0  0  0  0  0  0  0  0  0
   18.2458   19.5975   25.8884 H   0  0  0  0  0  0  0  0  0  0  0  0
   18.4640   17.8457   25.8937 H   0  0  0  0  0  0  0  0  0  0  0  0
   19.5562   18.8759   27.4610 C   0  0  0  0  0  0  0  0  0  0  0  0
   20.0609   19.8355   27.6342 H   0  0  0  0  0  0  0  0  0  0  0  0
   18.7514   18.7779   28.2011 H   0  0  0  0  0  0  0  0  0  0  0  0
   20.2807   18.0705   27.6395 H   0  0  0  0  0  0  0  0  0  0  0  0
  1  2  1  0  0  0  0
  1  3  2  0  0  0  0
  1  4  1  0  0  0  0
  4  5  1  0  0  0  0
  4  6  1  0  0  0  0
  4  7  1  0  0  0  0
  7  8  1  0  0  0  0
  7  9  1  0  0  0  0
  7 10  1  0  0  0  0
 10 11  1  0  0  0  0
 10 12  1  0  0  0  0
 10 13  1  0  0  0  0
 13 14  1  0  0  0  0
 13 15  1  0  0  0  0
 13 16  1  0  0  0  0
 16 17  1  0  0  0  0
 16 18  1  0  0  0  0
 16 19  1  0  0  0  0
 19 20  1  0  0  0  0
 19 21  1  0  0  0  0
 19 22  1  0  0  0  0
 22 23  1  0  0  0  0
 22 24  1  0  0  0  0
 22 25  1  0  0  0  0
M  END
> <VConfSearch Rank>
643

> <Conf_Id>
37

> <Delta U+W>
-0.230

> <U+W>
-51.860

> <U>
7.816

> <W>
-59.675

> <W(PB)>
-62.180

> <W(SA)>
2.505

> <Valence>
7.785

> <Coulomb>
-0.713

> <VdW>
0.744

> <VdW6>
-8.514

> <VdW12>
9.259

> <Bond>
0.136

> <Angle>
2.433

> <Pdih>
5.216

> <Idih>
0.000

> <Tether>
0.000

$$$$
VeraChem MOL file


 25 24  0  0  0  0  0  0  0  0999 V2000     
   18.3373   22.7732   24.6307 C   0  0  0  0  0  0  0  0  0  0  0  0
   17.9113   22.7102   25.7672 O   0  5  0  0  0  0  0  0  0  0  0  0
   17.6290   22.9173   23.6538 O   0  0  0  0  0  0  0  0  0  0  0  0
   19.8465   22.6825   24.4229 C   0  0  0  0  0  0  0  0  0  0  0  0
   20.3193   23.3397   25.1621 H   0  0  0  0  0  0  0  0  0  0  0  0
   20.0888   23.0906   23.4341 H   0  0  0  0  0  0  0  0  0  0  0  0
   20.4172   21.2476   24.5649 C   0  0  0  0  0  0  0  0  0  0  0  0
   21.5142   21.2961   24.5380 H   0  0  0  0  0  0  0  0  0  0  0  0
   20.1426   20.8424   25.5488 H   0  0  0  0  0  0  0  0  0  0  0  0
   19.9217   20.2980   23.4510 C   0  0  0  0  0  0  0  0  0  0  0  0
   20.1868   20.7140   22.4694 H   0  0  0  0  0  0  0  0  0  0  0  0
   18.8254   20.2306   23.4825 H   0  0  0  0  0  0  0  0  0  0  0  0
   20.5267   18.8848   23.5935 C   0  0  0  0  0  0  0  0  0  0  0  0
   21.6229   18.9494   23.5593 H   0  0  0  0  0  0  0  0  0  0  0  0
   20.2610   18.4696   24.5754 H   0  0  0  0  0  0  0  0  0  0  0  0
   20.0315   17.9352   22.4813 C   0  0  0  0  0  0  0  0  0  0  0  0
   20.2969   18.3503   21.4993 H   0  0  0  0  0  0  0  0  0  0  0  0
   18.9353   17.8706   22.5152 H   0  0  0  0  0  0  0  0  0  0  0  0
   20.6355   16.5223   22.6236 C   0  0  0  0  0  0  0  0  0  0  0  0
   21.7321   16.5829   22.5883 H   0  0  0  0  0  0  0  0  0  0  0  0
   20.3704   16.1031   23.6042 H   0  0  0  0  0  0  0  0  0  0  0  0
   20.1385   15.5773   21.5112 C   0  0  0  0  0  0  0  0  0  0  0  0
   20.4180   15.9567   20.5195 H   0  0  0  0  0  0  0  0  0  0  0  0
   20.5775   14.5779   21.6277 H   0  0  0  0  0  0  0  0  0  0  0  0
   19.0460   15.4734   21.5430 H   0  0  0  0  0  0  0  0  0  0  0  0
  1  2  1  0  0  0  0
  1  3  2  0  0  0  0
  1  4  1  0  0  0  0
  4  5  1  0  0  0  0
  4  6  1  0  0  0  0
  4  7  1  0  0  0  0
  7  8  1  0  0  0  0
  7  9  1  0  0  0  0
  7 10  1  0  0  0  0
 10 11  1  0  0  0  0
 10 12  1  0  0  0  0
 10 13  1  0  0  0  0
 13 14  1  0  0  0  0
 13 15  1  0  0  0  0
 13 16  1  0  0  0  0
 16 17  1  0  0  0  0
 16 18  1  0  0  0  0
 16 19  1  0  0  0  0
 19 20  1  0  0  0  0
 19 21  1  0  0  0  0
 19 22  1  0  0  0  0
 22 23  1  0  0  0  0
 22 24  1  0  0  0  0
 22 25  1  0  0  0  0
M  END
> <VConfSearch Rank>
644

> <Conf_Id>
54

> <Delta U+W>
-0.224

> <U+W>
-51.854

> <U>
7.816

> <W>
-59.670

> <W(PB)>
-62.157

> <W(SA)>
2.487

> <Valence>
7.785

> <Coulomb>
-0.713

> <VdW>
0.744

> <VdW6>
-8.515

> <VdW12>
9.259

> <Bond>
0.136

> <Angle>
2.433

> <Pdih>
5.215

> <Idih>
0.000

> <Tether>
0.000

$$$$
VeraChem MOL file


 25 24  0  0  0  0  0  0  0  0999 V2000     
   16.7327   18.7900   21.1326 C   0  0  0  0  0  0  0  0  0  0  0  0
   16.1889   17.7883   21.5545 O   0  5  0  0  0  0  0  0  0  0  0  0
   16.1683   19.8588   21.0054 O   0  0  0  0  0  0  0  0  0  0  0  0
   18.1997   18.6982   20.7219 C   0  0  0  0  0  0  0  0  0  0  0  0
   18.2978   19.1919   19.7479 H   0  0  0  0  0  0  0  0  0  0  0  0
   18.4558   17.6427   20.5699 H   0  0  0  0  0  0  0  0  0  0  0  0
   19.1811   19.3473   21.7324 C   0  0  0  0  0  0  0  0  0  0  0  0
   20.1801   19.3701   21.2792 H   0  0  0  0  0  0  0  0  0  0  0  0
   18.8868   20.3917   21.9054 H   0  0  0  0  0  0  0  0  0  0  0  0
   19.2351   18.5870   23.0796 C   0  0  0  0  0  0  0  0  0  0  0  0
   19.5735   17.5556   22.9108 H   0  0  0  0  0  0  0  0  0  0  0  0
   18.2194   18.5148   23.4920 H   0  0  0  0  0  0  0  0  0  0  0  0
   20.1401   19.2634   24.1372 C   0  0  0  0  0  0  0  0  0  0  0  0
   19.8130   20.3006   24.2917 H   0  0  0  0  0  0  0  0  0  0  0  0
   19.9898   18.7444   25.0922 H   0  0  0  0  0  0  0  0  0  0  0  0
   21.6448   19.2381   23.7711 C   0  0  0  0  0  0  0  0  0  0  0  0
   21.7988   19.7629   22.8200 H   0  0  0  0  0  0  0  0  0  0  0  0
   21.9701   18.2011   23.6117 H   0  0  0  0  0  0  0  0  0  0  0  0
   22.5472   19.9052   24.8356 C   0  0  0  0  0  0  0  0  0  0  0  0
   23.5700   19.9683   24.4393 H   0  0  0  0  0  0  0  0  0  0  0  0
   22.2170   20.9391   25.0070 H   0  0  0  0  0  0  0  0  0  0  0  0
   22.5832   19.1410   26.1772 C   0  0  0  0  0  0  0  0  0  0  0  0
   21.6055   19.1557   26.6744 H   0  0  0  0  0  0  0  0  0  0  0  0
   22.8774   18.0943   26.0255 H   0  0  0  0  0  0  0  0  0  0  0  0
   23.3092   19.6001   26.8605 H   0  0  0  0  0  0  0  0  0  0  0  0
  1  2  1  0  0  0  0
  1  3  2  0  0  0  0
  1  4  1  0  0  0  0
  4  5  1  0  0  0  0
  4  6  1  0  0  0  0
  4  7  1  0  0  0  0
  7  8  1  0  0  0  0
  7  9  1  0  0  0  0
  7 10  1  0  0  0  0
 10 11  1  0  0  0  0
 10 12  1  0  0  0  0
 10 13  1  0  0  0  0
 13 14  1  0  0  0  0
 13 15  1  0  0  0  0
 13 16  1  0  0  0  0
 16 17  1  0  0  0  0
 16 18  1  0  0  0  0
 16 19  1  0  0  0  0
 19 20  1  0  0  0  0
 19 21  1  0  0  0  0
 19 22  1  0  0  0  0
 22 23  1  0  0  0  0
 22 24  1  0  0  0  0
 22 25  1  0  0  0  0
M  END
> <VConfSearch Rank>
645

> <Conf_Id>
101

> <Delta U+W>
1.534

> <U+W>
-50.095

> <U>
9.416

> <W>
-59.512

> <W(PB)>
-61.988

> <W(SA)>
2.476

> <Valence>
8.939

> <Coulomb>
-0.615

> <VdW>
1.092

> <VdW6>
-9.710

> <VdW12>
10.802

> <Bond>
0.216

> <Angle>
2.979

> <Pdih>
5.743

> <Idih>
0.000

> <Tether>
0.000

$$$$
VeraChem MOL file


 25 24  0  0  0  0  0  0  0  0999 V2000     
   18.7579   18.6649   27.2068 C   0  0  0  0  0  0  0  0  0  0  0  0
   19.3852   19.4320   27.9102 O   0  5  0  0  0  0  0  0  0  0  0  0
   17.6933   18.1748   27.5279 O   0  0  0  0  0  0  0  0  0  0  0  0
   19.3268   18.3157   25.8362 C   0  0  0  0  0  0  0  0  0  0  0  0
   19.0184   17.2924   25.5908 H   0  0  0  0  0  0  0  0  0  0  0  0
   20.4192   18.3154   25.9201 H   0  0  0  0  0  0  0  0  0  0  0  0
   18.8618   19.2952   24.7272 C   0  0  0  0  0  0  0  0  0  0  0  0
   17.7641   19.3430   24.7389 H   0  0  0  0  0  0  0  0  0  0  0  0
   19.2183   20.3085   24.9583 H   0  0  0  0  0  0  0  0  0  0  0  0
   19.3232   18.8898   23.3068 C   0  0  0  0  0  0  0  0  0  0  0  0
   18.8297   19.5559   22.5877 H   0  0  0  0  0  0  0  0  0  0  0  0
   18.9741   17.8730   23.0817 H   0  0  0  0  0  0  0  0  0  0  0  0
   20.8571   18.9719   23.1110 C   0  0  0  0  0  0  0  0  0  0  0  0
   21.2060   19.9883   23.3351 H   0  0  0  0  0  0  0  0  0  0  0  0
   21.3535   18.3132   23.8345 H   0  0  0  0  0  0  0  0  0  0  0  0
   21.3230   18.5531   21.6933 C   0  0  0  0  0  0  0  0  0  0  0  0
   21.0407   17.5054   21.5216 H   0  0  0  0  0  0  0  0  0  0  0  0
   22.4208   18.5791   21.6634 H   0  0  0  0  0  0  0  0  0  0  0  0
   20.7737   19.4146   20.5291 C   0  0  0  0  0  0  0  0  0  0  0  0
   21.1700   19.0178   19.5844 H   0  0  0  0  0  0  0  0  0  0  0  0
   19.6823   19.3142   20.4642 H   0  0  0  0  0  0  0  0  0  0  0  0
   21.1542   20.9070   20.6387 C   0  0  0  0  0  0  0  0  0  0  0  0
   22.2413   21.0297   20.7291 H   0  0  0  0  0  0  0  0  0  0  0  0
   20.8244   21.4542   19.7462 H   0  0  0  0  0  0  0  0  0  0  0  0
   20.6802   21.3760   21.5101 H   0  0  0  0  0  0  0  0  0  0  0  0
  1  2  1  0  0  0  0
  1  3  2  0  0  0  0
  1  4  1  0  0  0  0
  4  5  1  0  0  0  0
  4  6  1  0  0  0  0
  4  7  1  0  0  0  0
  7  8  1  0  0  0  0
  7  9  1  0  0  0  0
  7 10  1  0  0  0  0
 10 11  1  0  0  0  0
 10 12  1  0  0  0  0
 10 13  1  0  0  0  0
 13 14  1  0  0  0  0
 13 15  1  0  0  0  0
 13 16  1  0  0  0  0
 16 17  1  0  0  0  0
 16 18  1  0  0  0  0
 16 19  1  0  0  0  0
 19 20  1  0  0  0  0
 19 21  1  0  0  0  0
 19 22  1  0  0  0  0
 22 23  1  0  0  0  0
 22 24  1  0  0  0  0
 22 25  1  0  0  0  0
M  END
> <VConfSearch Rank>
646

> <Conf_Id>
75

> <Delta U+W>
1.014

> <U+W>
-50.615

> <U>
8.474

> <W>
-59.089

> <W(PB)>
-61.530

> <W(SA)>
2.441

> <Valence>
9.080

> <Coulomb>
-1.772

> <VdW>
1.165

> <VdW6>
-9.830

> <VdW12>
10.996

> <Bond>
0.240

> <Angle>
3.225

> <Pdih>
5.615

> <Idih>
0.001

> <Tether>
0.000

$$$$
VeraChem MOL file


 25 24  0  0  0  0  0  0  0  0999 V2000     
   20.4541   16.7152   26.7111 C   0  0  0  0  0  0  0  0  0  0  0  0
   20.7198   17.4244   27.6614 O   0  5  0  0  0  0  0  0  0  0  0  0
   19.8961   15.6401   26.8084 O   0  0  0  0  0  0  0  0  0  0  0  0
   20.8219   17.2117   25.3174 C   0  0  0  0  0  0  0  0  0  0  0  0
   21.0603   16.3394   24.6970 H   0  0  0  0  0  0  0  0  0  0  0  0
   21.7366   17.8110   25.3997 H   0  0  0  0  0  0  0  0  0  0  0  0
   19.6947   18.0445   24.6586 C   0  0  0  0  0  0  0  0  0  0  0  0
   18.7826   17.4350   24.5953 H   0  0  0  0  0  0  0  0  0  0  0  0
   19.4591   18.9062   25.2985 H   0  0  0  0  0  0  0  0  0  0  0  0
   20.0918   18.5366   23.2500 C   0  0  0  0  0  0  0  0  0  0  0  0
   20.3268   17.6721   22.6141 H   0  0  0  0  0  0  0  0  0  0  0  0
   21.0085   19.1340   23.3198 H   0  0  0  0  0  0  0  0  0  0  0  0
   18.9605   19.3627   22.5938 C   0  0  0  0  0  0  0  0  0  0  0  0
   18.0719   18.7217   22.5130 H   0  0  0  0  0  0  0  0  0  0  0  0
   18.6744   20.2021   23.2421 H   0  0  0  0  0  0  0  0  0  0  0  0
   19.3210   19.8830   21.1790 C   0  0  0  0  0  0  0  0  0  0  0  0
   18.4123   19.8528   20.5625 H   0  0  0  0  0  0  0  0  0  0  0  0
   20.0338   19.2030   20.6929 H   0  0  0  0  0  0  0  0  0  0  0  0
   19.8606   21.3344   21.1418 C   0  0  0  0  0  0  0  0  0  0  0  0
   20.0044   21.6259   20.0923 H   0  0  0  0  0  0  0  0  0  0  0  0
   19.1040   22.0189   21.5496 H   0  0  0  0  0  0  0  0  0  0  0  0
   21.1912   21.5340   21.8968 C   0  0  0  0  0  0  0  0  0  0  0  0
   21.9492   20.8169   21.5561 H   0  0  0  0  0  0  0  0  0  0  0  0
   21.5810   22.5459   21.7265 H   0  0  0  0  0  0  0  0  0  0  0  0
   21.0545   21.4107   22.9784 H   0  0  0  0  0  0  0  0  0  0  0  0
  1  2  1  0  0  0  0
  1  3  2  0  0  0  0
  1  4  1  0  0  0  0
  4  5  1  0  0  0  0
  4  6  1  0  0  0  0
  4  7  1  0  0  0  0
  7  8  1  0  0  0  0
  7  9  1  0  0  0  0
  7 10  1  0  0  0  0
 10 11  1  0  0  0  0
 10 12  1  0  0  0  0
 10 13  1  0  0  0  0
 13 14  1  0  0  0  0
 13 15  1  0  0  0  0
 13 16  1  0  0  0  0
 16 17  1  0  0  0  0
 16 18  1  0  0  0  0
 16 19  1  0  0  0  0
 19 20  1  0  0  0  0
 19 21  1  0  0  0  0
 19 22  1  0  0  0  0
 22 23  1  0  0  0  0
 22 24  1  0  0  0  0
 22 25  1  0  0  0  0
M  END
> <VConfSearch Rank>
647

> <Conf_Id>
125

> <Delta U+W>
2.314

> <U+W>
-49.315

> <U>
9.740

> <W>
-59.054

> <W(PB)>
-61.488

> <W(SA)>
2.433

> <Valence>
10.506

> <Coulomb>
-1.761

> <VdW>
0.994

> <VdW6>
-9.209

> <VdW12>
10.203

> <Bond>
0.193

> <Angle>
2.979

> <Pdih>
7.334

> <Idih>
0.001

> <Tether>
0.000

$$$$
VeraChem MOL file


 25 24  0  0  0  0  0  0  0  0999 V2000     
   17.6530   16.6168   25.3812 C   0  0  0  0  0  0  0  0  0  0  0  0
   16.5309   17.0562   25.2250 O   0  5  0  0  0  0  0  0  0  0  0  0
   17.9195   15.7053   26.1394 O   0  0  0  0  0  0  0  0  0  0  0  0
   18.7935   17.2605   24.6010 C   0  0  0  0  0  0  0  0  0  0  0  0
   18.3931   17.5868   23.6346 H   0  0  0  0  0  0  0  0  0  0  0  0
   19.5453   16.4884   24.3983 H   0  0  0  0  0  0  0  0  0  0  0  0
   19.4393   18.4514   25.3560 C   0  0  0  0  0  0  0  0  0  0  0  0
   18.6880   19.2379   25.5116 H   0  0  0  0  0  0  0  0  0  0  0  0
   19.7438   18.1115   26.3556 H   0  0  0  0  0  0  0  0  0  0  0  0
   20.6746   19.0432   24.6363 C   0  0  0  0  0  0  0  0  0  0  0  0
   21.4277   18.2567   24.4909 H   0  0  0  0  0  0  0  0  0  0  0  0
   21.1331   19.7948   25.2934 H   0  0  0  0  0  0  0  0  0  0  0  0
   20.3387   19.7000   23.2773 C   0  0  0  0  0  0  0  0  0  0  0  0
   19.9431   18.9419   22.5907 H   0  0  0  0  0  0  0  0  0  0  0  0
   19.5500   20.4515   23.4179 H   0  0  0  0  0  0  0  0  0  0  0  0
   21.5816   20.3685   22.6453 C   0  0  0  0  0  0  0  0  0  0  0  0
   22.3552   19.6107   22.4601 H   0  0  0  0  0  0  0  0  0  0  0  0
   22.0095   21.0805   23.3641 H   0  0  0  0  0  0  0  0  0  0  0  0
   21.2727   21.1241   21.3317 C   0  0  0  0  0  0  0  0  0  0  0  0
   20.5031   21.8867   21.5146 H   0  0  0  0  0  0  0  0  0  0  0  0
   22.1757   21.6644   21.0155 H   0  0  0  0  0  0  0  0  0  0  0  0
   20.8217   20.1958   20.1831 C   0  0  0  0  0  0  0  0  0  0  0  0
   19.8578   19.7215   20.4061 H   0  0  0  0  0  0  0  0  0  0  0  0
   20.7035   20.7661   19.2527 H   0  0  0  0  0  0  0  0  0  0  0  0
   21.5617   19.4051   20.0032 H   0  0  0  0  0  0  0  0  0  0  0  0
  1  2  1  0  0  0  0
  1  3  2  0  0  0  0
  1  4  1  0  0  0  0
  4  5  1  0  0  0  0
  4  6  1  0  0  0  0
  4  7  1  0  0  0  0
  7  8  1  0  0  0  0
  7  9  1  0  0  0  0
  7 10  1  0  0  0  0
 10 11  1  0  0  0  0
 10 12  1  0  0  0  0
 10 13  1  0  0  0  0
 13 14  1  0  0  0  0
 13 15  1  0  0  0  0
 13 16  1  0  0  0  0
 16 17  1  0  0  0  0
 16 18  1  0  0  0  0
 16 19  1  0  0  0  0
 19 20  1  0  0  0  0
 19 21  1  0  0  0  0
 19 22  1  0  0  0  0
 22 23  1  0  0  0  0
 22 24  1  0  0  0  0
 22 25  1  0  0  0  0
M  END
> <VConfSearch Rank>
648

> <Conf_Id>
4

> <Delta U+W>
0.189

> <U+W>
-51.441

> <U>
7.701

> <W>
-59.141

> <W(PB)>
-61.609

> <W(SA)>
2.467

> <Valence>
8.550

> <Coulomb>
-1.988

> <VdW>
1.139

> <VdW6>
-8.988

> <VdW12>
10.127

> <Bond>
0.191

> <Angle>
2.738

> <Pdih>
5.621

> <Idih>
0.001

> <Tether>
0.000

$$$$
VeraChem MOL file


 25 24  0  0  0  0  0  0  0  0999 V2000     
   21.9845   22.7362   22.5896 C   0  0  0  0  0  0  0  0  0  0  0  0
   21.3077   23.5919   23.1249 O   0  5  0  0  0  0  0  0  0  0  0  0
   23.0766   22.9496   22.1012 O   0  0  0  0  0  0  0  0  0  0  0  0
   21.4442   21.3113   22.5494 C   0  0  0  0  0  0  0  0  0  0  0  0
   21.8172   20.8318   21.6365 H   0  0  0  0  0  0  0  0  0  0  0  0
   20.3535   21.3712   22.4636 H   0  0  0  0  0  0  0  0  0  0  0  0
   21.8504   20.4807   23.7946 C   0  0  0  0  0  0  0  0  0  0  0  0
   22.9430   20.5206   23.9038 H   0  0  0  0  0  0  0  0  0  0  0  0
   21.4314   20.9452   24.6980 H   0  0  0  0  0  0  0  0  0  0  0  0
   21.4138   18.9982   23.7184 C   0  0  0  0  0  0  0  0  0  0  0  0
   21.8423   18.4648   24.5780 H   0  0  0  0  0  0  0  0  0  0  0  0
   21.8423   18.5341   22.8196 H   0  0  0  0  0  0  0  0  0  0  0  0
   19.8792   18.8079   23.7215 C   0  0  0  0  0  0  0  0  0  0  0  0
   19.4482   19.3155   24.5950 H   0  0  0  0  0  0  0  0  0  0  0  0
   19.4489   19.2793   22.8297 H   0  0  0  0  0  0  0  0  0  0  0  0
   19.4912   17.3113   23.7508 C   0  0  0  0  0  0  0  0  0  0  0  0
   19.9777   16.8322   24.6113 H   0  0  0  0  0  0  0  0  0  0  0  0
   19.8813   16.8104   22.8542 H   0  0  0  0  0  0  0  0  0  0  0  0
   17.9666   17.0729   23.8543 C   0  0  0  0  0  0  0  0  0  0  0  0
   17.7867   15.9975   23.9893 H   0  0  0  0  0  0  0  0  0  0  0  0
   17.5738   17.5683   24.7530 H   0  0  0  0  0  0  0  0  0  0  0  0
   17.1860   17.5551   22.6123 C   0  0  0  0  0  0  0  0  0  0  0  0
   17.5822   17.0968   21.6968 H   0  0  0  0  0  0  0  0  0  0  0  0
   16.1261   17.2821   22.6954 H   0  0  0  0  0  0  0  0  0  0  0  0
   17.2400   18.6454   22.5032 H   0  0  0  0  0  0  0  0  0  0  0  0
  1  2  1  0  0  0  0
  1  3  2  0  0  0  0
  1  4  1  0  0  0  0
  4  5  1  0  0  0  0
  4  6  1  0  0  0  0
  4  7  1  0  0  0  0
  7  8  1  0  0  0  0
  7  9  1  0  0  0  0
  7 10  1  0  0  0  0
 10 11  1  0  0  0  0
 10 12  1  0  0  0  0
 10 13  1  0  0  0  0
 13 14  1  0  0  0  0
 13 15  1  0  0  0  0
 13 16  1  0  0  0  0
 16 17  1  0  0  0  0
 16 18  1  0  0  0  0
 16 19  1  0  0  0  0
 19 20  1  0  0  0  0
 19 21  1  0  0  0  0
 19 22  1  0  0  0  0
 22 23  1  0  0  0  0
 22 24  1  0  0  0  0
 22 25  1  0  0  0  0
M  END
> <VConfSearch Rank>
649

> <Conf_Id>
17

> <Delta U+W>
0.219

> <U+W>
-51.411

> <U>
7.701

> <W>
-59.111

> <W(PB)>
-61.599

> <W(SA)>
2.488

> <Valence>
8.550

> <Coulomb>
-1.988

> <VdW>
1.139

> <VdW6>
-8.988

> <VdW12>
10.127

> <Bond>
0.191

> <Angle>
2.738

> <Pdih>
5.621

> <Idih>
0.001

> <Tether>
0.000

$$$$
VeraChem MOL file


 25 24  0  0  0  0  0  0  0  0999 V2000     
   21.7822   16.0783   24.1404 C   0  0  0  0  0  0  0  0  0  0  0  0
   22.6533   15.8797   23.3165 O   0  5  0  0  0  0  0  0  0  0  0  0
   20.8086   15.3635   24.2758 O   0  0  0  0  0  0  0  0  0  0  0  0
   21.9265   17.2799   25.0700 C   0  0  0  0  0  0  0  0  0  0  0  0
   22.9773   17.5939   25.0755 H   0  0  0  0  0  0  0  0  0  0  0  0
   21.6917   16.9396   26.0854 H   0  0  0  0  0  0  0  0  0  0  0  0
   21.0109   18.4755   24.6995 C   0  0  0  0  0  0  0  0  0  0  0  0
   19.9681   18.1322   24.6816 H   0  0  0  0  0  0  0  0  0  0  0  0
   21.0817   19.2369   25.4878 H   0  0  0  0  0  0  0  0  0  0  0  0
   21.3884   19.1109   23.3399 C   0  0  0  0  0  0  0  0  0  0  0  0
   21.2528   18.3763   22.5341 H   0  0  0  0  0  0  0  0  0  0  0  0
   22.4571   19.3653   23.3493 H   0  0  0  0  0  0  0  0  0  0  0  0
   20.5817   20.3898   23.0124 C   0  0  0  0  0  0  0  0  0  0  0  0
   20.7229   21.1292   23.8125 H   0  0  0  0  0  0  0  0  0  0  0  0
   20.9961   20.8377   22.0988 H   0  0  0  0  0  0  0  0  0  0  0  0
   19.0719   20.1291   22.8036 C   0  0  0  0  0  0  0  0  0  0  0  0
   18.6249   19.7513   23.7322 H   0  0  0  0  0  0  0  0  0  0  0  0
   18.9361   19.3494   22.0416 H   0  0  0  0  0  0  0  0  0  0  0  0
   18.3268   21.4089   22.3695 C   0  0  0  0  0  0  0  0  0  0  0  0
   18.4623   22.1915   23.1288 H   0  0  0  0  0  0  0  0  0  0  0  0
   18.7605   21.7919   21.4353 H   0  0  0  0  0  0  0  0  0  0  0  0
   16.8208   21.1481   22.1653 C   0  0  0  0  0  0  0  0  0  0  0  0
   16.3540   20.7944   23.0939 H   0  0  0  0  0  0  0  0  0  0  0  0
   16.3072   22.0679   21.8567 H   0  0  0  0  0  0  0  0  0  0  0  0
   16.6553   20.3905   21.3882 H   0  0  0  0  0  0  0  0  0  0  0  0
  1  2  1  0  0  0  0
  1  3  2  0  0  0  0
  1  4  1  0  0  0  0
  4  5  1  0  0  0  0
  4  6  1  0  0  0  0
  4  7  1  0  0  0  0
  7  8  1  0  0  0  0
  7  9  1  0  0  0  0
  7 10  1  0  0  0  0
 10 11  1  0  0  0  0
 10 12  1  0  0  0  0
 10 13  1  0  0  0  0
 13 14  1  0  0  0  0
 13 15  1  0  0  0  0
 13 16  1  0  0  0  0
 16 17  1  0  0  0  0
 16 18  1  0  0  0  0
 16 19  1  0  0  0  0
 19 20  1  0  0  0  0
 19 21  1  0  0  0  0
 19 22  1  0  0  0  0
 22 23  1  0  0  0  0
 22 24  1  0  0  0  0
 22 25  1  0  0  0  0
M  END
> <VConfSearch Rank>
650

> <Conf_Id>
142

> <Delta U+W>
0.593

> <U+W>
-51.037

> <U>
8.903

> <W>
-59.940

> <W(PB)>
-62.418

> <W(SA)>
2.478

> <Valence>
8.305

> <Coulomb>
-0.223

> <VdW>
0.821

> <VdW6>
-9.236

> <VdW12>
10.057

> <Bond>
0.173

> <Angle>
2.663

> <Pdih>
5.469

> <Idih>
0.001

> <Tether>
0.000

$$$$
VeraChem MOL file


 25 24  0  0  0  0  0  0  0  0999 V2000     
   23.7674   19.1815   23.3710 C   0  0  0  0  0  0  0  0  0  0  0  0
   24.6960   19.4720   24.0995 O   0  5  0  0  0  0  0  0  0  0  0  0
   23.7389   18.1778   22.6863 O   0  0  0  0  0  0  0  0  0  0  0  0
   22.5867   20.1453   23.2931 C   0  0  0  0  0  0  0  0  0  0  0  0
   21.9850   19.8934   22.4122 H   0  0  0  0  0  0  0  0  0  0  0  0
   22.9944   21.1470   23.1146 H   0  0  0  0  0  0  0  0  0  0  0  0
   21.7029   20.1697   24.5699 C   0  0  0  0  0  0  0  0  0  0  0  0
   22.3207   20.4918   25.4194 H   0  0  0  0  0  0  0  0  0  0  0  0
   20.9250   20.9358   24.4568 H   0  0  0  0  0  0  0  0  0  0  0  0
   21.0478   18.8088   24.9218 C   0  0  0  0  0  0  0  0  0  0  0  0
   20.4533   18.9300   25.8375 H   0  0  0  0  0  0  0  0  0  0  0  0
   21.8370   18.0854   25.1684 H   0  0  0  0  0  0  0  0  0  0  0  0
   20.1481   18.2017   23.8162 C   0  0  0  0  0  0  0  0  0  0  0  0
   20.7522   17.9696   22.9288 H   0  0  0  0  0  0  0  0  0  0  0  0
   19.7591   17.2401   24.1775 H   0  0  0  0  0  0  0  0  0  0  0  0
   18.9596   19.1077   23.4196 C   0  0  0  0  0  0  0  0  0  0  0  0
   19.3329   20.0456   22.9883 H   0  0  0  0  0  0  0  0  0  0  0  0
   18.3844   19.3726   24.3172 H   0  0  0  0  0  0  0  0  0  0  0  0
   18.0322   18.4170   22.3976 C   0  0  0  0  0  0  0  0  0  0  0  0
   18.6063   18.1486   21.4999 H   0  0  0  0  0  0  0  0  0  0  0  0
   17.6458   17.4798   22.8216 H   0  0  0  0  0  0  0  0  0  0  0  0
   16.8508   19.3240   21.9985 C   0  0  0  0  0  0  0  0  0  0  0  0
   17.2082   20.2561   21.5416 H   0  0  0  0  0  0  0  0  0  0  0  0
   16.2022   18.8173   21.2721 H   0  0  0  0  0  0  0  0  0  0  0  0
   16.2414   19.5831   22.8742 H   0  0  0  0  0  0  0  0  0  0  0  0
  1  2  1  0  0  0  0
  1  3  2  0  0  0  0
  1  4  1  0  0  0  0
  4  5  1  0  0  0  0
  4  6  1  0  0  0  0
  4  7  1  0  0  0  0
  7  8  1  0  0  0  0
  7  9  1  0  0  0  0
  7 10  1  0  0  0  0
 10 11  1  0  0  0  0
 10 12  1  0  0  0  0
 10 13  1  0  0  0  0
 13 14  1  0  0  0  0
 13 15  1  0  0  0  0
 13 16  1  0  0  0  0
 16 17  1  0  0  0  0
 16 18  1  0  0  0  0
 16 19  1  0  0  0  0
 19 20  1  0  0  0  0
 19 21  1  0  0  0  0
 19 22  1  0  0  0  0
 22 23  1  0  0  0  0
 22 24  1  0  0  0  0
 22 25  1  0  0  0  0
M  END
> <VConfSearch Rank>
651

> <Conf_Id>
135

> <Delta U+W>
1.314

> <U+W>
-50.316

> <U>
9.773

> <W>
-60.088

> <W(PB)>
-62.535

> <W(SA)>
2.447

> <Valence>
8.741

> <Coulomb>
0.479

> <VdW>
0.552

> <VdW6>
-10.627

> <VdW12>
11.179

> <Bond>
0.227

> <Angle>
3.155

> <Pdih>
5.358

> <Idih>
0.001

> <Tether>
0.000

$$$$
VeraChem MOL file


 25 24  0  0  0  0  0  0  0  0999 V2000     
   24.1989   20.1334   23.1233 C   0  0  0  0  0  0  0  0  0  0  0  0
   24.8252   19.4572   22.3314 O   0  5  0  0  0  0  0  0  0  0  0  0
   24.5913   21.1987   23.5567 O   0  0  0  0  0  0  0  0  0  0  0  0
   22.8352   19.6285   23.5810 C   0  0  0  0  0  0  0  0  0  0  0  0
   22.6710   19.9768   24.6076 H   0  0  0  0  0  0  0  0  0  0  0  0
   22.8794   18.5343   23.6117 H   0  0  0  0  0  0  0  0  0  0  0  0
   21.6803   20.1066   22.6626 C   0  0  0  0  0  0  0  0  0  0  0  0
   21.7294   21.2012   22.5797 H   0  0  0  0  0  0  0  0  0  0  0  0
   21.8290   19.7123   21.6478 H   0  0  0  0  0  0  0  0  0  0  0  0
   20.2744   19.7138   23.1765 C   0  0  0  0  0  0  0  0  0  0  0  0
   19.5324   20.2259   22.5510 H   0  0  0  0  0  0  0  0  0  0  0  0
   20.1373   20.0873   24.2004 H   0  0  0  0  0  0  0  0  0  0  0  0
   20.0049   18.1907   23.1321 C   0  0  0  0  0  0  0  0  0  0  0  0
   20.0860   17.8364   22.0955 H   0  0  0  0  0  0  0  0  0  0  0  0
   20.7817   17.6636   23.6997 H   0  0  0  0  0  0  0  0  0  0  0  0
   18.6304   17.7719   23.7125 C   0  0  0  0  0  0  0  0  0  0  0  0
   18.5748   18.0383   24.7769 H   0  0  0  0  0  0  0  0  0  0  0  0
   18.5776   16.6752   23.6771 H   0  0  0  0  0  0  0  0  0  0  0  0
   17.4044   18.3377   22.9529 C   0  0  0  0  0  0  0  0  0  0  0  0
   17.6648   18.5390   21.9046 H   0  0  0  0  0  0  0  0  0  0  0  0
   16.6195   17.5690   22.9299 H   0  0  0  0  0  0  0  0  0  0  0  0
   16.8132   19.6042   23.6113 C   0  0  0  0  0  0  0  0  0  0  0  0
   17.5447   20.4189   23.6590 H   0  0  0  0  0  0  0  0  0  0  0  0
   15.9465   19.9642   23.0420 H   0  0  0  0  0  0  0  0  0  0  0  0
   16.4774   19.3912   24.6345 H   0  0  0  0  0  0  0  0  0  0  0  0
  1  2  1  0  0  0  0
  1  3  2  0  0  0  0
  1  4  1  0  0  0  0
  4  5  1  0  0  0  0
  4  6  1  0  0  0  0
  4  7  1  0  0  0  0
  7  8  1  0  0  0  0
  7  9  1  0  0  0  0
  7 10  1  0  0  0  0
 10 11  1  0  0  0  0
 10 12  1  0  0  0  0
 10 13  1  0  0  0  0
 13 14  1  0  0  0  0
 13 15  1  0  0  0  0
 13 16  1  0  0  0  0
 16 17  1  0  0  0  0
 16 18  1  0  0  0  0
 16 19  1  0  0  0  0
 19 20  1  0  0  0  0
 19 21  1  0  0  0  0
 19 22  1  0  0  0  0
 22 23  1  0  0  0  0
 22 24  1  0  0  0  0
 22 25  1  0  0  0  0
M  END
> <VConfSearch Rank>
652

> <Conf_Id>
19

> <Delta U+W>
3.222

> <U+W>
-48.407

> <U>
10.617

> <W>
-59.025

> <W(PB)>
-61.462

> <W(SA)>
2.437

> <Valence>
11.188

> <Coulomb>
-1.778

> <VdW>
1.208

> <VdW6>
-9.786

> <VdW12>
10.993

> <Bond>
0.241

> <Angle>
3.294

> <Pdih>
7.653

> <Idih>
0.001

> <Tether>
0.000

$$$$
VeraChem MOL file


 25 24  0  0  0  0  0  0  0  0999 V2000     
   19.9855   22.0038   20.1174 C   0  0  0  0  0  0  0  0  0  0  0  0
   20.2638   21.5307   19.0332 O   0  5  0  0  0  0  0  0  0  0  0  0
   20.0368   23.1921   20.3664 O   0  0  0  0  0  0  0  0  0  0  0  0
   19.5716   21.0517   21.2338 C   0  0  0  0  0  0  0  0  0  0  0  0
   19.0324   20.2159   20.7746 H   0  0  0  0  0  0  0  0  0  0  0  0
   18.8632   21.5784   21.8842 H   0  0  0  0  0  0  0  0  0  0  0  0
   20.7787   20.5388   22.0619 C   0  0  0  0  0  0  0  0  0  0  0  0
   21.4579   19.9715   21.4107 H   0  0  0  0  0  0  0  0  0  0  0  0
   21.3487   21.4058   22.4235 H   0  0  0  0  0  0  0  0  0  0  0  0
   20.3742   19.6724   23.2788 C   0  0  0  0  0  0  0  0  0  0  0  0
   19.6755   20.2322   23.9153 H   0  0  0  0  0  0  0  0  0  0  0  0
   21.2753   19.4940   23.8790 H   0  0  0  0  0  0  0  0  0  0  0  0
   19.7526   18.3106   22.8870 C   0  0  0  0  0  0  0  0  0  0  0  0
   18.8895   18.4762   22.2305 H   0  0  0  0  0  0  0  0  0  0  0  0
   20.4803   17.7333   22.3007 H   0  0  0  0  0  0  0  0  0  0  0  0
   19.2732   17.4615   24.0914 C   0  0  0  0  0  0  0  0  0  0  0  0
   18.8060   16.5523   23.6890 H   0  0  0  0  0  0  0  0  0  0  0  0
   18.4766   17.9912   24.6316 H   0  0  0  0  0  0  0  0  0  0  0  0
   20.3937   17.0334   25.0720 C   0  0  0  0  0  0  0  0  0  0  0  0
   20.1846   16.0128   25.4210 H   0  0  0  0  0  0  0  0  0  0  0  0
   21.3594   16.9854   24.5503 H   0  0  0  0  0  0  0  0  0  0  0  0
   20.4988   17.9497   26.3116 C   0  0  0  0  0  0  0  0  0  0  0  0
   19.5616   17.9415   26.8832 H   0  0  0  0  0  0  0  0  0  0  0  0
   21.3007   17.6050   26.9772 H   0  0  0  0  0  0  0  0  0  0  0  0
   20.7161   18.9877   26.0348 H   0  0  0  0  0  0  0  0  0  0  0  0
  1  2  1  0  0  0  0
  1  3  2  0  0  0  0
  1  4  1  0  0  0  0
  4  5  1  0  0  0  0
  4  6  1  0  0  0  0
  4  7  1  0  0  0  0
  7  8  1  0  0  0  0
  7  9  1  0  0  0  0
  7 10  1  0  0  0  0
 10 11  1  0  0  0  0
 10 12  1  0  0  0  0
 10 13  1  0  0  0  0
 13 14  1  0  0  0  0
 13 15  1  0  0  0  0
 13 16  1  0  0  0  0
 16 17  1  0  0  0  0
 16 18  1  0  0  0  0
 16 19  1  0  0  0  0
 19 20  1  0  0  0  0
 19 21  1  0  0  0  0
 19 22  1  0  0  0  0
 22 23  1  0  0  0  0
 22 24  1  0  0  0  0
 22 25  1  0  0  0  0
M  END
> <VConfSearch Rank>
653

> <Conf_Id>
20

> <Delta U+W>
3.224

> <U+W>
-48.406

> <U>
10.617

> <W>
-59.023

> <W(PB)>
-61.467

> <W(SA)>
2.444

> <Valence>
11.188

> <Coulomb>
-1.778

> <VdW>
1.208

> <VdW6>
-9.786

> <VdW12>
10.993

> <Bond>
0.241

> <Angle>
3.294

> <Pdih>
7.653

> <Idih>
0.001

> <Tether>
0.000

$$$$
VeraChem MOL file


 25 24  0  0  0  0  0  0  0  0999 V2000     
   21.4274   17.2018   21.6677 C   0  0  0  0  0  0  0  0  0  0  0  0
   22.4915   16.9738   22.2094 O   0  5  0  0  0  0  0  0  0  0  0  0
   21.3053   17.9494   20.7172 O   0  0  0  0  0  0  0  0  0  0  0  0
   20.1876   16.4602   22.1640 C   0  0  0  0  0  0  0  0  0  0  0  0
   20.3726   15.3952   21.9824 H   0  0  0  0  0  0  0  0  0  0  0  0
   19.3307   16.7408   21.5398 H   0  0  0  0  0  0  0  0  0  0  0  0
   19.8492   16.6657   23.6675 C   0  0  0  0  0  0  0  0  0  0  0  0
   19.2038   15.8360   23.9862 H   0  0  0  0  0  0  0  0  0  0  0  0
   20.7637   16.5861   24.2715 H   0  0  0  0  0  0  0  0  0  0  0  0
   19.1117   17.9885   23.9924 C   0  0  0  0  0  0  0  0  0  0  0  0
   18.7935   17.9532   25.0434 H   0  0  0  0  0  0  0  0  0  0  0  0
   18.1929   18.0562   23.3940 H   0  0  0  0  0  0  0  0  0  0  0  0
   19.9675   19.2569   23.7752 C   0  0  0  0  0  0  0  0  0  0  0  0
   20.9317   19.1440   24.2897 H   0  0  0  0  0  0  0  0  0  0  0  0
   20.1855   19.3810   22.7070 H   0  0  0  0  0  0  0  0  0  0  0  0
   19.2513   20.5243   24.2903 C   0  0  0  0  0  0  0  0  0  0  0  0
   19.0351   20.4151   25.3619 H   0  0  0  0  0  0  0  0  0  0  0  0
   18.2853   20.6329   23.7782 H   0  0  0  0  0  0  0  0  0  0  0  0
   20.1001   21.7930   24.0635 C   0  0  0  0  0  0  0  0  0  0  0  0
   21.0669   21.6879   24.5751 H   0  0  0  0  0  0  0  0  0  0  0  0
   20.3170   21.9065   22.9922 H   0  0  0  0  0  0  0  0  0  0  0  0
   19.3822   23.0568   24.5782 C   0  0  0  0  0  0  0  0  0  0  0  0
   19.1812   22.9833   25.6550 H   0  0  0  0  0  0  0  0  0  0  0  0
   19.9997   23.9485   24.4088 H   0  0  0  0  0  0  0  0  0  0  0  0
   18.4255   23.2036   24.0600 H   0  0  0  0  0  0  0  0  0  0  0  0
  1  2  1  0  0  0  0
  1  3  2  0  0  0  0
  1  4  1  0  0  0  0
  4  5  1  0  0  0  0
  4  6  1  0  0  0  0
  4  7  1  0  0  0  0
  7  8  1  0  0  0  0
  7  9  1  0  0  0  0
  7 10  1  0  0  0  0
 10 11  1  0  0  0  0
 10 12  1  0  0  0  0
 10 13  1  0  0  0  0
 13 14  1  0  0  0  0
 13 15  1  0  0  0  0
 13 16  1  0  0  0  0
 16 17  1  0  0  0  0
 16 18  1  0  0  0  0
 16 19  1  0  0  0  0
 19 20  1  0  0  0  0
 19 21  1  0  0  0  0
 19 22  1  0  0  0  0
 22 23  1  0  0  0  0
 22 24  1  0  0  0  0
 22 25  1  0  0  0  0
M  END
> <VConfSearch Rank>
654

> <Conf_Id>
24

> <Delta U+W>
1.784

> <U+W>
-49.846

> <U>
10.904

> <W>
-60.749

> <W(PB)>
-63.220

> <W(SA)>
2.471

> <Valence>
9.445

> <Coulomb>
0.780

> <VdW>
0.679

> <VdW6>
-10.008

> <VdW12>
10.687

> <Bond>
0.201

> <Angle>
3.198

> <Pdih>
6.039

> <Idih>
0.006

> <Tether>
0.000

$$$$
VeraChem MOL file


 25 24  0  0  0  0  0  0  0  0999 V2000     
   18.3036   16.4232   24.0492 C   0  0  0  0  0  0  0  0  0  0  0  0
   18.3261   16.2069   25.2452 O   0  5  0  0  0  0  0  0  0  0  0  0
   17.3718   16.9593   23.4820 O   0  0  0  0  0  0  0  0  0  0  0  0
   19.4780   15.9366   23.2022 C   0  0  0  0  0  0  0  0  0  0  0  0
   19.2764   16.1647   22.1486 H   0  0  0  0  0  0  0  0  0  0  0  0
   19.4892   14.8440   23.2900 H   0  0  0  0  0  0  0  0  0  0  0  0
   20.8698   16.4917   23.6168 C   0  0  0  0  0  0  0  0  0  0  0  0
   20.9799   16.4488   24.7093 H   0  0  0  0  0  0  0  0  0  0  0  0
   21.6377   15.8202   23.2096 H   0  0  0  0  0  0  0  0  0  0  0  0
   21.1765   17.9222   23.1081 C   0  0  0  0  0  0  0  0  0  0  0  0
   21.0764   17.9551   22.0146 H   0  0  0  0  0  0  0  0  0  0  0  0
   22.2295   18.1449   23.3283 H   0  0  0  0  0  0  0  0  0  0  0  0
   20.2934   19.0199   23.7435 C   0  0  0  0  0  0  0  0  0  0  0  0
   19.2512   18.8901   23.4258 H   0  0  0  0  0  0  0  0  0  0  0  0
   20.3114   18.9205   24.8375 H   0  0  0  0  0  0  0  0  0  0  0  0
   20.7656   20.4350   23.3445 C   0  0  0  0  0  0  0  0  0  0  0  0
   20.7516   20.5309   22.2502 H   0  0  0  0  0  0  0  0  0  0  0  0
   21.8063   20.5797   23.6653 H   0  0  0  0  0  0  0  0  0  0  0  0
   19.8776   21.5315   23.9692 C   0  0  0  0  0  0  0  0  0  0  0  0
   18.8358   21.3910   23.6491 H   0  0  0  0  0  0  0  0  0  0  0  0
   19.8899   21.4388   25.0641 H   0  0  0  0  0  0  0  0  0  0  0  0
   20.3512   22.9433   23.5688 C   0  0  0  0  0  0  0  0  0  0  0  0
   20.3186   23.0741   22.4792 H   0  0  0  0  0  0  0  0  0  0  0  0
   19.7087   23.7097   24.0215 H   0  0  0  0  0  0  0  0  0  0  0  0
   21.3808   23.1222   23.9051 H   0  0  0  0  0  0  0  0  0  0  0  0
  1  2  1  0  0  0  0
  1  3  2  0  0  0  0
  1  4  1  0  0  0  0
  4  5  1  0  0  0  0
  4  6  1  0  0  0  0
  4  7  1  0  0  0  0
  7  8  1  0  0  0  0
  7  9  1  0  0  0  0
  7 10  1  0  0  0  0
 10 11  1  0  0  0  0
 10 12  1  0  0  0  0
 10 13  1  0  0  0  0
 13 14  1  0  0  0  0
 13 15  1  0  0  0  0
 13 16  1  0  0  0  0
 16 17  1  0  0  0  0
 16 18  1  0  0  0  0
 16 19  1  0  0  0  0
 19 20  1  0  0  0  0
 19 21  1  0  0  0  0
 19 22  1  0  0  0  0
 22 23  1  0  0  0  0
 22 24  1  0  0  0  0
 22 25  1  0  0  0  0
M  END
> <VConfSearch Rank>
655

> <Conf_Id>
9

> <Delta U+W>
1.764

> <U+W>
-49.865

> <U>
10.902

> <W>
-60.768

> <W(PB)>
-63.223

> <W(SA)>
2.456

> <Valence>
9.445

> <Coulomb>
0.778

> <VdW>
0.679

> <VdW6>
-10.007

> <VdW12>
10.687

> <Bond>
0.201

> <Angle>
3.198

> <Pdih>
6.040

> <Idih>
0.006

> <Tether>
0.000

$$$$
VeraChem MOL file


 25 24  0  0  0  0  0  0  0  0999 V2000     
   17.2351   21.4833   24.2228 C   0  0  0  0  0  0  0  0  0  0  0  0
   17.3442   21.2494   25.4102 O   0  5  0  0  0  0  0  0  0  0  0  0
   16.6213   22.4329   23.7772 O   0  0  0  0  0  0  0  0  0  0  0  0
   17.9233   20.5453   23.2378 C   0  0  0  0  0  0  0  0  0  0  0  0
   17.3135   20.5048   22.3274 H   0  0  0  0  0  0  0  0  0  0  0  0
   17.9157   19.5407   23.6715 H   0  0  0  0  0  0  0  0  0  0  0  0
   19.3674   20.9947   22.8910 C   0  0  0  0  0  0  0  0  0  0  0  0
   19.3118   22.0018   22.4549 H   0  0  0  0  0  0  0  0  0  0  0  0
   19.9641   21.0918   23.8086 H   0  0  0  0  0  0  0  0  0  0  0  0
   20.0811   20.0577   21.8836 C   0  0  0  0  0  0  0  0  0  0  0  0
   20.7209   20.6748   21.2380 H   0  0  0  0  0  0  0  0  0  0  0  0
   19.3477   19.5874   21.2145 H   0  0  0  0  0  0  0  0  0  0  0  0
   20.9812   18.9763   22.5326 C   0  0  0  0  0  0  0  0  0  0  0  0
   21.4975   18.4309   21.7309 H   0  0  0  0  0  0  0  0  0  0  0  0
   21.7634   19.4696   23.1244 H   0  0  0  0  0  0  0  0  0  0  0  0
   20.2185   17.9628   23.4182 C   0  0  0  0  0  0  0  0  0  0  0  0
   19.3451   17.5893   22.8667 H   0  0  0  0  0  0  0  0  0  0  0  0
   19.8371   18.4674   24.3155 H   0  0  0  0  0  0  0  0  0  0  0  0
   21.0830   16.7551   23.8490 C   0  0  0  0  0  0  0  0  0  0  0  0
   20.4462   16.0393   24.3870 H   0  0  0  0  0  0  0  0  0  0  0  0
   21.4568   16.2298   22.9593 H   0  0  0  0  0  0  0  0  0  0  0  0
   22.2688   17.1475   24.7568 C   0  0  0  0  0  0  0  0  0  0  0  0
   21.9211   17.6967   25.6415 H   0  0  0  0  0  0  0  0  0  0  0  0
   22.8011   16.2518   25.1023 H   0  0  0  0  0  0  0  0  0  0  0  0
   22.9905   17.7776   24.2220 H   0  0  0  0  0  0  0  0  0  0  0  0
  1  2  1  0  0  0  0
  1  3  2  0  0  0  0
  1  4  1  0  0  0  0
  4  5  1  0  0  0  0
  4  6  1  0  0  0  0
  4  7  1  0  0  0  0
  7  8  1  0  0  0  0
  7  9  1  0  0  0  0
  7 10  1  0  0  0  0
 10 11  1  0  0  0  0
 10 12  1  0  0  0  0
 10 13  1  0  0  0  0
 13 14  1  0  0  0  0
 13 15  1  0  0  0  0
 13 16  1  0  0  0  0
 16 17  1  0  0  0  0
 16 18  1  0  0  0  0
 16 19  1  0  0  0  0
 19 20  1  0  0  0  0
 19 21  1  0  0  0  0
 19 22  1  0  0  0  0
 22 23  1  0  0  0  0
 22 24  1  0  0  0  0
 22 25  1  0  0  0  0
M  END
> <VConfSearch Rank>
656

> <Conf_Id>
89

> <Delta U+W>
2.903

> <U+W>
-48.726

> <U>
10.996

> <W>
-59.723

> <W(PB)>
-62.151

> <W(SA)>
2.428

> <Valence>
10.985

> <Coulomb>
-0.995

> <VdW>
1.006

> <VdW6>
-10.062

> <VdW12>
11.069

> <Bond>
0.238

> <Angle>
3.202

> <Pdih>
7.544

> <Idih>
0.001

> <Tether>
0.000

$$$$
VeraChem MOL file


 25 24  0  0  0  0  0  0  0  0999 V2000     
   20.4765   17.4008   26.5170 C   0  0  0  0  0  0  0  0  0  0  0  0
   21.0668   18.2730   27.1236 O   0  5  0  0  0  0  0  0  0  0  0  0
   19.3670   17.0069   26.8197 O   0  0  0  0  0  0  0  0  0  0  0  0
   21.1952   16.7207   25.3533 C   0  0  0  0  0  0  0  0  0  0  0  0
   21.3379   15.6750   25.6493 H   0  0  0  0  0  0  0  0  0  0  0  0
   22.1962   17.1563   25.2484 H   0  0  0  0  0  0  0  0  0  0  0  0
   20.4434   16.7627   23.9929 C   0  0  0  0  0  0  0  0  0  0  0  0
   20.8356   15.9511   23.3653 H   0  0  0  0  0  0  0  0  0  0  0  0
   19.3786   16.5381   24.1453 H   0  0  0  0  0  0  0  0  0  0  0  0
   20.5993   18.0855   23.2017 C   0  0  0  0  0  0  0  0  0  0  0  0
   20.1744   17.9270   22.2028 H   0  0  0  0  0  0  0  0  0  0  0  0
   21.6656   18.3034   23.0529 H   0  0  0  0  0  0  0  0  0  0  0  0
   19.9078   19.3014   23.8648 C   0  0  0  0  0  0  0  0  0  0  0  0
   18.8549   19.0658   24.0715 H   0  0  0  0  0  0  0  0  0  0  0  0
   20.3790   19.5002   24.8350 H   0  0  0  0  0  0  0  0  0  0  0  0
   19.9961   20.5975   23.0235 C   0  0  0  0  0  0  0  0  0  0  0  0
   21.0475   20.8142   22.7900 H   0  0  0  0  0  0  0  0  0  0  0  0
   19.6367   21.4337   23.6387 H   0  0  0  0  0  0  0  0  0  0  0  0
   19.1691   20.5483   21.7185 C   0  0  0  0  0  0  0  0  0  0  0  0
   19.5618   19.7728   21.0483 H   0  0  0  0  0  0  0  0  0  0  0  0
   18.1296   20.2769   21.9488 H   0  0  0  0  0  0  0  0  0  0  0  0
   19.1931   21.9035   20.9830 C   0  0  0  0  0  0  0  0  0  0  0  0
   20.2197   22.1871   20.7164 H   0  0  0  0  0  0  0  0  0  0  0  0
   18.6046   21.8518   20.0577 H   0  0  0  0  0  0  0  0  0  0  0  0
   18.7693   22.6989   21.6099 H   0  0  0  0  0  0  0  0  0  0  0  0
  1  2  1  0  0  0  0
  1  3  2  0  0  0  0
  1  4  1  0  0  0  0
  4  5  1  0  0  0  0
  4  6  1  0  0  0  0
  4  7  1  0  0  0  0
  7  8  1  0  0  0  0
  7  9  1  0  0  0  0
  7 10  1  0  0  0  0
 10 11  1  0  0  0  0
 10 12  1  0  0  0  0
 10 13  1  0  0  0  0
 13 14  1  0  0  0  0
 13 15  1  0  0  0  0
 13 16  1  0  0  0  0
 16 17  1  0  0  0  0
 16 18  1  0  0  0  0
 16 19  1  0  0  0  0
 19 20  1  0  0  0  0
 19 21  1  0  0  0  0
 19 22  1  0  0  0  0
 22 23  1  0  0  0  0
 22 24  1  0  0  0  0
 22 25  1  0  0  0  0
M  END
> <VConfSearch Rank>
657

> <Conf_Id>
114

> <Delta U+W>
2.758

> <U+W>
-48.871

> <U>
11.422

> <W>
-60.293

> <W(PB)>
-62.719

> <W(SA)>
2.425

> <Valence>
10.135

> <Coulomb>
0.369

> <VdW>
0.918

> <VdW6>
-10.482

> <VdW12>
11.400

> <Bond>
0.245

> <Angle>
3.539

> <Pdih>
6.346

> <Idih>
0.006

> <Tether>
0.000

$$$$
VeraChem MOL file


 25 24  0  0  0  0  0  0  0  0999 V2000     
   22.1160   16.4778   21.3456 C   0  0  0  0  0  0  0  0  0  0  0  0
   21.7598   15.3989   21.7773 O   0  5  0  0  0  0  0  0  0  0  0  0
   21.9377   16.8353   20.1978 O   0  0  0  0  0  0  0  0  0  0  0  0
   22.8458   17.4292   22.2896 C   0  0  0  0  0  0  0  0  0  0  0  0
   23.7125   17.8274   21.7490 H   0  0  0  0  0  0  0  0  0  0  0  0
   23.2376   16.8510   23.1352 H   0  0  0  0  0  0  0  0  0  0  0  0
   21.9702   18.6024   22.8012 C   0  0  0  0  0  0  0  0  0  0  0  0
   22.6039   19.3018   23.3630 H   0  0  0  0  0  0  0  0  0  0  0  0
   21.5763   19.1538   21.9374 H   0  0  0  0  0  0  0  0  0  0  0  0
   20.8101   18.1236   23.7068 C   0  0  0  0  0  0  0  0  0  0  0  0
   21.2214   17.4965   24.5096 H   0  0  0  0  0  0  0  0  0  0  0  0
   20.1279   17.4817   23.1324 H   0  0  0  0  0  0  0  0  0  0  0  0
   20.0093   19.2806   24.3509 C   0  0  0  0  0  0  0  0  0  0  0  0
   19.3140   18.8461   25.0803 H   0  0  0  0  0  0  0  0  0  0  0  0
   20.6907   19.9291   24.9180 H   0  0  0  0  0  0  0  0  0  0  0  0
   19.2150   20.1263   23.3250 C   0  0  0  0  0  0  0  0  0  0  0  0
   18.5363   19.4766   22.7557 H   0  0  0  0  0  0  0  0  0  0  0  0
   19.9094   20.5651   22.5975 H   0  0  0  0  0  0  0  0  0  0  0  0
   18.4088   21.2776   23.9707 C   0  0  0  0  0  0  0  0  0  0  0  0
   19.0828   21.9230   24.5506 H   0  0  0  0  0  0  0  0  0  0  0  0
   17.9909   21.9050   23.1713 H   0  0  0  0  0  0  0  0  0  0  0  0
   17.2531   20.7890   24.8711 C   0  0  0  0  0  0  0  0  0  0  0  0
   16.6567   21.6399   25.2248 H   0  0  0  0  0  0  0  0  0  0  0  0
   16.5849   20.1137   24.3210 H   0  0  0  0  0  0  0  0  0  0  0  0
   17.6289   20.2582   25.7545 H   0  0  0  0  0  0  0  0  0  0  0  0
  1  2  1  0  0  0  0
  1  3  2  0  0  0  0
  1  4  1  0  0  0  0
  4  5  1  0  0  0  0
  4  6  1  0  0  0  0
  4  7  1  0  0  0  0
  7  8  1  0  0  0  0
  7  9  1  0  0  0  0
  7 10  1  0  0  0  0
 10 11  1  0  0  0  0
 10 12  1  0  0  0  0
 10 13  1  0  0  0  0
 13 14  1  0  0  0  0
 13 15  1  0  0  0  0
 13 16  1  0  0  0  0
 16 17  1  0  0  0  0
 16 18  1  0  0  0  0
 16 19  1  0  0  0  0
 19 20  1  0  0  0  0
 19 21  1  0  0  0  0
 19 22  1  0  0  0  0
 22 23  1  0  0  0  0
 22 24  1  0  0  0  0
 22 25  1  0  0  0  0
M  END
> <VConfSearch Rank>
658

> <Conf_Id>
87

> <Delta U+W>
1.453

> <U+W>
-50.176

> <U>
9.763

> <W>
-59.940

> <W(PB)>
-62.392

> <W(SA)>
2.452

> <Valence>
8.883

> <Coulomb>
-0.122

> <VdW>
1.003

> <VdW6>
-9.782

> <VdW12>
10.785

> <Bond>
0.212

> <Angle>
2.940

> <Pdih>
5.730

> <Idih>
0.001

> <Tether>
0.000

$$$$
VeraChem MOL file


 25 24  0  0  0  0  0  0  0  0999 V2000     
   19.1985   17.0980   26.6437 C   0  0  0  0  0  0  0  0  0  0  0  0
   18.1806   17.6502   27.0120 O   0  5  0  0  0  0  0  0  0  0  0  0
   19.4307   15.9199   26.8303 O   0  0  0  0  0  0  0  0  0  0  0  0
   20.2335   17.9250   25.8894 C   0  0  0  0  0  0  0  0  0  0  0  0
   21.2272   17.5286   26.1301 H   0  0  0  0  0  0  0  0  0  0  0  0
   20.1927   18.9523   26.2709 H   0  0  0  0  0  0  0  0  0  0  0  0
   20.0101   17.9155   24.3571 C   0  0  0  0  0  0  0  0  0  0  0  0
   20.0452   16.8803   23.9908 H   0  0  0  0  0  0  0  0  0  0  0  0
   19.0031   18.2974   24.1428 H   0  0  0  0  0  0  0  0  0  0  0  0
   21.0682   18.7666   23.6178 C   0  0  0  0  0  0  0  0  0  0  0  0
   22.0700   18.4144   23.8987 H   0  0  0  0  0  0  0  0  0  0  0  0
   21.0071   19.8100   23.9541 H   0  0  0  0  0  0  0  0  0  0  0  0
   20.9433   18.7018   22.0749 C   0  0  0  0  0  0  0  0  0  0  0  0
   21.7623   19.2808   21.6283 H   0  0  0  0  0  0  0  0  0  0  0  0
   21.1019   17.6645   21.7501 H   0  0  0  0  0  0  0  0  0  0  0  0
   19.5917   19.1996   21.4978 C   0  0  0  0  0  0  0  0  0  0  0  0
   18.7894   18.5198   21.8133 H   0  0  0  0  0  0  0  0  0  0  0  0
   19.6300   19.1241   20.4027 H   0  0  0  0  0  0  0  0  0  0  0  0
   19.2031   20.6480   21.8842 C   0  0  0  0  0  0  0  0  0  0  0  0
   18.2238   20.8776   21.4423 H   0  0  0  0  0  0  0  0  0  0  0  0
   19.0714   20.7265   22.9715 H   0  0  0  0  0  0  0  0  0  0  0  0
   20.2243   21.7022   21.4049 C   0  0  0  0  0  0  0  0  0  0  0  0
   20.3835   21.6304   20.3212 H   0  0  0  0  0  0  0  0  0  0  0  0
   19.8648   22.7149   21.6282 H   0  0  0  0  0  0  0  0  0  0  0  0
   21.1927   21.5749   21.9047 H   0  0  0  0  0  0  0  0  0  0  0  0
  1  2  1  0  0  0  0
  1  3  2  0  0  0  0
  1  4  1  0  0  0  0
  4  5  1  0  0  0  0
  4  6  1  0  0  0  0
  4  7  1  0  0  0  0
  7  8  1  0  0  0  0
  7  9  1  0  0  0  0
  7 10  1  0  0  0  0
 10 11  1  0  0  0  0
 10 12  1  0  0  0  0
 10 13  1  0  0  0  0
 13 14  1  0  0  0  0
 13 15  1  0  0  0  0
 13 16  1  0  0  0  0
 16 17  1  0  0  0  0
 16 18  1  0  0  0  0
 16 19  1  0  0  0  0
 19 20  1  0  0  0  0
 19 21  1  0  0  0  0
 19 22  1  0  0  0  0
 22 23  1  0  0  0  0
 22 24  1  0  0  0  0
 22 25  1  0  0  0  0
M  END
> <VConfSearch Rank>
659

> <Conf_Id>
29

> <Delta U+W>
0.850

> <U+W>
-50.780

> <U>
8.646

> <W>
-59.426

> <W(PB)>
-61.868

> <W(SA)>
2.442

> <Valence>
8.924

> <Coulomb>
-1.171

> <VdW>
0.894

> <VdW6>
-10.223

> <VdW12>
11.117

> <Bond>
0.231

> <Angle>
3.232

> <Pdih>
5.461

> <Idih>
0.001

> <Tether>
0.000

$$$$
VeraChem MOL file


 25 24  0  0  0  0  0  0  0  0999 V2000     
   17.0307   20.7038   25.4758 C   0  0  0  0  0  0  0  0  0  0  0  0
   16.1396   20.7782   24.6530 O   0  5  0  0  0  0  0  0  0  0  0  0
   17.1624   21.4841   26.3981 O   0  0  0  0  0  0  0  0  0  0  0  0
   18.0512   19.5803   25.3323 C   0  0  0  0  0  0  0  0  0  0  0  0
   17.5438   18.7132   24.8928 H   0  0  0  0  0  0  0  0  0  0  0  0
   18.3806   19.2890   26.3368 H   0  0  0  0  0  0  0  0  0  0  0  0
   19.2695   19.9818   24.4647 C   0  0  0  0  0  0  0  0  0  0  0  0
   18.9131   20.2879   23.4722 H   0  0  0  0  0  0  0  0  0  0  0  0
   19.7624   20.8559   24.9122 H   0  0  0  0  0  0  0  0  0  0  0  0
   20.2842   18.8231   24.3295 C   0  0  0  0  0  0  0  0  0  0  0  0
   19.8035   17.9626   23.8459 H   0  0  0  0  0  0  0  0  0  0  0  0
   20.5760   18.4847   25.3330 H   0  0  0  0  0  0  0  0  0  0  0  0
   21.5674   19.2145   23.5546 C   0  0  0  0  0  0  0  0  0  0  0  0
   22.0840   20.0123   24.1051 H   0  0  0  0  0  0  0  0  0  0  0  0
   22.2565   18.3598   23.5551 H   0  0  0  0  0  0  0  0  0  0  0  0
   21.3414   19.6877   22.0942 C   0  0  0  0  0  0  0  0  0  0  0  0
   22.3176   19.9164   21.6456 H   0  0  0  0  0  0  0  0  0  0  0  0
   20.7893   20.6366   22.1010 H   0  0  0  0  0  0  0  0  0  0  0  0
   20.5976   18.6810   21.1824 C   0  0  0  0  0  0  0  0  0  0  0  0
   19.5829   18.5045   21.5633 H   0  0  0  0  0  0  0  0  0  0  0  0
   20.4747   19.1330   20.1887 H   0  0  0  0  0  0  0  0  0  0  0  0
   21.3383   17.3350   21.0280 C   0  0  0  0  0  0  0  0  0  0  0  0
   21.3903   16.7971   21.9830 H   0  0  0  0  0  0  0  0  0  0  0  0
   20.8165   16.6893   20.3100 H   0  0  0  0  0  0  0  0  0  0  0  0
   22.3619   17.4896   20.6632 H   0  0  0  0  0  0  0  0  0  0  0  0
  1  2  1  0  0  0  0
  1  3  2  0  0  0  0
  1  4  1  0  0  0  0
  4  5  1  0  0  0  0
  4  6  1  0  0  0  0
  4  7  1  0  0  0  0
  7  8  1  0  0  0  0
  7  9  1  0  0  0  0
  7 10  1  0  0  0  0
 10 11  1  0  0  0  0
 10 12  1  0  0  0  0
 10 13  1  0  0  0  0
 13 14  1  0  0  0  0
 13 15  1  0  0  0  0
 13 16  1  0  0  0  0
 16 17  1  0  0  0  0
 16 18  1  0  0  0  0
 16 19  1  0  0  0  0
 19 20  1  0  0  0  0
 19 21  1  0  0  0  0
 19 22  1  0  0  0  0
 22 23  1  0  0  0  0
 22 24  1  0  0  0  0
 22 25  1  0  0  0  0
M  END
> <VConfSearch Rank>
660

> <Conf_Id>
30

> <Delta U+W>
0.843

> <U+W>
-50.787

> <U>
8.647

> <W>
-59.434

> <W(PB)>
-61.861

> <W(SA)>
2.428

> <Valence>
8.924

> <Coulomb>
-1.170

> <VdW>
0.894

> <VdW6>
-10.224

> <VdW12>
11.118

> <Bond>
0.231

> <Angle>
3.232

> <Pdih>
5.460

> <Idih>
0.000

> <Tether>
0.000

$$$$
VeraChem MOL file


 25 24  0  0  0  0  0  0  0  0999 V2000     
   16.9726   20.3271   26.4736 C   0  0  0  0  0  0  0  0  0  0  0  0
   16.7811   19.1721   26.8021 O   0  5  0  0  0  0  0  0  0  0  0  0
   16.4152   21.2686   27.0018 O   0  0  0  0  0  0  0  0  0  0  0  0
   17.9556   20.6417   25.3448 C   0  0  0  0  0  0  0  0  0  0  0  0
   18.7158   21.3183   25.7526 H   0  0  0  0  0  0  0  0  0  0  0  0
   17.4057   21.2010   24.5789 H   0  0  0  0  0  0  0  0  0  0  0  0
   18.6424   19.4076   24.7017 C   0  0  0  0  0  0  0  0  0  0  0  0
   19.1861   18.8484   25.4757 H   0  0  0  0  0  0  0  0  0  0  0  0
   17.8748   18.7310   24.3009 H   0  0  0  0  0  0  0  0  0  0  0  0
   19.6160   19.8146   23.5743 C   0  0  0  0  0  0  0  0  0  0  0  0
   20.3823   20.4910   23.9772 H   0  0  0  0  0  0  0  0  0  0  0  0
   19.0702   20.3735   22.8016 H   0  0  0  0  0  0  0  0  0  0  0  0
   20.2980   18.5854   22.9359 C   0  0  0  0  0  0  0  0  0  0  0  0
   20.8439   18.0264   23.7083 H   0  0  0  0  0  0  0  0  0  0  0  0
   19.5319   17.9089   22.5329 H   0  0  0  0  0  0  0  0  0  0  0  0
   21.2717   18.9917   21.8086 C   0  0  0  0  0  0  0  0  0  0  0  0
   22.0379   19.6683   22.2115 H   0  0  0  0  0  0  0  0  0  0  0  0
   20.7260   19.5507   21.0360 H   0  0  0  0  0  0  0  0  0  0  0  0
   21.9535   17.7632   21.1705 C   0  0  0  0  0  0  0  0  0  0  0  0
   22.5020   17.2025   21.9401 H   0  0  0  0  0  0  0  0  0  0  0  0
   21.1901   17.0850   20.7647 H   0  0  0  0  0  0  0  0  0  0  0  0
   22.9249   18.1731   20.0453 C   0  0  0  0  0  0  0  0  0  0  0  0
   23.7182   18.8273   20.4302 H   0  0  0  0  0  0  0  0  0  0  0  0
   23.4004   17.2879   19.6032 H   0  0  0  0  0  0  0  0  0  0  0  0
   22.3964   18.7088   19.2459 H   0  0  0  0  0  0  0  0  0  0  0  0
  1  2  1  0  0  0  0
  1  3  2  0  0  0  0
  1  4  1  0  0  0  0
  4  5  1  0  0  0  0
  4  6  1  0  0  0  0
  4  7  1  0  0  0  0
  7  8  1  0  0  0  0
  7  9  1  0  0  0  0
  7 10  1  0  0  0  0
 10 11  1  0  0  0  0
 10 12  1  0  0  0  0
 10 13  1  0  0  0  0
 13 14  1  0  0  0  0
 13 15  1  0  0  0  0
 13 16  1  0  0  0  0
 16 17  1  0  0  0  0
 16 18  1  0  0  0  0
 16 19  1  0  0  0  0
 19 20  1  0  0  0  0
 19 21  1  0  0  0  0
 19 22  1  0  0  0  0
 22 23  1  0  0  0  0
 22 24  1  0  0  0  0
 22 25  1  0  0  0  0
M  END
> <VConfSearch Rank>
661

> <Conf_Id>
0

> <Delta U+W>
0.000

> <U+W>
-51.629

> <U>
6.586

> <W>
-58.216

> <W(PB)>
-60.757

> <W(SA)>
2.541

> <Valence>
8.027

> <Coulomb>
-2.892

> <VdW>
1.451

> <VdW6>
-7.931

> <VdW12>
9.383

> <Bond>
0.149

> <Angle>
2.726

> <Pdih>
5.152

> <Idih>
0.000

> <Tether>
0.000

$$$$
VeraChem MOL file


 25 24  0  0  0  0  0  0  0  0999 V2000     
   24.5225   18.3122   21.8150 C   0  0  0  0  0  0  0  0  0  0  0  0
   24.7374   17.1630   21.4837 O   0  5  0  0  0  0  0  0  0  0  0  0
   25.0926   19.2703   21.3314 O   0  0  0  0  0  0  0  0  0  0  0  0
   23.4623   18.5678   22.8802 C   0  0  0  0  0  0  0  0  0  0  0  0
   23.7592   19.4566   23.4499 H   0  0  0  0  0  0  0  0  0  0  0  0
   23.4671   17.7201   23.5758 H   0  0  0  0  0  0  0  0  0  0  0  0
   22.0463   18.7629   22.2845 C   0  0  0  0  0  0  0  0  0  0  0  0
   22.0617   19.6066   21.5806 H   0  0  0  0  0  0  0  0  0  0  0  0
   21.7697   17.8702   21.7064 H   0  0  0  0  0  0  0  0  0  0  0  0
   20.9912   19.0199   23.3822 C   0  0  0  0  0  0  0  0  0  0  0  0
   21.2712   19.9122   23.9589 H   0  0  0  0  0  0  0  0  0  0  0  0
   20.9792   18.1754   24.0849 H   0  0  0  0  0  0  0  0  0  0  0  0
   19.5806   19.2137   22.7854 C   0  0  0  0  0  0  0  0  0  0  0  0
   19.5924   20.0582   22.0827 H   0  0  0  0  0  0  0  0  0  0  0  0
   19.3004   18.3216   22.2086 H   0  0  0  0  0  0  0  0  0  0  0  0
   18.5250   19.4707   23.8825 C   0  0  0  0  0  0  0  0  0  0  0  0
   18.8049   20.3629   24.4594 H   0  0  0  0  0  0  0  0  0  0  0  0
   18.5130   18.6263   24.5853 H   0  0  0  0  0  0  0  0  0  0  0  0
   17.1150   19.6644   23.2862 C   0  0  0  0  0  0  0  0  0  0  0  0
   17.1226   20.5095   22.5839 H   0  0  0  0  0  0  0  0  0  0  0  0
   16.8308   18.7730   22.7099 H   0  0  0  0  0  0  0  0  0  0  0  0
   16.0638   19.9208   24.3848 C   0  0  0  0  0  0  0  0  0  0  0  0
   15.0679   20.0561   23.9433 H   0  0  0  0  0  0  0  0  0  0  0  0
   16.0125   19.0760   25.0842 H   0  0  0  0  0  0  0  0  0  0  0  0
   16.3066   20.8256   24.9573 H   0  0  0  0  0  0  0  0  0  0  0  0
  1  2  1  0  0  0  0
  1  3  2  0  0  0  0
  1  4  1  0  0  0  0
  4  5  1  0  0  0  0
  4  6  1  0  0  0  0
  4  7  1  0  0  0  0
  7  8  1  0  0  0  0
  7  9  1  0  0  0  0
  7 10  1  0  0  0  0
 10 11  1  0  0  0  0
 10 12  1  0  0  0  0
 10 13  1  0  0  0  0
 13 14  1  0  0  0  0
 13 15  1  0  0  0  0
 13 16  1  0  0  0  0
 16 17  1  0  0  0  0
 16 18  1  0  0  0  0
 16 19  1  0  0  0  0
 19 20  1  0  0  0  0
 19 21  1  0  0  0  0
 19 22  1  0  0  0  0
 22 23  1  0  0  0  0
 22 24  1  0  0  0  0
 22 25  1  0  0  0  0
M  END
> <VConfSearch Rank>
662

> <Conf_Id>
27

> <Delta U+W>
-1.297

> <U+W>
-52.926

> <U>
5.617

> <W>
-58.543

> <W(PB)>
-61.065

> <W(SA)>
2.522

> <Valence>
7.531

> <Coulomb>
-2.818

> <VdW>
0.904

> <VdW6>
-7.640

> <VdW12>
8.544

> <Bond>
0.115

> <Angle>
2.271

> <Pdih>
5.144

> <Idih>
0.001

> <Tether>
0.000

$$$$
VeraChem MOL file


 25 24  0  0  0  0  0  0  0  0999 V2000     
   18.4899   15.4564   23.3214 C   0  0  0  0  0  0  0  0  0  0  0  0
   19.2841   14.5374   23.3629 O   0  5  0  0  0  0  0  0  0  0  0  0
   17.7112   15.7137   24.2184 O   0  0  0  0  0  0  0  0  0  0  0  0
   18.4589   16.3235   22.0660 C   0  0  0  0  0  0  0  0  0  0  0  0
   17.5016   16.8576   22.0329 H   0  0  0  0  0  0  0  0  0  0  0  0
   18.4764   15.6494   21.2015 H   0  0  0  0  0  0  0  0  0  0  0  0
   19.6364   17.3275   21.9642 C   0  0  0  0  0  0  0  0  0  0  0  0
   20.5875   16.7806   22.0266 H   0  0  0  0  0  0  0  0  0  0  0  0
   19.6117   17.8068   20.9761 H   0  0  0  0  0  0  0  0  0  0  0  0
   19.5857   18.4159   23.0598 C   0  0  0  0  0  0  0  0  0  0  0  0
   19.6277   17.9450   24.0518 H   0  0  0  0  0  0  0  0  0  0  0  0
   18.6277   18.9507   23.0019 H   0  0  0  0  0  0  0  0  0  0  0  0
   20.7482   19.4224   22.9203 C   0  0  0  0  0  0  0  0  0  0  0  0
   21.7056   18.8867   22.9784 H   0  0  0  0  0  0  0  0  0  0  0  0
   20.7064   19.8967   21.9302 H   0  0  0  0  0  0  0  0  0  0  0  0
   20.6986   20.5097   24.0153 C   0  0  0  0  0  0  0  0  0  0  0  0
   20.7403   20.0355   25.0055 H   0  0  0  0  0  0  0  0  0  0  0  0
   19.7410   21.0453   23.9576 H   0  0  0  0  0  0  0  0  0  0  0  0
   21.8606   21.5156   23.8765 C   0  0  0  0  0  0  0  0  0  0  0  0
   22.8202   20.9835   23.9356 H   0  0  0  0  0  0  0  0  0  0  0  0
   21.8209   21.9934   22.8878 H   0  0  0  0  0  0  0  0  0  0  0  0
   21.8076   22.5996   24.9719 C   0  0  0  0  0  0  0  0  0  0  0  0
   21.8774   22.1514   25.9717 H   0  0  0  0  0  0  0  0  0  0  0  0
   22.6404   23.3057   24.8581 H   0  0  0  0  0  0  0  0  0  0  0  0
   20.8705   23.1689   24.9160 H   0  0  0  0  0  0  0  0  0  0  0  0
  1  2  1  0  0  0  0
  1  3  2  0  0  0  0
  1  4  1  0  0  0  0
  4  5  1  0  0  0  0
  4  6  1  0  0  0  0
  4  7  1  0  0  0  0
  7  8  1  0  0  0  0
  7  9  1  0  0  0  0
  7 10  1  0  0  0  0
 10 11  1  0  0  0  0
 10 12  1  0  0  0  0
 10 13  1  0  0  0  0
 13 14  1  0  0  0  0
 13 15  1  0  0  0  0
 13 16  1  0  0  0  0
 16 17  1  0  0  0  0
 16 18  1  0  0  0  0
 16 19  1  0  0  0  0
 19 20  1  0  0  0  0
 19 21  1  0  0  0  0
 19 22  1  0  0  0  0
 22 23  1  0  0  0  0
 22 24  1  0  0  0  0
 22 25  1  0  0  0  0
M  END
> <VConfSearch Rank>
663

> <Conf_Id>
37

> <Delta U+W>
-0.230

> <U+W>
-51.860

> <U>
7.816

> <W>
-59.675

> <W(PB)>
-62.180

> <W(SA)>
2.505

> <Valence>
7.785

> <Coulomb>
-0.713

> <VdW>
0.744

> <VdW6>
-8.514

> <VdW12>
9.259

> <Bond>
0.136

> <Angle>
2.433

> <Pdih>
5.216

> <Idih>
0.000

> <Tether>
0.000

$$$$
VeraChem MOL file


 25 24  0  0  0  0  0  0  0  0999 V2000     
   17.0750   16.5567   23.4234 C   0  0  0  0  0  0  0  0  0  0  0  0
   17.2624   15.6811   24.2452 O   0  5  0  0  0  0  0  0  0  0  0  0
   17.0836   16.3658   22.2232 O   0  0  0  0  0  0  0  0  0  0  0  0
   16.7979   17.9696   23.9290 C   0  0  0  0  0  0  0  0  0  0  0  0
   16.0627   17.8899   24.7384 H   0  0  0  0  0  0  0  0  0  0  0  0
   16.3227   18.5427   23.1237 H   0  0  0  0  0  0  0  0  0  0  0  0
   18.0575   18.7131   24.4444 C   0  0  0  0  0  0  0  0  0  0  0  0
   17.7476   19.6576   24.9117 H   0  0  0  0  0  0  0  0  0  0  0  0
   18.5375   18.1138   25.2307 H   0  0  0  0  0  0  0  0  0  0  0  0
   19.0739   19.0107   23.3192 C   0  0  0  0  0  0  0  0  0  0  0  0
   18.5857   19.5984   22.5297 H   0  0  0  0  0  0  0  0  0  0  0  0
   19.4021   18.0689   22.8580 H   0  0  0  0  0  0  0  0  0  0  0  0
   20.3043   19.7786   23.8485 C   0  0  0  0  0  0  0  0  0  0  0  0
   19.9788   20.7222   24.3075 H   0  0  0  0  0  0  0  0  0  0  0  0
   20.7918   19.1901   24.6379 H   0  0  0  0  0  0  0  0  0  0  0  0
   21.3206   20.0758   22.7249 C   0  0  0  0  0  0  0  0  0  0  0  0
   20.8332   20.6640   21.9353 H   0  0  0  0  0  0  0  0  0  0  0  0
   21.6461   19.1322   22.2656 H   0  0  0  0  0  0  0  0  0  0  0  0
   22.5509   20.8427   23.2536 C   0  0  0  0  0  0  0  0  0  0  0  0
   22.2292   21.7881   23.7121 H   0  0  0  0  0  0  0  0  0  0  0  0
   23.0422   20.2563   24.0424 H   0  0  0  0  0  0  0  0  0  0  0  0
   23.5633   21.1374   22.1285 C   0  0  0  0  0  0  0  0  0  0  0  0
   23.1069   21.7502   21.3400 H   0  0  0  0  0  0  0  0  0  0  0  0
   24.4310   21.6827   22.5218 H   0  0  0  0  0  0  0  0  0  0  0  0
   23.9260   20.2068   21.6727 H   0  0  0  0  0  0  0  0  0  0  0  0
  1  2  1  0  0  0  0
  1  3  2  0  0  0  0
  1  4  1  0  0  0  0
  4  5  1  0  0  0  0
  4  6  1  0  0  0  0
  4  7  1  0  0  0  0
  7  8  1  0  0  0  0
  7  9  1  0  0  0  0
  7 10  1  0  0  0  0
 10 11  1  0  0  0  0
 10 12  1  0  0  0  0
 10 13  1  0  0  0  0
 13 14  1  0  0  0  0
 13 15  1  0  0  0  0
 13 16  1  0  0  0  0
 16 17  1  0  0  0  0
 16 18  1  0  0  0  0
 16 19  1  0  0  0  0
 19 20  1  0  0  0  0
 19 21  1  0  0  0  0
 19 22  1  0  0  0  0
 22 23  1  0  0  0  0
 22 24  1  0  0  0  0
 22 25  1  0  0  0  0
M  END
> <VConfSearch Rank>
664

> <Conf_Id>
54

> <Delta U+W>
-0.224

> <U+W>
-51.854

> <U>
7.816

> <W>
-59.670

> <W(PB)>
-62.157

> <W(SA)>
2.487

> <Valence>
7.785

> <Coulomb>
-0.713

> <VdW>
0.744

> <VdW6>
-8.515

> <VdW12>
9.259

> <Bond>
0.136

> <Angle>
2.433

> <Pdih>
5.215

> <Idih>
0.000

> <Tether>
0.000

$$$$
VeraChem MOL file


 25 24  0  0  0  0  0  0  0  0999 V2000     
   19.4671   21.1674   19.8767 C   0  0  0  0  0  0  0  0  0  0  0  0
   20.5645   21.5554   19.5272 O   0  5  0  0  0  0  0  0  0  0  0  0
   18.6953   20.5822   19.1426 O   0  0  0  0  0  0  0  0  0  0  0  0
   19.0244   21.4456   21.3106 C   0  0  0  0  0  0  0  0  0  0  0  0
   17.9998   21.8330   21.2668 H   0  0  0  0  0  0  0  0  0  0  0  0
   19.6498   22.2476   21.7212 H   0  0  0  0  0  0  0  0  0  0  0  0
   19.0689   20.2035   22.2384 C   0  0  0  0  0  0  0  0  0  0  0  0
   18.5896   20.4648   23.1902 H   0  0  0  0  0  0  0  0  0  0  0  0
   18.4718   19.3956   21.7933 H   0  0  0  0  0  0  0  0  0  0  0  0
   20.5120   19.7078   22.4982 C   0  0  0  0  0  0  0  0  0  0  0  0
   21.0954   20.5012   22.9849 H   0  0  0  0  0  0  0  0  0  0  0  0
   21.0027   19.5107   21.5352 H   0  0  0  0  0  0  0  0  0  0  0  0
   20.5803   18.4171   23.3493 C   0  0  0  0  0  0  0  0  0  0  0  0
   19.9814   17.6298   22.8719 H   0  0  0  0  0  0  0  0  0  0  0  0
   21.6191   18.0637   23.3445 H   0  0  0  0  0  0  0  0  0  0  0  0
   20.1130   18.6156   24.8126 C   0  0  0  0  0  0  0  0  0  0  0  0
   19.0720   18.9620   24.8204 H   0  0  0  0  0  0  0  0  0  0  0  0
   20.7089   19.4066   25.2879 H   0  0  0  0  0  0  0  0  0  0  0  0
   20.1931   17.3261   25.6632 C   0  0  0  0  0  0  0  0  0  0  0  0
   19.7186   17.5169   26.6356 H   0  0  0  0  0  0  0  0  0  0  0  0
   19.6083   16.5286   25.1843 H   0  0  0  0  0  0  0  0  0  0  0  0
   21.6382   16.8383   25.9054 C   0  0  0  0  0  0  0  0  0  0  0  0
   22.1162   16.5180   24.9714 H   0  0  0  0  0  0  0  0  0  0  0  0
   22.2512   17.6319   26.3522 H   0  0  0  0  0  0  0  0  0  0  0  0
   21.6436   15.9812   26.5911 H   0  0  0  0  0  0  0  0  0  0  0  0
  1  2  1  0  0  0  0
  1  3  2  0  0  0  0
  1  4  1  0  0  0  0
  4  5  1  0  0  0  0
  4  6  1  0  0  0  0
  4  7  1  0  0  0  0
  7  8  1  0  0  0  0
  7  9  1  0  0  0  0
  7 10  1  0  0  0  0
 10 11  1  0  0  0  0
 10 12  1  0  0  0  0
 10 13  1  0  0  0  0
 13 14  1  0  0  0  0
 13 15  1  0  0  0  0
 13 16  1  0  0  0  0
 16 17  1  0  0  0  0
 16 18  1  0  0  0  0
 16 19  1  0  0  0  0
 19 20  1  0  0  0  0
 19 21  1  0  0  0  0
 19 22  1  0  0  0  0
 22 23  1  0  0  0  0
 22 24  1  0  0  0  0
 22 25  1  0  0  0  0
M  END
> <VConfSearch Rank>
665

> <Conf_Id>
101

> <Delta U+W>
1.534

> <U+W>
-50.095

> <U>
9.416

> <W>
-59.512

> <W(PB)>
-61.988

> <W(SA)>
2.476

> <Valence>
8.939

> <Coulomb>
-0.615

> <VdW>
1.092

> <VdW6>
-9.710

> <VdW12>
10.802

> <Bond>
0.216

> <Angle>
2.979

> <Pdih>
5.743

> <Idih>
0.000

> <Tether>
0.000

$$$$
VeraChem MOL file


 25 24  0  0  0  0  0  0  0  0999 V2000     
   23.6325   21.0579   22.0234 C   0  0  0  0  0  0  0  0  0  0  0  0
   23.4078   21.5874   20.9530 O   0  5  0  0  0  0  0  0  0  0  0  0
   24.5541   21.3732   22.7500 O   0  0  0  0  0  0  0  0  0  0  0  0
   22.6928   19.9523   22.4913 C   0  0  0  0  0  0  0  0  0  0  0  0
   23.2742   19.2449   23.0946 H   0  0  0  0  0  0  0  0  0  0  0  0
   22.3450   19.4138   21.6028 H   0  0  0  0  0  0  0  0  0  0  0  0
   21.4919   20.4934   23.3102 C   0  0  0  0  0  0  0  0  0  0  0  0
   21.8782   21.1085   24.1348 H   0  0  0  0  0  0  0  0  0  0  0  0
   20.8891   21.1625   22.6808 H   0  0  0  0  0  0  0  0  0  0  0  0
   20.5928   19.3819   23.9026 C   0  0  0  0  0  0  0  0  0  0  0  0
   19.8662   19.8566   24.5744 H   0  0  0  0  0  0  0  0  0  0  0  0
   21.1993   18.7087   24.5235 H   0  0  0  0  0  0  0  0  0  0  0  0
   19.8368   18.5633   22.8273 C   0  0  0  0  0  0  0  0  0  0  0  0
   19.2301   19.2359   22.2073 H   0  0  0  0  0  0  0  0  0  0  0  0
   20.5608   18.0945   22.1492 H   0  0  0  0  0  0  0  0  0  0  0  0
   18.9463   17.4404   23.4176 C   0  0  0  0  0  0  0  0  0  0  0  0
   19.5838   16.7302   23.9614 H   0  0  0  0  0  0  0  0  0  0  0  0
   18.5016   16.8736   22.5882 H   0  0  0  0  0  0  0  0  0  0  0  0
   17.8120   17.9147   24.3598 C   0  0  0  0  0  0  0  0  0  0  0  0
   17.2597   17.0327   24.7123 H   0  0  0  0  0  0  0  0  0  0  0  0
   18.2351   18.3844   25.2574 H   0  0  0  0  0  0  0  0  0  0  0  0
   16.8187   18.8841   23.6833 C   0  0  0  0  0  0  0  0  0  0  0  0
   16.4008   18.4436   22.7688 H   0  0  0  0  0  0  0  0  0  0  0  0
   15.9855   19.1145   24.3597 H   0  0  0  0  0  0  0  0  0  0  0  0
   17.3043   19.8320   23.4193 H   0  0  0  0  0  0  0  0  0  0  0  0
  1  2  1  0  0  0  0
  1  3  2  0  0  0  0
  1  4  1  0  0  0  0
  4  5  1  0  0  0  0
  4  6  1  0  0  0  0
  4  7  1  0  0  0  0
  7  8  1  0  0  0  0
  7  9  1  0  0  0  0
  7 10  1  0  0  0  0
 10 11  1  0  0  0  0
 10 12  1  0  0  0  0
 10 13  1  0  0  0  0
 13 14  1  0  0  0  0
 13 15  1  0  0  0  0
 13 16  1  0  0  0  0
 16 17  1  0  0  0  0
 16 18  1  0  0  0  0
 16 19  1  0  0  0  0
 19 20  1  0  0  0  0
 19 21  1  0  0  0  0
 19 22  1  0  0  0  0
 22 23  1  0  0  0  0
 22 24  1  0  0  0  0
 22 25  1  0  0  0  0
M  END
> <VConfSearch Rank>
666

> <Conf_Id>
75

> <Delta U+W>
1.014

> <U+W>
-50.615

> <U>
8.474

> <W>
-59.089

> <W(PB)>
-61.530

> <W(SA)>
2.441

> <Valence>
9.080

> <Coulomb>
-1.772

> <VdW>
1.165

> <VdW6>
-9.830

> <VdW12>
10.996

> <Bond>
0.240

> <Angle>
3.225

> <Pdih>
5.615

> <Idih>
0.001

> <Tether>
0.000

$$$$
VeraChem MOL file


 25 24  0  0  0  0  0  0  0  0999 V2000     
   20.9588   19.3769   27.4231 C   0  0  0  0  0  0  0  0  0  0  0  0
   20.2115   18.6161   28.0057 O   0  5  0  0  0  0  0  0  0  0  0  0
   22.0471   19.7096   27.8492 O   0  0  0  0  0  0  0  0  0  0  0  0
   20.5155   19.9277   26.0725 C   0  0  0  0  0  0  0  0  0  0  0  0
   20.9353   20.9346   25.9609 H   0  0  0  0  0  0  0  0  0  0  0  0
   19.4239   20.0313   26.0886 H   0  0  0  0  0  0  0  0  0  0  0  0
   20.9500   19.0327   24.8859 C   0  0  0  0  0  0  0  0  0  0  0  0
   22.0438   18.9282   24.8913 H   0  0  0  0  0  0  0  0  0  0  0  0
   20.5324   18.0250   25.0197 H   0  0  0  0  0  0  0  0  0  0  0  0
   20.4881   19.6106   23.5306 C   0  0  0  0  0  0  0  0  0  0  0  0
   20.9074   20.6177   23.4014 H   0  0  0  0  0  0  0  0  0  0  0  0
   19.3974   19.7226   23.5370 H   0  0  0  0  0  0  0  0  0  0  0  0
   20.9297   18.7162   22.3483 C   0  0  0  0  0  0  0  0  0  0  0  0
   22.0265   18.6546   22.3572 H   0  0  0  0  0  0  0  0  0  0  0  0
   20.5643   17.6897   22.4878 H   0  0  0  0  0  0  0  0  0  0  0  0
   20.4795   19.2571   20.9672 C   0  0  0  0  0  0  0  0  0  0  0  0
   21.2724   19.0367   20.2395 H   0  0  0  0  0  0  0  0  0  0  0  0
   20.3966   20.3522   20.9953 H   0  0  0  0  0  0  0  0  0  0  0  0
   19.1667   18.6380   20.4269 C   0  0  0  0  0  0  0  0  0  0  0  0
   18.9874   19.0288   19.4158 H   0  0  0  0  0  0  0  0  0  0  0  0
   19.2894   17.5515   20.3187 H   0  0  0  0  0  0  0  0  0  0  0  0
   17.9256   18.9287   21.2961 C   0  0  0  0  0  0  0  0  0  0  0  0
   17.8147   20.0056   21.4773 H   0  0  0  0  0  0  0  0  0  0  0  0
   17.0152   18.5735   20.7963 H   0  0  0  0  0  0  0  0  0  0  0  0
   17.9920   18.4164   22.2640 H   0  0  0  0  0  0  0  0  0  0  0  0
  1  2  1  0  0  0  0
  1  3  2  0  0  0  0
  1  4  1  0  0  0  0
  4  5  1  0  0  0  0
  4  6  1  0  0  0  0
  4  7  1  0  0  0  0
  7  8  1  0  0  0  0
  7  9  1  0  0  0  0
  7 10  1  0  0  0  0
 10 11  1  0  0  0  0
 10 12  1  0  0  0  0
 10 13  1  0  0  0  0
 13 14  1  0  0  0  0
 13 15  1  0  0  0  0
 13 16  1  0  0  0  0
 16 17  1  0  0  0  0
 16 18  1  0  0  0  0
 16 19  1  0  0  0  0
 19 20  1  0  0  0  0
 19 21  1  0  0  0  0
 19 22  1  0  0  0  0
 22 23  1  0  0  0  0
 22 24  1  0  0  0  0
 22 25  1  0  0  0  0
M  END
> <VConfSearch Rank>
667

> <Conf_Id>
125

> <Delta U+W>
2.314

> <U+W>
-49.315

> <U>
9.740

> <W>
-59.054

> <W(PB)>
-61.488

> <W(SA)>
2.433

> <Valence>
10.506

> <Coulomb>
-1.761

> <VdW>
0.994

> <VdW6>
-9.209

> <VdW12>
10.203

> <Bond>
0.193

> <Angle>
2.979

> <Pdih>
7.334

> <Idih>
0.001

> <Tether>
0.000

$$$$
VeraChem MOL file


 25 24  0  0  0  0  0  0  0  0999 V2000     
   23.7480   18.0077   24.7683 C   0  0  0  0  0  0  0  0  0  0  0  0
   23.9038   18.6601   25.7817 O   0  5  0  0  0  0  0  0  0  0  0  0
   24.6109   17.3042   24.2814 O   0  0  0  0  0  0  0  0  0  0  0  0
   22.4036   18.0955   24.0549 C   0  0  0  0  0  0  0  0  0  0  0  0
   21.6301   18.2340   24.8186 H   0  0  0  0  0  0  0  0  0  0  0  0
   22.2129   17.1312   23.5690 H   0  0  0  0  0  0  0  0  0  0  0  0
   22.3528   19.2407   23.0104 C   0  0  0  0  0  0  0  0  0  0  0  0
   22.4985   20.2052   23.5161 H   0  0  0  0  0  0  0  0  0  0  0  0
   23.1975   19.1234   22.3174 H   0  0  0  0  0  0  0  0  0  0  0  0
   21.0406   19.2727   22.1911 C   0  0  0  0  0  0  0  0  0  0  0  0
   20.9028   18.3106   21.6791 H   0  0  0  0  0  0  0  0  0  0  0  0
   21.1405   20.0323   21.4037 H   0  0  0  0  0  0  0  0  0  0  0  0
   19.7908   19.5925   23.0437 C   0  0  0  0  0  0  0  0  0  0  0  0
   19.6433   18.8026   23.7900 H   0  0  0  0  0  0  0  0  0  0  0  0
   19.9513   20.5300   23.5931 H   0  0  0  0  0  0  0  0  0  0  0  0
   18.5217   19.7177   22.1690 C   0  0  0  0  0  0  0  0  0  0  0  0
   18.3318   18.7659   21.6543 H   0  0  0  0  0  0  0  0  0  0  0  0
   18.7002   20.4655   21.3844 H   0  0  0  0  0  0  0  0  0  0  0  0
   17.2637   20.1346   22.9662 C   0  0  0  0  0  0  0  0  0  0  0  0
   17.4483   21.0892   23.4781 H   0  0  0  0  0  0  0  0  0  0  0  0
   16.4426   20.3157   22.2590 H   0  0  0  0  0  0  0  0  0  0  0  0
   16.8103   19.0738   23.9928 C   0  0  0  0  0  0  0  0  0  0  0  0
   17.5532   18.9439   24.7896 H   0  0  0  0  0  0  0  0  0  0  0  0
   15.8666   19.3757   24.4651 H   0  0  0  0  0  0  0  0  0  0  0  0
   16.6501   18.1017   23.5087 H   0  0  0  0  0  0  0  0  0  0  0  0
  1  2  1  0  0  0  0
  1  3  2  0  0  0  0
  1  4  1  0  0  0  0
  4  5  1  0  0  0  0
  4  6  1  0  0  0  0
  4  7  1  0  0  0  0
  7  8  1  0  0  0  0
  7  9  1  0  0  0  0
  7 10  1  0  0  0  0
 10 11  1  0  0  0  0
 10 12  1  0  0  0  0
 10 13  1  0  0  0  0
 13 14  1  0  0  0  0
 13 15  1  0  0  0  0
 13 16  1  0  0  0  0
 16 17  1  0  0  0  0
 16 18  1  0  0  0  0
 16 19  1  0  0  0  0
 19 20  1  0  0  0  0
 19 21  1  0  0  0  0
 19 22  1  0  0  0  0
 22 23  1  0  0  0  0
 22 24  1  0  0  0  0
 22 25  1  0  0  0  0
M  END
> <VConfSearch Rank>
668

> <Conf_Id>
4

> <Delta U+W>
0.189

> <U+W>
-51.441

> <U>
7.701

> <W>
-59.141

> <W(PB)>
-61.609

> <W(SA)>
2.467

> <Valence>
8.550

> <Coulomb>
-1.988

> <VdW>
1.139

> <VdW6>
-8.988

> <VdW12>
10.127

> <Bond>
0.191

> <Angle>
2.738

> <Pdih>
5.621

> <Idih>
0.001

> <Tether>
0.000

$$$$
VeraChem MOL file


 25 24  0  0  0  0  0  0  0  0999 V2000     
   24.0228   19.3061   22.3972 C   0  0  0  0  0  0  0  0  0  0  0  0
   24.5629   19.7842   23.3752 O   0  5  0  0  0  0  0  0  0  0  0  0
   24.6300   18.8377   21.4545 O   0  0  0  0  0  0  0  0  0  0  0  0
   22.4992   19.2704   22.3612 C   0  0  0  0  0  0  0  0  0  0  0  0
   22.1815   19.3601   21.3155 H   0  0  0  0  0  0  0  0  0  0  0  0
   22.1330   20.1575   22.8901 H   0  0  0  0  0  0  0  0  0  0  0  0
   21.9147   17.9785   22.9893 C   0  0  0  0  0  0  0  0  0  0  0  0
   22.3743   17.1091   22.4990 H   0  0  0  0  0  0  0  0  0  0  0  0
   22.2007   17.9239   24.0488 H   0  0  0  0  0  0  0  0  0  0  0  0
   20.3772   17.8670   22.8562 C   0  0  0  0  0  0  0  0  0  0  0  0
   20.0676   16.8771   23.2183 H   0  0  0  0  0  0  0  0  0  0  0  0
   20.0954   17.9119   21.7953 H   0  0  0  0  0  0  0  0  0  0  0  0
   19.6110   18.9542   23.6449 C   0  0  0  0  0  0  0  0  0  0  0  0
   19.9314   18.9398   24.6955 H   0  0  0  0  0  0  0  0  0  0  0  0
   19.8620   19.9438   23.2447 H   0  0  0  0  0  0  0  0  0  0  0  0
   18.0813   18.7410   23.5690 C   0  0  0  0  0  0  0  0  0  0  0  0
   17.8441   17.7246   23.9120 H   0  0  0  0  0  0  0  0  0  0  0  0
   17.7509   18.8014   22.5231 H   0  0  0  0  0  0  0  0  0  0  0  0
   17.2767   19.7471   24.4246 C   0  0  0  0  0  0  0  0  0  0  0  0
   16.2178   19.4541   24.4100 H   0  0  0  0  0  0  0  0  0  0  0  0
   17.6010   19.6856   25.4726 H   0  0  0  0  0  0  0  0  0  0  0  0
   17.3956   21.2047   23.9287 C   0  0  0  0  0  0  0  0  0  0  0  0
   17.1064   21.2853   22.8728 H   0  0  0  0  0  0  0  0  0  0  0  0
   16.7374   21.8629   24.5105 H   0  0  0  0  0  0  0  0  0  0  0  0
   18.4202   21.5821   24.0353 H   0  0  0  0  0  0  0  0  0  0  0  0
  1  2  1  0  0  0  0
  1  3  2  0  0  0  0
  1  4  1  0  0  0  0
  4  5  1  0  0  0  0
  4  6  1  0  0  0  0
  4  7  1  0  0  0  0
  7  8  1  0  0  0  0
  7  9  1  0  0  0  0
  7 10  1  0  0  0  0
 10 11  1  0  0  0  0
 10 12  1  0  0  0  0
 10 13  1  0  0  0  0
 13 14  1  0  0  0  0
 13 15  1  0  0  0  0
 13 16  1  0  0  0  0
 16 17  1  0  0  0  0
 16 18  1  0  0  0  0
 16 19  1  0  0  0  0
 19 20  1  0  0  0  0
 19 21  1  0  0  0  0
 19 22  1  0  0  0  0
 22 23  1  0  0  0  0
 22 24  1  0  0  0  0
 22 25  1  0  0  0  0
M  END
> <VConfSearch Rank>
669

> <Conf_Id>
17

> <Delta U+W>
0.219

> <U+W>
-51.411

> <U>
7.701

> <W>
-59.111

> <W(PB)>
-61.599

> <W(SA)>
2.488

> <Valence>
8.550

> <Coulomb>
-1.988

> <VdW>
1.139

> <VdW6>
-8.988

> <VdW12>
10.127

> <Bond>
0.191

> <Angle>
2.738

> <Pdih>
5.621

> <Idih>
0.001

> <Tether>
0.000

$$$$
VeraChem MOL file


 25 24  0  0  0  0  0  0  0  0999 V2000     
   19.6255   15.6396   24.1780 C   0  0  0  0  0  0  0  0  0  0  0  0
   19.0614   15.0680   23.2658 O   0  5  0  0  0  0  0  0  0  0  0  0
   19.1640   15.7381   25.2980 O   0  0  0  0  0  0  0  0  0  0  0  0
   20.9977   16.2511   23.9097 C   0  0  0  0  0  0  0  0  0  0  0  0
   21.4194   15.7841   23.0115 H   0  0  0  0  0  0  0  0  0  0  0  0
   21.6497   15.9749   24.7468 H   0  0  0  0  0  0  0  0  0  0  0  0
   20.9794   17.7939   23.7543 C   0  0  0  0  0  0  0  0  0  0  0  0
   20.5361   18.2367   24.6561 H   0  0  0  0  0  0  0  0  0  0  0  0
   22.0136   18.1590   23.6962 H   0  0  0  0  0  0  0  0  0  0  0  0
   20.2039   18.2529   22.4963 C   0  0  0  0  0  0  0  0  0  0  0  0
   19.1499   17.9534   22.5776 H   0  0  0  0  0  0  0  0  0  0  0  0
   20.6068   17.7300   21.6181 H   0  0  0  0  0  0  0  0  0  0  0  0
   20.2884   19.7767   22.2423 C   0  0  0  0  0  0  0  0  0  0  0  0
   21.3412   20.0772   22.1518 H   0  0  0  0  0  0  0  0  0  0  0  0
   19.8189   19.9941   21.2732 H   0  0  0  0  0  0  0  0  0  0  0  0
   19.5967   20.6227   23.3364 C   0  0  0  0  0  0  0  0  0  0  0  0
   20.1021   20.4753   24.2996 H   0  0  0  0  0  0  0  0  0  0  0  0
   18.5598   20.2826   23.4626 H   0  0  0  0  0  0  0  0  0  0  0  0
   19.6068   22.1258   22.9865 C   0  0  0  0  0  0  0  0  0  0  0  0
   20.6428   22.4688   22.8578 H   0  0  0  0  0  0  0  0  0  0  0  0
   19.0956   22.2869   22.0273 H   0  0  0  0  0  0  0  0  0  0  0  0
   18.9201   22.9684   24.0802 C   0  0  0  0  0  0  0  0  0  0  0  0
   19.4311   22.8516   25.0449 H   0  0  0  0  0  0  0  0  0  0  0  0
   18.9360   24.0336   23.8151 H   0  0  0  0  0  0  0  0  0  0  0  0
   17.8723   22.6666   24.2085 H   0  0  0  0  0  0  0  0  0  0  0  0
  1  2  1  0  0  0  0
  1  3  2  0  0  0  0
  1  4  1  0  0  0  0
  4  5  1  0  0  0  0
  4  6  1  0  0  0  0
  4  7  1  0  0  0  0
  7  8  1  0  0  0  0
  7  9  1  0  0  0  0
  7 10  1  0  0  0  0
 10 11  1  0  0  0  0
 10 12  1  0  0  0  0
 10 13  1  0  0  0  0
 13 14  1  0  0  0  0
 13 15  1  0  0  0  0
 13 16  1  0  0  0  0
 16 17  1  0  0  0  0
 16 18  1  0  0  0  0
 16 19  1  0  0  0  0
 19 20  1  0  0  0  0
 19 21  1  0  0  0  0
 19 22  1  0  0  0  0
 22 23  1  0  0  0  0
 22 24  1  0  0  0  0
 22 25  1  0  0  0  0
M  END
> <VConfSearch Rank>
670

> <Conf_Id>
142

> <Delta U+W>
0.593

> <U+W>
-51.037

> <U>
8.903

> <W>
-59.940

> <W(PB)>
-62.418

> <W(SA)>
2.478

> <Valence>
8.305

> <Coulomb>
-0.223

> <VdW>
0.821

> <VdW6>
-9.236

> <VdW12>
10.057

> <Bond>
0.173

> <Angle>
2.663

> <Pdih>
5.469

> <Idih>
0.001

> <Tether>
0.000

$$$$
VeraChem MOL file


 25 24  0  0  0  0  0  0  0  0999 V2000     
   17.5259   16.9426   23.3927 C   0  0  0  0  0  0  0  0  0  0  0  0
   16.8770   16.2752   24.1744 O   0  5  0  0  0  0  0  0  0  0  0  0
   17.0321   17.5872   22.4883 O   0  0  0  0  0  0  0  0  0  0  0  0
   19.0448   16.9474   23.5403 C   0  0  0  0  0  0  0  0  0  0  0  0
   19.4859   17.3507   22.6216 H   0  0  0  0  0  0  0  0  0  0  0  0
   19.3693   15.9026   23.6079 H   0  0  0  0  0  0  0  0  0  0  0  0
   19.5587   17.7270   24.7814 C   0  0  0  0  0  0  0  0  0  0  0  0
   19.1527   17.2547   25.6865 H   0  0  0  0  0  0  0  0  0  0  0  0
   20.6489   17.6198   24.8499 H   0  0  0  0  0  0  0  0  0  0  0  0
   19.1803   19.2308   24.7951 C   0  0  0  0  0  0  0  0  0  0  0  0
   19.5819   19.6870   25.7101 H   0  0  0  0  0  0  0  0  0  0  0  0
   18.0879   19.3239   24.8665 H   0  0  0  0  0  0  0  0  0  0  0  0
   19.6675   20.0472   23.5719 C   0  0  0  0  0  0  0  0  0  0  0  0
   19.1861   19.6739   22.6581 H   0  0  0  0  0  0  0  0  0  0  0  0
   19.3263   21.0845   23.6914 H   0  0  0  0  0  0  0  0  0  0  0  0
   21.2036   20.0405   23.3962 C   0  0  0  0  0  0  0  0  0  0  0  0
   21.5527   19.0178   23.2030 H   0  0  0  0  0  0  0  0  0  0  0  0
   21.6812   20.3729   24.3280 H   0  0  0  0  0  0  0  0  0  0  0  0
   21.6488   20.9530   22.2341 C   0  0  0  0  0  0  0  0  0  0  0  0
   21.1700   20.6238   21.3014 H   0  0  0  0  0  0  0  0  0  0  0  0
   21.3114   21.9821   22.4203 H   0  0  0  0  0  0  0  0  0  0  0  0
   23.1804   20.9405   22.0563 C   0  0  0  0  0  0  0  0  0  0  0  0
   23.5420   19.9274   21.8366 H   0  0  0  0  0  0  0  0  0  0  0  0
   23.4789   21.5943   21.2265 H   0  0  0  0  0  0  0  0  0  0  0  0
   23.6841   21.2948   22.9652 H   0  0  0  0  0  0  0  0  0  0  0  0
  1  2  1  0  0  0  0
  1  3  2  0  0  0  0
  1  4  1  0  0  0  0
  4  5  1  0  0  0  0
  4  6  1  0  0  0  0
  4  7  1  0  0  0  0
  7  8  1  0  0  0  0
  7  9  1  0  0  0  0
  7 10  1  0  0  0  0
 10 11  1  0  0  0  0
 10 12  1  0  0  0  0
 10 13  1  0  0  0  0
 13 14  1  0  0  0  0
 13 15  1  0  0  0  0
 13 16  1  0  0  0  0
 16 17  1  0  0  0  0
 16 18  1  0  0  0  0
 16 19  1  0  0  0  0
 19 20  1  0  0  0  0
 19 21  1  0  0  0  0
 19 22  1  0  0  0  0
 22 23  1  0  0  0  0
 22 24  1  0  0  0  0
 22 25  1  0  0  0  0
M  END
> <VConfSearch Rank>
671

> <Conf_Id>
135

> <Delta U+W>
1.314

> <U+W>
-50.316

> <U>
9.773

> <W>
-60.088

> <W(PB)>
-62.535

> <W(SA)>
2.447

> <Valence>
8.741

> <Coulomb>
0.479

> <VdW>
0.552

> <VdW6>
-10.627

> <VdW12>
11.179

> <Bond>
0.227

> <Angle>
3.155

> <Pdih>
5.358

> <Idih>
0.001

> <Tether>
0.000

$$$$
VeraChem MOL file


 25 24  0  0  0  0  0  0  0  0999 V2000     
   24.1459   18.1486   23.7277 C   0  0  0  0  0  0  0  0  0  0  0  0
   24.7781   18.1759   22.6903 O   0  5  0  0  0  0  0  0  0  0  0  0
   24.6577   18.1900   24.8291 O   0  0  0  0  0  0  0  0  0  0  0  0
   22.6252   18.0817   23.6428 C   0  0  0  0  0  0  0  0  0  0  0  0
   22.2603   17.5275   24.5157 H   0  0  0  0  0  0  0  0  0  0  0  0
   22.3678   17.4953   22.7539 H   0  0  0  0  0  0  0  0  0  0  0  0
   21.9661   19.4847   23.5859 C   0  0  0  0  0  0  0  0  0  0  0  0
   22.3249   20.0747   24.4407 H   0  0  0  0  0  0  0  0  0  0  0  0
   22.3013   20.0129   22.6827 H   0  0  0  0  0  0  0  0  0  0  0  0
   20.4196   19.4469   23.6275 C   0  0  0  0  0  0  0  0  0  0  0  0
   20.0609   20.4777   23.7403 H   0  0  0  0  0  0  0  0  0  0  0  0
   20.0870   18.8966   24.5180 H   0  0  0  0  0  0  0  0  0  0  0  0
   19.7836   18.8286   22.3596 C   0  0  0  0  0  0  0  0  0  0  0  0
   20.0738   19.4203   21.4808 H   0  0  0  0  0  0  0  0  0  0  0  0
   20.1876   17.8212   22.2000 H   0  0  0  0  0  0  0  0  0  0  0  0
   18.2391   18.7141   22.4153 C   0  0  0  0  0  0  0  0  0  0  0  0
   17.9409   18.0471   23.2356 H   0  0  0  0  0  0  0  0  0  0  0  0
   17.9118   18.2158   21.4925 H   0  0  0  0  0  0  0  0  0  0  0  0
   17.4906   20.0662   22.5237 C   0  0  0  0  0  0  0  0  0  0  0  0
   18.0954   20.8731   22.0873 H   0  0  0  0  0  0  0  0  0  0  0  0
   16.5747   20.0107   21.9194 H   0  0  0  0  0  0  0  0  0  0  0  0
   17.0863   20.4223   23.9718 C   0  0  0  0  0  0  0  0  0  0  0  0
   17.9581   20.5028   24.6311 H   0  0  0  0  0  0  0  0  0  0  0  0
   16.5563   21.3832   23.9974 H   0  0  0  0  0  0  0  0  0  0  0  0
   16.4168   19.6586   24.3886 H   0  0  0  0  0  0  0  0  0  0  0  0
  1  2  1  0  0  0  0
  1  3  2  0  0  0  0
  1  4  1  0  0  0  0
  4  5  1  0  0  0  0
  4  6  1  0  0  0  0
  4  7  1  0  0  0  0
  7  8  1  0  0  0  0
  7  9  1  0  0  0  0
  7 10  1  0  0  0  0
 10 11  1  0  0  0  0
 10 12  1  0  0  0  0
 10 13  1  0  0  0  0
 13 14  1  0  0  0  0
 13 15  1  0  0  0  0
 13 16  1  0  0  0  0
 16 17  1  0  0  0  0
 16 18  1  0  0  0  0
 16 19  1  0  0  0  0
 19 20  1  0  0  0  0
 19 21  1  0  0  0  0
 19 22  1  0  0  0  0
 22 23  1  0  0  0  0
 22 24  1  0  0  0  0
 22 25  1  0  0  0  0
M  END
> <VConfSearch Rank>
672

> <Conf_Id>
19

> <Delta U+W>
3.222

> <U+W>
-48.407

> <U>
10.617

> <W>
-59.025

> <W(PB)>
-61.462

> <W(SA)>
2.437

> <Valence>
11.188

> <Coulomb>
-1.778

> <VdW>
1.208

> <VdW6>
-9.786

> <VdW12>
10.993

> <Bond>
0.241

> <Angle>
3.294

> <Pdih>
7.653

> <Idih>
0.001

> <Tether>
0.000

$$$$
VeraChem MOL file


 25 24  0  0  0  0  0  0  0  0999 V2000     
   22.0320   15.8118   24.8520 C   0  0  0  0  0  0  0  0  0  0  0  0
   22.0690   14.8682   24.0872 O   0  5  0  0  0  0  0  0  0  0  0  0
   22.1811   15.7103   26.0538 O   0  0  0  0  0  0  0  0  0  0  0  0
   21.7602   17.1964   24.2748 C   0  0  0  0  0  0  0  0  0  0  0  0
   22.2118   17.2349   23.2775 H   0  0  0  0  0  0  0  0  0  0  0  0
   22.2825   17.9325   24.8976 H   0  0  0  0  0  0  0  0  0  0  0  0
   20.2471   17.5306   24.2067 C   0  0  0  0  0  0  0  0  0  0  0  0
   19.7415   16.8164   23.5423 H   0  0  0  0  0  0  0  0  0  0  0  0
   19.8116   17.3864   25.2052 H   0  0  0  0  0  0  0  0  0  0  0  0
   19.9504   18.9773   23.7438 C   0  0  0  0  0  0  0  0  0  0  0  0
   20.4772   19.6888   24.3941 H   0  0  0  0  0  0  0  0  0  0  0  0
   18.8770   19.1601   23.8789 H   0  0  0  0  0  0  0  0  0  0  0  0
   20.3238   19.2405   22.2654 C   0  0  0  0  0  0  0  0  0  0  0  0
   21.3810   18.9957   22.1045 H   0  0  0  0  0  0  0  0  0  0  0  0
   19.7484   18.5646   21.6184 H   0  0  0  0  0  0  0  0  0  0  0  0
   20.1032   20.7040   21.8058 C   0  0  0  0  0  0  0  0  0  0  0  0
   20.4514   20.7794   20.7666 H   0  0  0  0  0  0  0  0  0  0  0  0
   20.7461   21.3809   22.3849 H   0  0  0  0  0  0  0  0  0  0  0  0
   18.6319   21.1865   21.8568 C   0  0  0  0  0  0  0  0  0  0  0  0
   18.4437   21.8335   20.9889 H   0  0  0  0  0  0  0  0  0  0  0  0
   17.9469   20.3334   21.7554 H   0  0  0  0  0  0  0  0  0  0  0  0
   18.3005   21.9915   23.1333 C   0  0  0  0  0  0  0  0  0  0  0  0
   18.9279   22.8898   23.2015 H   0  0  0  0  0  0  0  0  0  0  0  0
   17.2517   22.3149   23.1219 H   0  0  0  0  0  0  0  0  0  0  0  0
   18.4589   21.3995   24.0419 H   0  0  0  0  0  0  0  0  0  0  0  0
  1  2  1  0  0  0  0
  1  3  2  0  0  0  0
  1  4  1  0  0  0  0
  4  5  1  0  0  0  0
  4  6  1  0  0  0  0
  4  7  1  0  0  0  0
  7  8  1  0  0  0  0
  7  9  1  0  0  0  0
  7 10  1  0  0  0  0
 10 11  1  0  0  0  0
 10 12  1  0  0  0  0
 10 13  1  0  0  0  0
 13 14  1  0  0  0  0
 13 15  1  0  0  0  0
 13 16  1  0  0  0  0
 16 17  1  0  0  0  0
 16 18  1  0  0  0  0
 16 19  1  0  0  0  0
 19 20  1  0  0  0  0
 19 21  1  0  0  0  0
 19 22  1  0  0  0  0
 22 23  1  0  0  0  0
 22 24  1  0  0  0  0
 22 25  1  0  0  0  0
M  END
> <VConfSearch Rank>
673

> <Conf_Id>
20

> <Delta U+W>
3.224

> <U+W>
-48.406

> <U>
10.617

> <W>
-59.023

> <W(PB)>
-61.467

> <W(SA)>
2.444

> <Valence>
11.188

> <Coulomb>
-1.778

> <VdW>
1.208

> <VdW6>
-9.786

> <VdW12>
10.993

> <Bond>
0.241

> <Angle>
3.294

> <Pdih>
7.653

> <Idih>
0.001

> <Tether>
0.000

$$$$
VeraChem MOL file


 25 24  0  0  0  0  0  0  0  0999 V2000     
   22.1391   19.2528   25.8432 C   0  0  0  0  0  0  0  0  0  0  0  0
   21.7122   19.9453   26.7464 O   0  5  0  0  0  0  0  0  0  0  0  0
   22.9773   19.6297   25.0478 O   0  0  0  0  0  0  0  0  0  0  0  0
   21.6465   17.8105   25.7404 C   0  0  0  0  0  0  0  0  0  0  0  0
   21.9726   17.3075   26.6581 H   0  0  0  0  0  0  0  0  0  0  0  0
   22.1642   17.3153   24.9101 H   0  0  0  0  0  0  0  0  0  0  0  0
   20.1079   17.6441   25.5918 C   0  0  0  0  0  0  0  0  0  0  0  0
   19.8468   16.6207   25.8933 H   0  0  0  0  0  0  0  0  0  0  0  0
   19.5894   18.3082   26.2973 H   0  0  0  0  0  0  0  0  0  0  0  0
   19.5660   17.8658   24.1578 C   0  0  0  0  0  0  0  0  0  0  0  0
   18.5065   17.5753   24.1440 H   0  0  0  0  0  0  0  0  0  0  0  0
   20.0800   17.1909   23.4598 H   0  0  0  0  0  0  0  0  0  0  0  0
   19.6879   19.3226   23.6562 C   0  0  0  0  0  0  0  0  0  0  0  0
   19.2660   20.0071   24.4049 H   0  0  0  0  0  0  0  0  0  0  0  0
   20.7458   19.5885   23.5373 H   0  0  0  0  0  0  0  0  0  0  0  0
   18.9665   19.5240   22.3058 C   0  0  0  0  0  0  0  0  0  0  0  0
   17.9035   19.2686   22.4148 H   0  0  0  0  0  0  0  0  0  0  0  0
   19.3863   18.8354   21.5598 H   0  0  0  0  0  0  0  0  0  0  0  0
   19.0973   20.9756   21.7985 C   0  0  0  0  0  0  0  0  0  0  0  0
   18.6774   21.6669   22.5423 H   0  0  0  0  0  0  0  0  0  0  0  0
   20.1595   21.2342   21.6867 H   0  0  0  0  0  0  0  0  0  0  0  0
   18.3765   21.1736   20.4499 C   0  0  0  0  0  0  0  0  0  0  0  0
   17.3051   20.9519   20.5409 H   0  0  0  0  0  0  0  0  0  0  0  0
   18.4799   22.2105   20.1045 H   0  0  0  0  0  0  0  0  0  0  0  0
   18.7985   20.5158   19.6787 H   0  0  0  0  0  0  0  0  0  0  0  0
  1  2  1  0  0  0  0
  1  3  2  0  0  0  0
  1  4  1  0  0  0  0
  4  5  1  0  0  0  0
  4  6  1  0  0  0  0
  4  7  1  0  0  0  0
  7  8  1  0  0  0  0
  7  9  1  0  0  0  0
  7 10  1  0  0  0  0
 10 11  1  0  0  0  0
 10 12  1  0  0  0  0
 10 13  1  0  0  0  0
 13 14  1  0  0  0  0
 13 15  1  0  0  0  0
 13 16  1  0  0  0  0
 16 17  1  0  0  0  0
 16 18  1  0  0  0  0
 16 19  1  0  0  0  0
 19 20  1  0  0  0  0
 19 21  1  0  0  0  0
 19 22  1  0  0  0  0
 22 23  1  0  0  0  0
 22 24  1  0  0  0  0
 22 25  1  0  0  0  0
M  END
> <VConfSearch Rank>
674

> <Conf_Id>
24

> <Delta U+W>
1.784

> <U+W>
-49.846

> <U>
10.904

> <W>
-60.749

> <W(PB)>
-63.220

> <W(SA)>
2.471

> <Valence>
9.445

> <Coulomb>
0.780

> <VdW>
0.679

> <VdW6>
-10.008

> <VdW12>
10.687

> <Bond>
0.201

> <Angle>
3.198

> <Pdih>
6.039

> <Idih>
0.006

> <Tether>
0.000

$$$$
VeraChem MOL file


 25 24  0  0  0  0  0  0  0  0999 V2000     
   18.0623   19.5693   21.2132 C   0  0  0  0  0  0  0  0  0  0  0  0
   17.1061   20.1119   21.7316 O   0  5  0  0  0  0  0  0  0  0  0  0
   18.9095   20.1663   20.5784 O   0  0  0  0  0  0  0  0  0  0  0  0
   18.1715   18.0485   21.3066 C   0  0  0  0  0  0  0  0  0  0  0  0
   19.0559   17.7196   20.7477 H   0  0  0  0  0  0  0  0  0  0  0  0
   17.2994   17.6442   20.7799 H   0  0  0  0  0  0  0  0  0  0  0  0
   18.2021   17.4731   22.7506 C   0  0  0  0  0  0  0  0  0  0  0  0
   17.4367   17.9657   23.3663 H   0  0  0  0  0  0  0  0  0  0  0  0
   17.9133   16.4146   22.6999 H   0  0  0  0  0  0  0  0  0  0  0  0
   19.5804   17.5527   23.4526 C   0  0  0  0  0  0  0  0  0  0  0  0
   20.3382   17.0482   22.8378 H   0  0  0  0  0  0  0  0  0  0  0  0
   19.5187   16.9867   24.3922 H   0  0  0  0  0  0  0  0  0  0  0  0
   20.0438   18.9926   23.7699 C   0  0  0  0  0  0  0  0  0  0  0  0
   20.2385   19.5357   22.8366 H   0  0  0  0  0  0  0  0  0  0  0  0
   19.2425   19.5308   24.2946 H   0  0  0  0  0  0  0  0  0  0  0  0
   21.3251   19.0034   24.6318 C   0  0  0  0  0  0  0  0  0  0  0  0
   22.1237   18.4606   24.1078 H   0  0  0  0  0  0  0  0  0  0  0  0
   21.1396   18.4692   25.5737 H   0  0  0  0  0  0  0  0  0  0  0  0
   21.7951   20.4407   24.9395 C   0  0  0  0  0  0  0  0  0  0  0  0
   21.9835   20.9778   23.9995 H   0  0  0  0  0  0  0  0  0  0  0  0
   20.9987   20.9862   25.4644 H   0  0  0  0  0  0  0  0  0  0  0  0
   23.0748   20.4484   25.7998 C   0  0  0  0  0  0  0  0  0  0  0  0
   23.8977   19.9360   25.2843 H   0  0  0  0  0  0  0  0  0  0  0  0
   23.3944   21.4776   26.0086 H   0  0  0  0  0  0  0  0  0  0  0  0
   22.9053   19.9446   26.7604 H   0  0  0  0  0  0  0  0  0  0  0  0
  1  2  1  0  0  0  0
  1  3  2  0  0  0  0
  1  4  1  0  0  0  0
  4  5  1  0  0  0  0
  4  6  1  0  0  0  0
  4  7  1  0  0  0  0
  7  8  1  0  0  0  0
  7  9  1  0  0  0  0
  7 10  1  0  0  0  0
 10 11  1  0  0  0  0
 10 12  1  0  0  0  0
 10 13  1  0  0  0  0
 13 14  1  0  0  0  0
 13 15  1  0  0  0  0
 13 16  1  0  0  0  0
 16 17  1  0  0  0  0
 16 18  1  0  0  0  0
 16 19  1  0  0  0  0
 19 20  1  0  0  0  0
 19 21  1  0  0  0  0
 19 22  1  0  0  0  0
 22 23  1  0  0  0  0
 22 24  1  0  0  0  0
 22 25  1  0  0  0  0
M  END
> <VConfSearch Rank>
675

> <Conf_Id>
9

> <Delta U+W>
1.764

> <U+W>
-49.865

> <U>
10.902

> <W>
-60.768

> <W(PB)>
-63.223

> <W(SA)>
2.456

> <Valence>
9.445

> <Coulomb>
0.778

> <VdW>
0.679

> <VdW6>
-10.007

> <VdW12>
10.687

> <Bond>
0.201

> <Angle>
3.198

> <Pdih>
6.040

> <Idih>
0.006

> <Tether>
0.000

$$$$
VeraChem MOL file


 25 24  0  0  0  0  0  0  0  0999 V2000     
   19.1226   22.1343   25.4171 C   0  0  0  0  0  0  0  0  0  0  0  0
   18.9726   21.4582   26.4156 O   0  5  0  0  0  0  0  0  0  0  0  0
   19.2392   23.3438   25.4341 O   0  0  0  0  0  0  0  0  0  0  0  0
   19.1887   21.4242   24.0698 C   0  0  0  0  0  0  0  0  0  0  0  0
   18.7530   22.0899   23.3153 H   0  0  0  0  0  0  0  0  0  0  0  0
   18.5453   20.5408   24.1253 H   0  0  0  0  0  0  0  0  0  0  0  0
   20.6363   21.0382   23.6660 C   0  0  0  0  0  0  0  0  0  0  0  0
   21.2311   21.9610   23.6195 H   0  0  0  0  0  0  0  0  0  0  0  0
   21.0950   20.4184   24.4488 H   0  0  0  0  0  0  0  0  0  0  0  0
   20.7252   20.3224   22.2941 C   0  0  0  0  0  0  0  0  0  0  0  0
   21.6571   20.6371   21.8048 H   0  0  0  0  0  0  0  0  0  0  0  0
   19.9137   20.6593   21.6347 H   0  0  0  0  0  0  0  0  0  0  0  0
   20.7411   18.7750   22.3722 C   0  0  0  0  0  0  0  0  0  0  0  0
   20.8907   18.3801   21.3582 H   0  0  0  0  0  0  0  0  0  0  0  0
   21.6114   18.4551   22.9602 H   0  0  0  0  0  0  0  0  0  0  0  0
   19.4542   18.1557   22.9669 C   0  0  0  0  0  0  0  0  0  0  0  0
   18.5798   18.6001   22.4727 H   0  0  0  0  0  0  0  0  0  0  0  0
   19.3798   18.4069   24.0330 H   0  0  0  0  0  0  0  0  0  0  0  0
   19.3838   16.6193   22.8058 C   0  0  0  0  0  0  0  0  0  0  0  0
   18.4039   16.2717   23.1611 H   0  0  0  0  0  0  0  0  0  0  0  0
   19.4391   16.3547   21.7408 H   0  0  0  0  0  0  0  0  0  0  0  0
   20.4894   15.8737   23.5842 C   0  0  0  0  0  0  0  0  0  0  0  0
   20.4696   16.1422   24.6484 H   0  0  0  0  0  0  0  0  0  0  0  0
   20.3484   14.7879   23.5067 H   0  0  0  0  0  0  0  0  0  0  0  0
   21.4853   16.1088   23.1882 H   0  0  0  0  0  0  0  0  0  0  0  0
  1  2  1  0  0  0  0
  1  3  2  0  0  0  0
  1  4  1  0  0  0  0
  4  5  1  0  0  0  0
  4  6  1  0  0  0  0
  4  7  1  0  0  0  0
  7  8  1  0  0  0  0
  7  9  1  0  0  0  0
  7 10  1  0  0  0  0
 10 11  1  0  0  0  0
 10 12  1  0  0  0  0
 10 13  1  0  0  0  0
 13 14  1  0  0  0  0
 13 15  1  0  0  0  0
 13 16  1  0  0  0  0
 16 17  1  0  0  0  0
 16 18  1  0  0  0  0
 16 19  1  0  0  0  0
 19 20  1  0  0  0  0
 19 21  1  0  0  0  0
 19 22  1  0  0  0  0
 22 23  1  0  0  0  0
 22 24  1  0  0  0  0
 22 25  1  0  0  0  0
M  END
> <VConfSearch Rank>
676

> <Conf_Id>
89

> <Delta U+W>
2.903

> <U+W>
-48.726

> <U>
10.996

> <W>
-59.723

> <W(PB)>
-62.151

> <W(SA)>
2.428

> <Valence>
10.985

> <Coulomb>
-0.995

> <VdW>
1.006

> <VdW6>
-10.062

> <VdW12>
11.069

> <Bond>
0.238

> <Angle>
3.202

> <Pdih>
7.544

> <Idih>
0.001

> <Tether>
0.000

$$$$
VeraChem MOL file


 25 24  0  0  0  0  0  0  0  0999 V2000     
   19.1465   17.0383   26.1588 C   0  0  0  0  0  0  0  0  0  0  0  0
   20.2513   16.7412   26.5690 O   0  5  0  0  0  0  0  0  0  0  0  0
   18.3513   17.7024   26.7947 O   0  0  0  0  0  0  0  0  0  0  0  0
   18.7128   16.4932   24.7994 C   0  0  0  0  0  0  0  0  0  0  0  0
   17.8721   15.8171   24.9935 H   0  0  0  0  0  0  0  0  0  0  0  0
   19.5214   15.8775   24.3872 H   0  0  0  0  0  0  0  0  0  0  0  0
   18.2702   17.5656   23.7642 C   0  0  0  0  0  0  0  0  0  0  0  0
   17.6401   17.0702   23.0133 H   0  0  0  0  0  0  0  0  0  0  0  0
   17.6285   18.3138   24.2499 H   0  0  0  0  0  0  0  0  0  0  0  0
   19.4305   18.2671   23.0148 C   0  0  0  0  0  0  0  0  0  0  0  0
   18.9907   18.8637   22.2060 H   0  0  0  0  0  0  0  0  0  0  0  0
   20.0672   17.5136   22.5317 H   0  0  0  0  0  0  0  0  0  0  0  0
   20.2979   19.1826   23.9124 C   0  0  0  0  0  0  0  0  0  0  0  0
   19.6577   19.8991   24.4449 H   0  0  0  0  0  0  0  0  0  0  0  0
   20.7905   18.5739   24.6803 H   0  0  0  0  0  0  0  0  0  0  0  0
   21.3994   19.9446   23.1368 C   0  0  0  0  0  0  0  0  0  0  0  0
   22.0189   19.2294   22.5787 H   0  0  0  0  0  0  0  0  0  0  0  0
   22.0643   20.4273   23.8661 H   0  0  0  0  0  0  0  0  0  0  0  0
   20.8492   21.0227   22.1753 C   0  0  0  0  0  0  0  0  0  0  0  0
   20.2467   20.5561   21.3854 H   0  0  0  0  0  0  0  0  0  0  0  0
   20.1854   21.7047   22.7244 H   0  0  0  0  0  0  0  0  0  0  0  0
   21.9881   21.8322   21.5229 C   0  0  0  0  0  0  0  0  0  0  0  0
   22.6530   21.1777   20.9442 H   0  0  0  0  0  0  0  0  0  0  0  0
   21.5821   22.5910   20.8413 H   0  0  0  0  0  0  0  0  0  0  0  0
   22.5901   22.3473   22.2829 H   0  0  0  0  0  0  0  0  0  0  0  0
  1  2  1  0  0  0  0
  1  3  2  0  0  0  0
  1  4  1  0  0  0  0
  4  5  1  0  0  0  0
  4  6  1  0  0  0  0
  4  7  1  0  0  0  0
  7  8  1  0  0  0  0
  7  9  1  0  0  0  0
  7 10  1  0  0  0  0
 10 11  1  0  0  0  0
 10 12  1  0  0  0  0
 10 13  1  0  0  0  0
 13 14  1  0  0  0  0
 13 15  1  0  0  0  0
 13 16  1  0  0  0  0
 16 17  1  0  0  0  0
 16 18  1  0  0  0  0
 16 19  1  0  0  0  0
 19 20  1  0  0  0  0
 19 21  1  0  0  0  0
 19 22  1  0  0  0  0
 22 23  1  0  0  0  0
 22 24  1  0  0  0  0
 22 25  1  0  0  0  0
M  END
> <VConfSearch Rank>
677

> <Conf_Id>
114

> <Delta U+W>
2.758

> <U+W>
-48.871

> <U>
11.422

> <W>
-60.293

> <W(PB)>
-62.719

> <W(SA)>
2.425

> <Valence>
10.135

> <Coulomb>
0.369

> <VdW>
0.918

> <VdW6>
-10.482

> <VdW12>
11.400

> <Bond>
0.245

> <Angle>
3.539

> <Pdih>
6.346

> <Idih>
0.006

> <Tether>
0.000

$$$$
VeraChem MOL file


 25 24  0  0  0  0  0  0  0  0999 V2000     
   18.5841   19.8973   20.0274 C   0  0  0  0  0  0  0  0  0  0  0  0
   17.9745   20.9343   20.2010 O   0  5  0  0  0  0  0  0  0  0  0  0
   19.4996   19.7793   19.2368 O   0  0  0  0  0  0  0  0  0  0  0  0
   18.1650   18.6690   20.8302 C   0  0  0  0  0  0  0  0  0  0  0  0
   18.1204   17.8221   20.1355 H   0  0  0  0  0  0  0  0  0  0  0  0
   17.1462   18.8264   21.2045 H   0  0  0  0  0  0  0  0  0  0  0  0
   19.1208   18.3277   22.0028 C   0  0  0  0  0  0  0  0  0  0  0  0
   18.8198   17.3661   22.4400 H   0  0  0  0  0  0  0  0  0  0  0  0
   20.1353   18.1927   21.6055 H   0  0  0  0  0  0  0  0  0  0  0  0
   19.1162   19.4140   23.1051 C   0  0  0  0  0  0  0  0  0  0  0  0
   18.0796   19.5974   23.4191 H   0  0  0  0  0  0  0  0  0  0  0  0
   19.4872   20.3637   22.6956 H   0  0  0  0  0  0  0  0  0  0  0  0
   19.9459   19.0322   24.3543 C   0  0  0  0  0  0  0  0  0  0  0  0
   19.7621   19.7892   25.1272 H   0  0  0  0  0  0  0  0  0  0  0  0
   19.5829   18.0782   24.7600 H   0  0  0  0  0  0  0  0  0  0  0  0
   21.4671   18.9385   24.0788 C   0  0  0  0  0  0  0  0  0  0  0  0
   21.8289   19.8916   23.6697 H   0  0  0  0  0  0  0  0  0  0  0  0
   21.6529   18.1786   23.3093 H   0  0  0  0  0  0  0  0  0  0  0  0
   22.2962   18.5643   25.3298 C   0  0  0  0  0  0  0  0  0  0  0  0
   21.9294   17.6170   25.7486 H   0  0  0  0  0  0  0  0  0  0  0  0
   23.3355   18.3849   25.0215 H   0  0  0  0  0  0  0  0  0  0  0  0
   22.2859   19.6553   26.4227 C   0  0  0  0  0  0  0  0  0  0  0  0
   22.9635   19.3833   27.2423 H   0  0  0  0  0  0  0  0  0  0  0  0
   22.6165   20.6206   26.0176 H   0  0  0  0  0  0  0  0  0  0  0  0
   21.2844   19.7859   26.8508 H   0  0  0  0  0  0  0  0  0  0  0  0
  1  2  1  0  0  0  0
  1  3  2  0  0  0  0
  1  4  1  0  0  0  0
  4  5  1  0  0  0  0
  4  6  1  0  0  0  0
  4  7  1  0  0  0  0
  7  8  1  0  0  0  0
  7  9  1  0  0  0  0
  7 10  1  0  0  0  0
 10 11  1  0  0  0  0
 10 12  1  0  0  0  0
 10 13  1  0  0  0  0
 13 14  1  0  0  0  0
 13 15  1  0  0  0  0
 13 16  1  0  0  0  0
 16 17  1  0  0  0  0
 16 18  1  0  0  0  0
 16 19  1  0  0  0  0
 19 20  1  0  0  0  0
 19 21  1  0  0  0  0
 19 22  1  0  0  0  0
 22 23  1  0  0  0  0
 22 24  1  0  0  0  0
 22 25  1  0  0  0  0
M  END
> <VConfSearch Rank>
678

> <Conf_Id>
87

> <Delta U+W>
1.453

> <U+W>
-50.176

> <U>
9.763

> <W>
-59.940

> <W(PB)>
-62.392

> <W(SA)>
2.452

> <Valence>
8.883

> <Coulomb>
-0.122

> <VdW>
1.003

> <VdW6>
-9.782

> <VdW12>
10.785

> <Bond>
0.212

> <Angle>
2.940

> <Pdih>
5.730

> <Idih>
0.001

> <Tether>
0.000

$$$$
VeraChem MOL file


 25 24  0  0  0  0  0  0  0  0999 V2000     
   19.8248   15.2826   22.3136 C   0  0  0  0  0  0  0  0  0  0  0  0
   20.7256   14.7906   22.9641 O   0  5  0  0  0  0  0  0  0  0  0  0
   18.7981   14.6958   22.0337 O   0  0  0  0  0  0  0  0  0  0  0  0
   19.9836   16.7221   21.8376 C   0  0  0  0  0  0  0  0  0  0  0  0
   19.4648   16.8223   20.8767 H   0  0  0  0  0  0  0  0  0  0  0  0
   21.0489   16.9041   21.6519 H   0  0  0  0  0  0  0  0  0  0  0  0
   19.4349   17.7550   22.8525 C   0  0  0  0  0  0  0  0  0  0  0  0
   18.3700   17.5553   23.0350 H   0  0  0  0  0  0  0  0  0  0  0  0
   19.9548   17.6221   23.8105 H   0  0  0  0  0  0  0  0  0  0  0  0
   19.6148   19.2057   22.3487 C   0  0  0  0  0  0  0  0  0  0  0  0
   19.1485   19.3005   21.3586 H   0  0  0  0  0  0  0  0  0  0  0  0
   20.6819   19.4194   22.2042 H   0  0  0  0  0  0  0  0  0  0  0  0
   18.9869   20.2666   23.2871 C   0  0  0  0  0  0  0  0  0  0  0  0
   19.1050   21.2580   22.8305 H   0  0  0  0  0  0  0  0  0  0  0  0
   17.9038   20.0930   23.3432 H   0  0  0  0  0  0  0  0  0  0  0  0
   19.5584   20.2969   24.7294 C   0  0  0  0  0  0  0  0  0  0  0  0
   19.2958   19.3634   25.2441 H   0  0  0  0  0  0  0  0  0  0  0  0
   19.0532   21.0957   25.2890 H   0  0  0  0  0  0  0  0  0  0  0  0
   21.0890   20.5108   24.8279 C   0  0  0  0  0  0  0  0  0  0  0  0
   21.3782   20.4886   25.8875 H   0  0  0  0  0  0  0  0  0  0  0  0
   21.6187   19.6754   24.3511 H   0  0  0  0  0  0  0  0  0  0  0  0
   21.5594   21.8463   24.2121 C   0  0  0  0  0  0  0  0  0  0  0  0
   21.0298   22.6951   24.6637 H   0  0  0  0  0  0  0  0  0  0  0  0
   22.6345   21.9895   24.3802 H   0  0  0  0  0  0  0  0  0  0  0  0
   21.3858   21.8686   23.1289 H   0  0  0  0  0  0  0  0  0  0  0  0
  1  2  1  0  0  0  0
  1  3  2  0  0  0  0
  1  4  1  0  0  0  0
  4  5  1  0  0  0  0
  4  6  1  0  0  0  0
  4  7  1  0  0  0  0
  7  8  1  0  0  0  0
  7  9  1  0  0  0  0
  7 10  1  0  0  0  0
 10 11  1  0  0  0  0
 10 12  1  0  0  0  0
 10 13  1  0  0  0  0
 13 14  1  0  0  0  0
 13 15  1  0  0  0  0
 13 16  1  0  0  0  0
 16 17  1  0  0  0  0
 16 18  1  0  0  0  0
 16 19  1  0  0  0  0
 19 20  1  0  0  0  0
 19 21  1  0  0  0  0
 19 22  1  0  0  0  0
 22 23  1  0  0  0  0
 22 24  1  0  0  0  0
 22 25  1  0  0  0  0
M  END
> <VConfSearch Rank>
679

> <Conf_Id>
29

> <Delta U+W>
0.850

> <U+W>
-50.780

> <U>
8.646

> <W>
-59.426

> <W(PB)>
-61.868

> <W(SA)>
2.442

> <Valence>
8.924

> <Coulomb>
-1.171

> <VdW>
0.894

> <VdW6>
-10.223

> <VdW12>
11.117

> <Bond>
0.231

> <Angle>
3.232

> <Pdih>
5.461

> <Idih>
0.001

> <Tether>
0.000

$$$$
VeraChem MOL file


 25 24  0  0  0  0  0  0  0  0999 V2000     
   23.1178   19.4038   20.9133 C   0  0  0  0  0  0  0  0  0  0  0  0
   23.8367   18.5255   21.3475 O   0  5  0  0  0  0  0  0  0  0  0  0
   23.5351   20.4243   20.4023 O   0  0  0  0  0  0  0  0  0  0  0  0
   21.6087   19.2239   21.0333 C   0  0  0  0  0  0  0  0  0  0  0  0
   21.3863   18.1525   20.9602 H   0  0  0  0  0  0  0  0  0  0  0  0
   21.1379   19.7126   20.1720 H   0  0  0  0  0  0  0  0  0  0  0  0
   21.0377   19.7985   22.3531 C   0  0  0  0  0  0  0  0  0  0  0  0
   21.5378   19.3087   23.1992 H   0  0  0  0  0  0  0  0  0  0  0  0
   21.2750   20.8693   22.4163 H   0  0  0  0  0  0  0  0  0  0  0  0
   19.5080   19.5964   22.4524 C   0  0  0  0  0  0  0  0  0  0  0  0
   19.2725   18.5243   22.4296 H   0  0  0  0  0  0  0  0  0  0  0  0
   19.0316   20.0318   21.5634 H   0  0  0  0  0  0  0  0  0  0  0  0
   18.8804   20.2475   23.7103 C   0  0  0  0  0  0  0  0  0  0  0  0
   19.0445   21.3327   23.6665 H   0  0  0  0  0  0  0  0  0  0  0  0
   17.7916   20.1106   23.6746 H   0  0  0  0  0  0  0  0  0  0  0  0
   19.4173   19.7204   25.0674 C   0  0  0  0  0  0  0  0  0  0  0  0
   18.8875   20.2385   25.8781 H   0  0  0  0  0  0  0  0  0  0  0  0
   20.4726   20.0034   25.1753 H   0  0  0  0  0  0  0  0  0  0  0  0
   19.2832   18.1925   25.2810 C   0  0  0  0  0  0  0  0  0  0  0  0
   19.8791   17.6527   24.5331 H   0  0  0  0  0  0  0  0  0  0  0  0
   19.7165   17.9360   26.2574 H   0  0  0  0  0  0  0  0  0  0  0  0
   17.8215   17.6967   25.2402 C   0  0  0  0  0  0  0  0  0  0  0  0
   17.3809   17.8370   24.2451 H   0  0  0  0  0  0  0  0  0  0  0  0
   17.7718   16.6264   25.4786 H   0  0  0  0  0  0  0  0  0  0  0  0
   17.2035   18.2355   25.9700 H   0  0  0  0  0  0  0  0  0  0  0  0
  1  2  1  0  0  0  0
  1  3  2  0  0  0  0
  1  4  1  0  0  0  0
  4  5  1  0  0  0  0
  4  6  1  0  0  0  0
  4  7  1  0  0  0  0
  7  8  1  0  0  0  0
  7  9  1  0  0  0  0
  7 10  1  0  0  0  0
 10 11  1  0  0  0  0
 10 12  1  0  0  0  0
 10 13  1  0  0  0  0
 13 14  1  0  0  0  0
 13 15  1  0  0  0  0
 13 16  1  0  0  0  0
 16 17  1  0  0  0  0
 16 18  1  0  0  0  0
 16 19  1  0  0  0  0
 19 20  1  0  0  0  0
 19 21  1  0  0  0  0
 19 22  1  0  0  0  0
 22 23  1  0  0  0  0
 22 24  1  0  0  0  0
 22 25  1  0  0  0  0
M  END
> <VConfSearch Rank>
680

> <Conf_Id>
30

> <Delta U+W>
0.843

> <U+W>
-50.787

> <U>
8.647

> <W>
-59.434

> <W(PB)>
-61.861

> <W(SA)>
2.428

> <Valence>
8.924

> <Coulomb>
-1.170

> <VdW>
0.894

> <VdW6>
-10.224

> <VdW12>
11.118

> <Bond>
0.231

> <Angle>
3.232

> <Pdih>
5.460

> <Idih>
0.000

> <Tether>
0.000

$$$$
VeraChem MOL file


 25 24  0  0  0  0  0  0  0  0999 V2000     
   19.6944   14.8632   24.9700 C   0  0  0  0  0  0  0  0  0  0  0  0
   19.0292   15.2412   25.9151 O   0  5  0  0  0  0  0  0  0  0  0  0
   20.0109   13.7021   24.8032 O   0  0  0  0  0  0  0  0  0  0  0  0
   20.1706   15.8734   23.9250 C   0  0  0  0  0  0  0  0  0  0  0  0
   19.7910   15.5406   22.9519 H   0  0  0  0  0  0  0  0  0  0  0  0
   21.2641   15.8087   23.8823 H   0  0  0  0  0  0  0  0  0  0  0  0
   19.7415   17.3428   24.1809 C   0  0  0  0  0  0  0  0  0  0  0  0
   18.6452   17.3993   24.2289 H   0  0  0  0  0  0  0  0  0  0  0  0
   20.1197   17.6676   25.1602 H   0  0  0  0  0  0  0  0  0  0  0  0
   20.2631   18.2932   23.0812 C   0  0  0  0  0  0  0  0  0  0  0  0
   19.8838   17.9665   22.1032 H   0  0  0  0  0  0  0  0  0  0  0  0
   21.3592   18.2350   23.0350 H   0  0  0  0  0  0  0  0  0  0  0  0
   19.8351   19.7542   23.3377 C   0  0  0  0  0  0  0  0  0  0  0  0
   18.7390   19.8127   23.3839 H   0  0  0  0  0  0  0  0  0  0  0  0
   20.2143   20.0813   24.3156 H   0  0  0  0  0  0  0  0  0  0  0  0
   20.3562   20.7051   22.2385 C   0  0  0  0  0  0  0  0  0  0  0  0
   19.9771   20.3782   21.2604 H   0  0  0  0  0  0  0  0  0  0  0  0
   21.4524   20.6468   22.1921 H   0  0  0  0  0  0  0  0  0  0  0  0
   19.9285   22.1655   22.4947 C   0  0  0  0  0  0  0  0  0  0  0  0
   18.8324   22.2280   22.5398 H   0  0  0  0  0  0  0  0  0  0  0  0
   20.3076   22.4966   23.4715 H   0  0  0  0  0  0  0  0  0  0  0  0
   20.4508   23.1117   21.3950 C   0  0  0  0  0  0  0  0  0  0  0  0
   20.0612   22.8223   20.4102 H   0  0  0  0  0  0  0  0  0  0  0  0
   20.1376   24.1451   21.5929 H   0  0  0  0  0  0  0  0  0  0  0  0
   21.5476   23.0930   21.3489 H   0  0  0  0  0  0  0  0  0  0  0  0
  1  2  1  0  0  0  0
  1  3  2  0  0  0  0
  1  4  1  0  0  0  0
  4  5  1  0  0  0  0
  4  6  1  0  0  0  0
  4  7  1  0  0  0  0
  7  8  1  0  0  0  0
  7  9  1  0  0  0  0
  7 10  1  0  0  0  0
 10 11  1  0  0  0  0
 10 12  1  0  0  0  0
 10 13  1  0  0  0  0
 13 14  1  0  0  0  0
 13 15  1  0  0  0  0
 13 16  1  0  0  0  0
 16 17  1  0  0  0  0
 16 18  1  0  0  0  0
 16 19  1  0  0  0  0
 19 20  1  0  0  0  0
 19 21  1  0  0  0  0
 19 22  1  0  0  0  0
 22 23  1  0  0  0  0
 22 24  1  0  0  0  0
 22 25  1  0  0  0  0
M  END
> <VConfSearch Rank>
681

> <Conf_Id>
0

> <Delta U+W>
0.000

> <U+W>
-51.629

> <U>
6.586

> <W>
-58.216

> <W(PB)>
-60.757

> <W(SA)>
2.541

> <Valence>
8.027

> <Coulomb>
-2.892

> <VdW>
1.451

> <VdW6>
-7.931

> <VdW12>
9.383

> <Bond>
0.149

> <Angle>
2.726

> <Pdih>
5.152

> <Idih>
0.000

> <Tether>
0.000

$$$$
VeraChem MOL file


 25 24  0  0  0  0  0  0  0  0999 V2000     
   17.5644   15.2428   23.3666 C   0  0  0  0  0  0  0  0  0  0  0  0
   16.9796   14.9649   22.3383 O   0  5  0  0  0  0  0  0  0  0  0  0
   17.9840   14.4123   24.1482 O   0  0  0  0  0  0  0  0  0  0  0  0
   17.8052   16.7146   23.6823 C   0  0  0  0  0  0  0  0  0  0  0  0
   17.7913   16.8359   24.7721 H   0  0  0  0  0  0  0  0  0  0  0  0
   16.9631   17.2912   23.2811 H   0  0  0  0  0  0  0  0  0  0  0  0
   19.1401   17.2435   23.1023 C   0  0  0  0  0  0  0  0  0  0  0  0
   19.9715   16.6474   23.5035 H   0  0  0  0  0  0  0  0  0  0  0  0
   19.1434   17.1025   22.0125 H   0  0  0  0  0  0  0  0  0  0  0  0
   19.3607   18.7350   23.4351 C   0  0  0  0  0  0  0  0  0  0  0  0
   19.3558   18.8727   24.5252 H   0  0  0  0  0  0  0  0  0  0  0  0
   18.5273   19.3279   23.0339 H   0  0  0  0  0  0  0  0  0  0  0  0
   20.6921   19.2594   22.8555 C   0  0  0  0  0  0  0  0  0  0  0  0
   21.5257   18.6667   23.2566 H   0  0  0  0  0  0  0  0  0  0  0  0
   20.6972   19.1219   21.7655 H   0  0  0  0  0  0  0  0  0  0  0  0
   20.9133   20.7509   23.1878 C   0  0  0  0  0  0  0  0  0  0  0  0
   20.9084   20.8888   24.2778 H   0  0  0  0  0  0  0  0  0  0  0  0
   20.0799   21.3439   22.7868 H   0  0  0  0  0  0  0  0  0  0  0  0
   22.2440   21.2753   22.6085 C   0  0  0  0  0  0  0  0  0  0  0  0
   23.0804   20.6856   23.0089 H   0  0  0  0  0  0  0  0  0  0  0  0
   22.2519   21.1408   21.5179 H   0  0  0  0  0  0  0  0  0  0  0  0
   22.4613   22.7649   22.9425 C   0  0  0  0  0  0  0  0  0  0  0  0
   23.4114   23.1208   22.5232 H   0  0  0  0  0  0  0  0  0  0  0  0
   21.6547   23.3825   22.5263 H   0  0  0  0  0  0  0  0  0  0  0  0
   22.4894   22.9239   24.0284 H   0  0  0  0  0  0  0  0  0  0  0  0
  1  2  1  0  0  0  0
  1  3  2  0  0  0  0
  1  4  1  0  0  0  0
  4  5  1  0  0  0  0
  4  6  1  0  0  0  0
  4  7  1  0  0  0  0
  7  8  1  0  0  0  0
  7  9  1  0  0  0  0
  7 10  1  0  0  0  0
 10 11  1  0  0  0  0
 10 12  1  0  0  0  0
 10 13  1  0  0  0  0
 13 14  1  0  0  0  0
 13 15  1  0  0  0  0
 13 16  1  0  0  0  0
 16 17  1  0  0  0  0
 16 18  1  0  0  0  0
 16 19  1  0  0  0  0
 19 20  1  0  0  0  0
 19 21  1  0  0  0  0
 19 22  1  0  0  0  0
 22 23  1  0  0  0  0
 22 24  1  0  0  0  0
 22 25  1  0  0  0  0
M  END
> <VConfSearch Rank>
682

> <Conf_Id>
27

> <Delta U+W>
-1.297

> <U+W>
-52.926

> <U>
5.617

> <W>
-58.543

> <W(PB)>
-61.065

> <W(SA)>
2.522

> <Valence>
7.531

> <Coulomb>
-2.818

> <VdW>
0.904

> <VdW6>
-7.640

> <VdW12>
8.544

> <Bond>
0.115

> <Angle>
2.271

> <Pdih>
5.144

> <Idih>
0.001

> <Tether>
0.000

$$$$
VeraChem MOL file


 25 24  0  0  0  0  0  0  0  0999 V2000     
   19.8965   23.0142   22.4884 C   0  0  0  0  0  0  0  0  0  0  0  0
   18.8961   23.2931   21.8571 O   0  5  0  0  0  0  0  0  0  0  0  0
   20.0957   23.3806   23.6299 O   0  0  0  0  0  0  0  0  0  0  0  0
   20.9677   22.1713   21.8020 C   0  0  0  0  0  0  0  0  0  0  0  0
   21.9127   22.2972   22.3441 H   0  0  0  0  0  0  0  0  0  0  0  0
   21.1192   22.5872   20.7990 H   0  0  0  0  0  0  0  0  0  0  0  0
   20.6102   20.6664   21.6906 C   0  0  0  0  0  0  0  0  0  0  0  0
   19.6484   20.5584   21.1701 H   0  0  0  0  0  0  0  0  0  0  0  0
   21.3644   20.1661   21.0681 H   0  0  0  0  0  0  0  0  0  0  0  0
   20.5415   19.9684   23.0674 C   0  0  0  0  0  0  0  0  0  0  0  0
   19.7764   20.4524   23.6902 H   0  0  0  0  0  0  0  0  0  0  0  0
   21.5006   20.0907   23.5892 H   0  0  0  0  0  0  0  0  0  0  0  0
   20.2160   18.4654   22.9309 C   0  0  0  0  0  0  0  0  0  0  0  0
   19.2568   18.3440   22.4091 H   0  0  0  0  0  0  0  0  0  0  0  0
   20.9815   17.9787   22.3110 H   0  0  0  0  0  0  0  0  0  0  0  0
   20.1464   17.7674   24.3064 C   0  0  0  0  0  0  0  0  0  0  0  0
   19.3810   18.2541   24.9264 H   0  0  0  0  0  0  0  0  0  0  0  0
   21.1054   17.8889   24.8285 H   0  0  0  0  0  0  0  0  0  0  0  0
   19.8206   16.2652   24.1704 C   0  0  0  0  0  0  0  0  0  0  0  0
   18.8609   16.1399   23.6501 H   0  0  0  0  0  0  0  0  0  0  0  0
   20.5853   15.7747   23.5523 H   0  0  0  0  0  0  0  0  0  0  0  0
   19.7518   15.5720   25.5461 C   0  0  0  0  0  0  0  0  0  0  0  0
   18.9724   16.0226   26.1745 H   0  0  0  0  0  0  0  0  0  0  0  0
   19.5194   14.5053   25.4307 H   0  0  0  0  0  0  0  0  0  0  0  0
   20.7098   15.6547   26.0760 H   0  0  0  0  0  0  0  0  0  0  0  0
  1  2  1  0  0  0  0
  1  3  2  0  0  0  0
  1  4  1  0  0  0  0
  4  5  1  0  0  0  0
  4  6  1  0  0  0  0
  4  7  1  0  0  0  0
  7  8  1  0  0  0  0
  7  9  1  0  0  0  0
  7 10  1  0  0  0  0
 10 11  1  0  0  0  0
 10 12  1  0  0  0  0
 10 13  1  0  0  0  0
 13 14  1  0  0  0  0
 13 15  1  0  0  0  0
 13 16  1  0  0  0  0
 16 17  1  0  0  0  0
 16 18  1  0  0  0  0
 16 19  1  0  0  0  0
 19 20  1  0  0  0  0
 19 21  1  0  0  0  0
 19 22  1  0  0  0  0
 22 23  1  0  0  0  0
 22 24  1  0  0  0  0
 22 25  1  0  0  0  0
M  END
> <VConfSearch Rank>
683

> <Conf_Id>
37

> <Delta U+W>
-0.230

> <U+W>
-51.860

> <U>
7.816

> <W>
-59.675

> <W(PB)>
-62.180

> <W(SA)>
2.505

> <Valence>
7.785

> <Coulomb>
-0.713

> <VdW>
0.744

> <VdW6>
-8.514

> <VdW12>
9.259

> <Bond>
0.136

> <Angle>
2.433

> <Pdih>
5.216

> <Idih>
0.000

> <Tether>
0.000

$$$$
VeraChem MOL file


 25 24  0  0  0  0  0  0  0  0999 V2000     
   22.4814   16.2615   22.5847 C   0  0  0  0  0  0  0  0  0  0  0  0
   22.2729   15.2856   23.2785 O   0  5  0  0  0  0  0  0  0  0  0  0
   23.4916   16.9334   22.6550 O   0  0  0  0  0  0  0  0  0  0  0  0
   21.4221   16.6532   21.5583 C   0  0  0  0  0  0  0  0  0  0  0  0
   21.1143   15.7379   21.0393 H   0  0  0  0  0  0  0  0  0  0  0  0
   21.8863   17.3035   20.8070 H   0  0  0  0  0  0  0  0  0  0  0  0
   20.1769   17.3456   22.1705 C   0  0  0  0  0  0  0  0  0  0  0  0
   19.4151   17.4656   21.3883 H   0  0  0  0  0  0  0  0  0  0  0  0
   19.7398   16.6943   22.9402 H   0  0  0  0  0  0  0  0  0  0  0  0
   20.5044   18.7278   22.7789 C   0  0  0  0  0  0  0  0  0  0  0  0
   20.9532   19.3705   22.0092 H   0  0  0  0  0  0  0  0  0  0  0  0
   21.2535   18.6138   23.5748 H   0  0  0  0  0  0  0  0  0  0  0  0
   19.2456   19.4123   23.3537 C   0  0  0  0  0  0  0  0  0  0  0  0
   18.4962   19.5300   22.5590 H   0  0  0  0  0  0  0  0  0  0  0  0
   18.7977   18.7689   24.1234 H   0  0  0  0  0  0  0  0  0  0  0  0
   19.5723   20.7931   23.9625 C   0  0  0  0  0  0  0  0  0  0  0  0
   20.0206   21.4367   23.1930 H   0  0  0  0  0  0  0  0  0  0  0  0
   20.3218   20.6757   24.7572 H   0  0  0  0  0  0  0  0  0  0  0  0
   18.3145   21.4775   24.5377 C   0  0  0  0  0  0  0  0  0  0  0  0
   17.5632   21.5983   23.7450 H   0  0  0  0  0  0  0  0  0  0  0  0
   17.8645   20.8374   25.3092 H   0  0  0  0  0  0  0  0  0  0  0  0
   18.6450   22.8560   25.1446 C   0  0  0  0  0  0  0  0  0  0  0  0
   19.0680   23.5278   24.3862 H   0  0  0  0  0  0  0  0  0  0  0  0
   17.7400   23.3279   25.5486 H   0  0  0  0  0  0  0  0  0  0  0  0
   19.3717   22.7612   25.9622 H   0  0  0  0  0  0  0  0  0  0  0  0
  1  2  1  0  0  0  0
  1  3  2  0  0  0  0
  1  4  1  0  0  0  0
  4  5  1  0  0  0  0
  4  6  1  0  0  0  0
  4  7  1  0  0  0  0
  7  8  1  0  0  0  0
  7  9  1  0  0  0  0
  7 10  1  0  0  0  0
 10 11  1  0  0  0  0
 10 12  1  0  0  0  0
 10 13  1  0  0  0  0
 13 14  1  0  0  0  0
 13 15  1  0  0  0  0
 13 16  1  0  0  0  0
 16 17  1  0  0  0  0
 16 18  1  0  0  0  0
 16 19  1  0  0  0  0
 19 20  1  0  0  0  0
 19 21  1  0  0  0  0
 19 22  1  0  0  0  0
 22 23  1  0  0  0  0
 22 24  1  0  0  0  0
 22 25  1  0  0  0  0
M  END
> <VConfSearch Rank>
684

> <Conf_Id>
54

> <Delta U+W>
-0.224

> <U+W>
-51.854

> <U>
7.816

> <W>
-59.670

> <W(PB)>
-62.157

> <W(SA)>
2.487

> <Valence>
7.785

> <Coulomb>
-0.713

> <VdW>
0.744

> <VdW6>
-8.515

> <VdW12>
9.259

> <Bond>
0.136

> <Angle>
2.433

> <Pdih>
5.215

> <Idih>
0.000

> <Tether>
0.000

$$$$
VeraChem MOL file


 25 24  0  0  0  0  0  0  0  0999 V2000     
   18.7575   19.6750   27.0896 C   0  0  0  0  0  0  0  0  0  0  0  0
   19.4710   18.9802   27.7862 O   0  5  0  0  0  0  0  0  0  0  0  0
   18.5248   20.8451   27.3215 O   0  0  0  0  0  0  0  0  0  0  0  0
   18.1018   19.0403   25.8662 C   0  0  0  0  0  0  0  0  0  0  0  0
   17.0471   19.3397   25.8686 H   0  0  0  0  0  0  0  0  0  0  0  0
   18.1226   17.9500   25.9834 H   0  0  0  0  0  0  0  0  0  0  0  0
   18.7521   19.4466   24.5180 C   0  0  0  0  0  0  0  0  0  0  0  0
   18.1216   19.0712   23.7023 H   0  0  0  0  0  0  0  0  0  0  0  0
   18.7611   20.5421   24.4341 H   0  0  0  0  0  0  0  0  0  0  0  0
   20.1905   18.8964   24.3630 C   0  0  0  0  0  0  0  0  0  0  0  0
   20.1745   17.7987   24.4012 H   0  0  0  0  0  0  0  0  0  0  0  0
   20.7952   19.2261   25.2189 H   0  0  0  0  0  0  0  0  0  0  0  0
   20.8950   19.3601   23.0654 C   0  0  0  0  0  0  0  0  0  0  0  0
   20.8940   20.4575   23.0185 H   0  0  0  0  0  0  0  0  0  0  0  0
   21.9467   19.0524   23.1234 H   0  0  0  0  0  0  0  0  0  0  0  0
   20.2615   18.7805   21.7764 C   0  0  0  0  0  0  0  0  0  0  0  0
   19.2117   19.0929   21.7123 H   0  0  0  0  0  0  0  0  0  0  0  0
   20.2582   17.6832   21.8261 H   0  0  0  0  0  0  0  0  0  0  0  0
   20.9750   19.2373   20.4823 C   0  0  0  0  0  0  0  0  0  0  0  0
   20.3863   18.8989   19.6185 H   0  0  0  0  0  0  0  0  0  0  0  0
   20.9914   20.3349   20.4351 H   0  0  0  0  0  0  0  0  0  0  0  0
   22.4123   18.6888   20.3465 C   0  0  0  0  0  0  0  0  0  0  0  0
   23.0734   19.0978   21.1205 H   0  0  0  0  0  0  0  0  0  0  0  0
   22.4242   17.5939   20.4258 H   0  0  0  0  0  0  0  0  0  0  0  0
   22.8360   18.9613   19.3712 H   0  0  0  0  0  0  0  0  0  0  0  0
  1  2  1  0  0  0  0
  1  3  2  0  0  0  0
  1  4  1  0  0  0  0
  4  5  1  0  0  0  0
  4  6  1  0  0  0  0
  4  7  1  0  0  0  0
  7  8  1  0  0  0  0
  7  9  1  0  0  0  0
  7 10  1  0  0  0  0
 10 11  1  0  0  0  0
 10 12  1  0  0  0  0
 10 13  1  0  0  0  0
 13 14  1  0  0  0  0
 13 15  1  0  0  0  0
 13 16  1  0  0  0  0
 16 17  1  0  0  0  0
 16 18  1  0  0  0  0
 16 19  1  0  0  0  0
 19 20  1  0  0  0  0
 19 21  1  0  0  0  0
 19 22  1  0  0  0  0
 22 23  1  0  0  0  0
 22 24  1  0  0  0  0
 22 25  1  0  0  0  0
M  END
> <VConfSearch Rank>
685

> <Conf_Id>
101

> <Delta U+W>
1.534

> <U+W>
-50.095

> <U>
9.416

> <W>
-59.512

> <W(PB)>
-61.988

> <W(SA)>
2.476

> <Valence>
8.939

> <Coulomb>
-0.615

> <VdW>
1.092

> <VdW6>
-9.710

> <VdW12>
10.802

> <Bond>
0.216

> <Angle>
2.979

> <Pdih>
5.743

> <Idih>
0.000

> <Tether>
0.000

$$$$
VeraChem MOL file


 25 24  0  0  0  0  0  0  0  0999 V2000     
   23.0925   16.3846   24.0793 C   0  0  0  0  0  0  0  0  0  0  0  0
   22.5466   15.3192   24.2878 O   0  5  0  0  0  0  0  0  0  0  0  0
   24.2601   16.4915   23.7598 O   0  0  0  0  0  0  0  0  0  0  0  0
   22.2609   17.6564   24.2034 C   0  0  0  0  0  0  0  0  0  0  0  0
   22.9224   18.4635   24.5399 H   0  0  0  0  0  0  0  0  0  0  0  0
   21.5191   17.4926   24.9928 H   0  0  0  0  0  0  0  0  0  0  0  0
   21.5685   18.0516   22.8730 C   0  0  0  0  0  0  0  0  0  0  0  0
   22.3314   18.1105   22.0843 H   0  0  0  0  0  0  0  0  0  0  0  0
   20.8717   17.2575   22.5710 H   0  0  0  0  0  0  0  0  0  0  0  0
   20.8216   19.4052   22.9396 C   0  0  0  0  0  0  0  0  0  0  0  0
   20.4930   19.6607   21.9241 H   0  0  0  0  0  0  0  0  0  0  0  0
   21.5178   20.1957   23.2511 H   0  0  0  0  0  0  0  0  0  0  0  0
   19.5951   19.3857   23.8846 C   0  0  0  0  0  0  0  0  0  0  0  0
   18.8989   18.5963   23.5729 H   0  0  0  0  0  0  0  0  0  0  0  0
   19.9197   19.1222   24.8990 H   0  0  0  0  0  0  0  0  0  0  0  0
   18.8534   20.7445   23.9637 C   0  0  0  0  0  0  0  0  0  0  0  0
   19.5424   21.5028   24.3599 H   0  0  0  0  0  0  0  0  0  0  0  0
   18.0426   20.6586   24.6998 H   0  0  0  0  0  0  0  0  0  0  0  0
   18.2601   21.2591   22.6286 C   0  0  0  0  0  0  0  0  0  0  0  0
   17.7680   22.2236   22.8144 H   0  0  0  0  0  0  0  0  0  0  0  0
   19.0639   21.4641   21.9095 H   0  0  0  0  0  0  0  0  0  0  0  0
   17.2336   20.2914   22.0009 C   0  0  0  0  0  0  0  0  0  0  0  0
   16.4322   20.0531   22.7122 H   0  0  0  0  0  0  0  0  0  0  0  0
   16.7745   20.7420   21.1116 H   0  0  0  0  0  0  0  0  0  0  0  0
   17.7094   19.3528   21.6899 H   0  0  0  0  0  0  0  0  0  0  0  0
  1  2  1  0  0  0  0
  1  3  2  0  0  0  0
  1  4  1  0  0  0  0
  4  5  1  0  0  0  0
  4  6  1  0  0  0  0
  4  7  1  0  0  0  0
  7  8  1  0  0  0  0
  7  9  1  0  0  0  0
  7 10  1  0  0  0  0
 10 11  1  0  0  0  0
 10 12  1  0  0  0  0
 10 13  1  0  0  0  0
 13 14  1  0  0  0  0
 13 15  1  0  0  0  0
 13 16  1  0  0  0  0
 16 17  1  0  0  0  0
 16 18  1  0  0  0  0
 16 19  1  0  0  0  0
 19 20  1  0  0  0  0
 19 21  1  0  0  0  0
 19 22  1  0  0  0  0
 22 23  1  0  0  0  0
 22 24  1  0  0  0  0
 22 25  1  0  0  0  0
M  END
> <VConfSearch Rank>
686

> <Conf_Id>
75

> <Delta U+W>
1.014

> <U+W>
-50.615

> <U>
8.474

> <W>
-59.089

> <W(PB)>
-61.530

> <W(SA)>
2.441

> <Valence>
9.080

> <Coulomb>
-1.772

> <VdW>
1.165

> <VdW6>
-9.830

> <VdW12>
10.996

> <Bond>
0.240

> <Angle>
3.225

> <Pdih>
5.615

> <Idih>
0.001

> <Tether>
0.000

$$$$
VeraChem MOL file


 25 24  0  0  0  0  0  0  0  0999 V2000     
   24.2456   19.4536   22.5066 C   0  0  0  0  0  0  0  0  0  0  0  0
   24.8400   18.9233   23.4242 O   0  5  0  0  0  0  0  0  0  0  0  0
   24.6969   19.5587   21.3832 O   0  0  0  0  0  0  0  0  0  0  0  0
   22.8471   19.9983   22.7742 C   0  0  0  0  0  0  0  0  0  0  0  0
   22.6937   20.8737   22.1318 H   0  0  0  0  0  0  0  0  0  0  0  0
   22.8106   20.3477   23.8130 H   0  0  0  0  0  0  0  0  0  0  0  0
   21.7351   18.9500   22.5236 C   0  0  0  0  0  0  0  0  0  0  0  0
   21.7932   18.6006   21.4834 H   0  0  0  0  0  0  0  0  0  0  0  0
   21.9107   18.0748   23.1645 H   0  0  0  0  0  0  0  0  0  0  0  0
   20.3295   19.5248   22.8028 C   0  0  0  0  0  0  0  0  0  0  0  0
   20.1587   20.3995   22.1605 H   0  0  0  0  0  0  0  0  0  0  0  0
   20.2830   19.8816   23.8386 H   0  0  0  0  0  0  0  0  0  0  0  0
   19.2222   18.4759   22.5454 C   0  0  0  0  0  0  0  0  0  0  0  0
   19.2814   18.1677   21.4925 H   0  0  0  0  0  0  0  0  0  0  0  0
   19.4068   17.5709   23.1400 H   0  0  0  0  0  0  0  0  0  0  0  0
   17.7936   19.0104   22.8210 C   0  0  0  0  0  0  0  0  0  0  0  0
   17.1146   18.5672   22.0798 H   0  0  0  0  0  0  0  0  0  0  0  0
   17.7531   20.0950   22.6515 H   0  0  0  0  0  0  0  0  0  0  0  0
   17.2357   18.6703   24.2253 C   0  0  0  0  0  0  0  0  0  0  0  0
   16.1965   19.0225   24.2820 H   0  0  0  0  0  0  0  0  0  0  0  0
   17.1975   17.5795   24.3519 H   0  0  0  0  0  0  0  0  0  0  0  0
   18.0327   19.2930   25.3903 C   0  0  0  0  0  0  0  0  0  0  0  0
   18.1448   20.3767   25.2565 H   0  0  0  0  0  0  0  0  0  0  0  0
   17.5166   19.1208   26.3436 H   0  0  0  0  0  0  0  0  0  0  0  0
   19.0312   18.8456   25.4700 H   0  0  0  0  0  0  0  0  0  0  0  0
  1  2  1  0  0  0  0
  1  3  2  0  0  0  0
  1  4  1  0  0  0  0
  4  5  1  0  0  0  0
  4  6  1  0  0  0  0
  4  7  1  0  0  0  0
  7  8  1  0  0  0  0
  7  9  1  0  0  0  0
  7 10  1  0  0  0  0
 10 11  1  0  0  0  0
 10 12  1  0  0  0  0
 10 13  1  0  0  0  0
 13 14  1  0  0  0  0
 13 15  1  0  0  0  0
 13 16  1  0  0  0  0
 16 17  1  0  0  0  0
 16 18  1  0  0  0  0
 16 19  1  0  0  0  0
 19 20  1  0  0  0  0
 19 21  1  0  0  0  0
 19 22  1  0  0  0  0
 22 23  1  0  0  0  0
 22 24  1  0  0  0  0
 22 25  1  0  0  0  0
M  END
> <VConfSearch Rank>
687

> <Conf_Id>
125

> <Delta U+W>
2.314

> <U+W>
-49.315

> <U>
9.740

> <W>
-59.054

> <W(PB)>
-61.488

> <W(SA)>
2.433

> <Valence>
10.506

> <Coulomb>
-1.761

> <VdW>
0.994

> <VdW6>
-9.209

> <VdW12>
10.203

> <Bond>
0.193

> <Angle>
2.979

> <Pdih>
7.334

> <Idih>
0.001

> <Tether>
0.000

$$$$
VeraChem MOL file


 25 24  0  0  0  0  0  0  0  0999 V2000     
   20.0123   20.8132   27.0292 C   0  0  0  0  0  0  0  0  0  0  0  0
   18.8612   21.1651   27.1960 O   0  5  0  0  0  0  0  0  0  0  0  0
   20.9158   21.0805   27.7967 O   0  0  0  0  0  0  0  0  0  0  0  0
   20.3462   20.0128   25.7755 C   0  0  0  0  0  0  0  0  0  0  0  0
   19.4756   19.3922   25.5352 H   0  0  0  0  0  0  0  0  0  0  0  0
   21.1737   19.3346   26.0154 H   0  0  0  0  0  0  0  0  0  0  0  0
   20.7247   20.9144   24.5717 C   0  0  0  0  0  0  0  0  0  0  0  0
   19.8716   21.5559   24.3113 H   0  0  0  0  0  0  0  0  0  0  0  0
   21.5372   21.5880   24.8776 H   0  0  0  0  0  0  0  0  0  0  0  0
   21.1821   20.1209   23.3246 C   0  0  0  0  0  0  0  0  0  0  0  0
   22.0412   19.4878   23.5858 H   0  0  0  0  0  0  0  0  0  0  0  0
   21.5402   20.8347   22.5701 H   0  0  0  0  0  0  0  0  0  0  0  0
   20.0639   19.2512   22.7046 C   0  0  0  0  0  0  0  0  0  0  0  0
   19.7467   18.4903   23.4277 H   0  0  0  0  0  0  0  0  0  0  0  0
   19.1878   19.8781   22.4901 H   0  0  0  0  0  0  0  0  0  0  0  0
   20.5350   18.5605   21.4037 C   0  0  0  0  0  0  0  0  0  0  0  0
   21.3821   17.8963   21.6235 H   0  0  0  0  0  0  0  0  0  0  0  0
   20.9105   19.3240   20.7088 H   0  0  0  0  0  0  0  0  0  0  0  0
   19.4193   17.7583   20.6942 C   0  0  0  0  0  0  0  0  0  0  0  0
   18.5725   18.4210   20.4680 H   0  0  0  0  0  0  0  0  0  0  0  0
   19.8015   17.4026   19.7275 H   0  0  0  0  0  0  0  0  0  0  0  0
   18.9251   16.5440   21.5101 C   0  0  0  0  0  0  0  0  0  0  0  0
   18.4271   16.8587   22.4356 H   0  0  0  0  0  0  0  0  0  0  0  0
   18.2025   15.9584   20.9272 H   0  0  0  0  0  0  0  0  0  0  0  0
   19.7602   15.8827   21.7755 H   0  0  0  0  0  0  0  0  0  0  0  0
  1  2  1  0  0  0  0
  1  3  2  0  0  0  0
  1  4  1  0  0  0  0
  4  5  1  0  0  0  0
  4  6  1  0  0  0  0
  4  7  1  0  0  0  0
  7  8  1  0  0  0  0
  7  9  1  0  0  0  0
  7 10  1  0  0  0  0
 10 11  1  0  0  0  0
 10 12  1  0  0  0  0
 10 13  1  0  0  0  0
 13 14  1  0  0  0  0
 13 15  1  0  0  0  0
 13 16  1  0  0  0  0
 16 17  1  0  0  0  0
 16 18  1  0  0  0  0
 16 19  1  0  0  0  0
 19 20  1  0  0  0  0
 19 21  1  0  0  0  0
 19 22  1  0  0  0  0
 22 23  1  0  0  0  0
 22 24  1  0  0  0  0
 22 25  1  0  0  0  0
M  END
> <VConfSearch Rank>
688

> <Conf_Id>
4

> <Delta U+W>
0.189

> <U+W>
-51.441

> <U>
7.701

> <W>
-59.141

> <W(PB)>
-61.609

> <W(SA)>
2.467

> <Valence>
8.550

> <Coulomb>
-1.988

> <VdW>
1.139

> <VdW6>
-8.988

> <VdW12>
10.127

> <Bond>
0.191

> <Angle>
2.738

> <Pdih>
5.621

> <Idih>
0.001

> <Tether>
0.000

$$$$
VeraChem MOL file


 25 24  0  0  0  0  0  0  0  0999 V2000     
   18.9208   20.9042   19.7466 C   0  0  0  0  0  0  0  0  0  0  0  0
   18.0023   21.6513   20.0200 O   0  5  0  0  0  0  0  0  0  0  0  0
   19.4388   20.8479   18.6487 O   0  0  0  0  0  0  0  0  0  0  0  0
   19.4694   20.0043   20.8481 C   0  0  0  0  0  0  0  0  0  0  0  0
   19.8326   19.0802   20.3829 H   0  0  0  0  0  0  0  0  0  0  0  0
   18.6339   19.7328   21.5030 H   0  0  0  0  0  0  0  0  0  0  0  0
   20.6060   20.6769   21.6612 C   0  0  0  0  0  0  0  0  0  0  0  0
   21.3824   21.0207   20.9638 H   0  0  0  0  0  0  0  0  0  0  0  0
   20.2177   21.5755   22.1603 H   0  0  0  0  0  0  0  0  0  0  0  0
   21.2578   19.7392   22.7053 C   0  0  0  0  0  0  0  0  0  0  0  0
   22.1212   20.2561   23.1460 H   0  0  0  0  0  0  0  0  0  0  0  0
   21.6537   18.8465   22.2019 H   0  0  0  0  0  0  0  0  0  0  0  0
   20.2937   19.3141   23.8371 C   0  0  0  0  0  0  0  0  0  0  0  0
   19.8612   20.2084   24.3059 H   0  0  0  0  0  0  0  0  0  0  0  0
   19.4622   18.7376   23.4141 H   0  0  0  0  0  0  0  0  0  0  0  0
   21.0145   18.4661   24.9106 C   0  0  0  0  0  0  0  0  0  0  0  0
   21.8836   19.0248   25.2840 H   0  0  0  0  0  0  0  0  0  0  0  0
   21.4080   17.5478   24.4537 H   0  0  0  0  0  0  0  0  0  0  0  0
   20.1134   18.1005   26.1131 C   0  0  0  0  0  0  0  0  0  0  0  0
   20.7291   17.6058   26.8770 H   0  0  0  0  0  0  0  0  0  0  0  0
   19.7222   19.0171   26.5758 H   0  0  0  0  0  0  0  0  0  0  0  0
   18.9418   17.1669   25.7384 C   0  0  0  0  0  0  0  0  0  0  0  0
   19.3069   16.2567   25.2450 H   0  0  0  0  0  0  0  0  0  0  0  0
   18.3889   16.8652   26.6375 H   0  0  0  0  0  0  0  0  0  0  0  0
   18.2330   17.6638   25.0644 H   0  0  0  0  0  0  0  0  0  0  0  0
  1  2  1  0  0  0  0
  1  3  2  0  0  0  0
  1  4  1  0  0  0  0
  4  5  1  0  0  0  0
  4  6  1  0  0  0  0
  4  7  1  0  0  0  0
  7  8  1  0  0  0  0
  7  9  1  0  0  0  0
  7 10  1  0  0  0  0
 10 11  1  0  0  0  0
 10 12  1  0  0  0  0
 10 13  1  0  0  0  0
 13 14  1  0  0  0  0
 13 15  1  0  0  0  0
 13 16  1  0  0  0  0
 16 17  1  0  0  0  0
 16 18  1  0  0  0  0
 16 19  1  0  0  0  0
 19 20  1  0  0  0  0
 19 21  1  0  0  0  0
 19 22  1  0  0  0  0
 22 23  1  0  0  0  0
 22 24  1  0  0  0  0
 22 25  1  0  0  0  0
M  END
> <VConfSearch Rank>
689

> <Conf_Id>
17

> <Delta U+W>
0.219

> <U+W>
-51.411

> <U>
7.701

> <W>
-59.111

> <W(PB)>
-61.599

> <W(SA)>
2.488

> <Valence>
8.550

> <Coulomb>
-1.988

> <VdW>
1.139

> <VdW6>
-8.988

> <VdW12>
10.127

> <Bond>
0.191

> <Angle>
2.738

> <Pdih>
5.621

> <Idih>
0.001

> <Tether>
0.000

$$$$
VeraChem MOL file


 25 24  0  0  0  0  0  0  0  0999 V2000     
   18.5683   19.6194   26.9000 C   0  0  0  0  0  0  0  0  0  0  0  0
   18.4116   18.5164   27.3857 O   0  5  0  0  0  0  0  0  0  0  0  0
   17.6551   20.3844   26.6594 O   0  0  0  0  0  0  0  0  0  0  0  0
   19.9907   20.0788   26.5925 C   0  0  0  0  0  0  0  0  0  0  0  0
   20.6898   19.4670   27.1754 H   0  0  0  0  0  0  0  0  0  0  0  0
   20.0895   21.1080   26.9572 H   0  0  0  0  0  0  0  0  0  0  0  0
   20.3574   20.0252   25.0867 C   0  0  0  0  0  0  0  0  0  0  0  0
   19.6334   20.6283   24.5230 H   0  0  0  0  0  0  0  0  0  0  0  0
   21.3410   20.4919   24.9421 H   0  0  0  0  0  0  0  0  0  0  0  0
   20.3922   18.5790   24.5371 C   0  0  0  0  0  0  0  0  0  0  0  0
   19.3935   18.1270   24.6124 H   0  0  0  0  0  0  0  0  0  0  0  0
   21.0543   17.9725   25.1700 H   0  0  0  0  0  0  0  0  0  0  0  0
   20.8902   18.4872   23.0752 C   0  0  0  0  0  0  0  0  0  0  0  0
   21.8924   18.9307   22.9991 H   0  0  0  0  0  0  0  0  0  0  0  0
   20.9990   17.4265   22.8110 H   0  0  0  0  0  0  0  0  0  0  0  0
   19.9420   19.1634   22.0579 C   0  0  0  0  0  0  0  0  0  0  0  0
   19.8807   20.2403   22.2612 H   0  0  0  0  0  0  0  0  0  0  0  0
   18.9283   18.7564   22.1745 H   0  0  0  0  0  0  0  0  0  0  0  0
   20.4186   18.9508   20.6055 C   0  0  0  0  0  0  0  0  0  0  0  0
   21.4333   19.3553   20.4861 H   0  0  0  0  0  0  0  0  0  0  0  0
   20.4757   17.8753   20.3875 H   0  0  0  0  0  0  0  0  0  0  0  0
   19.4741   19.6288   19.5926 C   0  0  0  0  0  0  0  0  0  0  0  0
   19.4229   20.7115   19.7670 H   0  0  0  0  0  0  0  0  0  0  0  0
   19.8275   19.4673   18.5659 H   0  0  0  0  0  0  0  0  0  0  0  0
   18.4577   19.2207   19.6693 H   0  0  0  0  0  0  0  0  0  0  0  0
  1  2  1  0  0  0  0
  1  3  2  0  0  0  0
  1  4  1  0  0  0  0
  4  5  1  0  0  0  0
  4  6  1  0  0  0  0
  4  7  1  0  0  0  0
  7  8  1  0  0  0  0
  7  9  1  0  0  0  0
  7 10  1  0  0  0  0
 10 11  1  0  0  0  0
 10 12  1  0  0  0  0
 10 13  1  0  0  0  0
 13 14  1  0  0  0  0
 13 15  1  0  0  0  0
 13 16  1  0  0  0  0
 16 17  1  0  0  0  0
 16 18  1  0  0  0  0
 16 19  1  0  0  0  0
 19 20  1  0  0  0  0
 19 21  1  0  0  0  0
 19 22  1  0  0  0  0
 22 23  1  0  0  0  0
 22 24  1  0  0  0  0
 22 25  1  0  0  0  0
M  END
> <VConfSearch Rank>
690

> <Conf_Id>
142

> <Delta U+W>
0.593

> <U+W>
-51.037

> <U>
8.903

> <W>
-59.940

> <W(PB)>
-62.418

> <W(SA)>
2.478

> <Valence>
8.305

> <Coulomb>
-0.223

> <VdW>
0.821

> <VdW6>
-9.236

> <VdW12>
10.057

> <Bond>
0.173

> <Angle>
2.663

> <Pdih>
5.469

> <Idih>
0.001

> <Tether>
0.000

$$$$
VeraChem MOL file


 25 24  0  0  0  0  0  0  0  0999 V2000     
   20.9579   20.1233   26.7315 C   0  0  0  0  0  0  0  0  0  0  0  0
   20.3828   20.5753   27.7023 O   0  5  0  0  0  0  0  0  0  0  0  0
   21.7719   19.2228   26.7917 O   0  0  0  0  0  0  0  0  0  0  0  0
   20.6601   20.7406   25.3680 C   0  0  0  0  0  0  0  0  0  0  0  0
   21.4390   20.4281   24.6631 H   0  0  0  0  0  0  0  0  0  0  0  0
   20.7552   21.8274   25.4741 H   0  0  0  0  0  0  0  0  0  0  0  0
   19.2507   20.3994   24.8119 C   0  0  0  0  0  0  0  0  0  0  0  0
   18.4943   20.7868   25.5084 H   0  0  0  0  0  0  0  0  0  0  0  0
   19.0940   20.9381   23.8684 H   0  0  0  0  0  0  0  0  0  0  0  0
   18.9962   18.8850   24.5965 C   0  0  0  0  0  0  0  0  0  0  0  0
   17.9769   18.7501   24.2101 H   0  0  0  0  0  0  0  0  0  0  0  0
   19.0190   18.3767   25.5703 H   0  0  0  0  0  0  0  0  0  0  0  0
   19.9915   18.1753   23.6447 C   0  0  0  0  0  0  0  0  0  0  0  0
   21.0024   18.2033   24.0730 H   0  0  0  0  0  0  0  0  0  0  0  0
   19.7165   17.1134   23.5875 H   0  0  0  0  0  0  0  0  0  0  0  0
   20.0101   18.7673   22.2164 C   0  0  0  0  0  0  0  0  0  0  0  0
   20.3537   19.8094   22.2489 H   0  0  0  0  0  0  0  0  0  0  0  0
   18.9897   18.7773   21.8099 H   0  0  0  0  0  0  0  0  0  0  0  0
   20.9321   17.9617   21.2771 C   0  0  0  0  0  0  0  0  0  0  0  0
   21.9530   17.9481   21.6834 H   0  0  0  0  0  0  0  0  0  0  0  0
   20.5930   16.9175   21.2305 H   0  0  0  0  0  0  0  0  0  0  0  0
   20.9543   18.5569   19.8548 C   0  0  0  0  0  0  0  0  0  0  0  0
   21.3206   19.5918   19.8678 H   0  0  0  0  0  0  0  0  0  0  0  0
   21.6141   17.9720   19.2009 H   0  0  0  0  0  0  0  0  0  0  0  0
   19.9495   18.5544   19.4124 H   0  0  0  0  0  0  0  0  0  0  0  0
  1  2  1  0  0  0  0
  1  3  2  0  0  0  0
  1  4  1  0  0  0  0
  4  5  1  0  0  0  0
  4  6  1  0  0  0  0
  4  7  1  0  0  0  0
  7  8  1  0  0  0  0
  7  9  1  0  0  0  0
  7 10  1  0  0  0  0
 10 11  1  0  0  0  0
 10 12  1  0  0  0  0
 10 13  1  0  0  0  0
 13 14  1  0  0  0  0
 13 15  1  0  0  0  0
 13 16  1  0  0  0  0
 16 17  1  0  0  0  0
 16 18  1  0  0  0  0
 16 19  1  0  0  0  0
 19 20  1  0  0  0  0
 19 21  1  0  0  0  0
 19 22  1  0  0  0  0
 22 23  1  0  0  0  0
 22 24  1  0  0  0  0
 22 25  1  0  0  0  0
M  END
> <VConfSearch Rank>
691

> <Conf_Id>
135

> <Delta U+W>
1.314

> <U+W>
-50.316

> <U>
9.773

> <W>
-60.088

> <W(PB)>
-62.535

> <W(SA)>
2.447

> <Valence>
8.741

> <Coulomb>
0.479

> <VdW>
0.552

> <VdW6>
-10.627

> <VdW12>
11.179

> <Bond>
0.227

> <Angle>
3.155

> <Pdih>
5.358

> <Idih>
0.001

> <Tether>
0.000

$$$$
VeraChem MOL file


 25 24  0  0  0  0  0  0  0  0999 V2000     
   23.8789   17.3533   23.1565 C   0  0  0  0  0  0  0  0  0  0  0  0
   24.2518   17.0711   22.0348 O   0  5  0  0  0  0  0  0  0  0  0  0
   24.6268   17.4545   24.1089 O   0  0  0  0  0  0  0  0  0  0  0  0
   22.3936   17.6173   23.3764 C   0  0  0  0  0  0  0  0  0  0  0  0
   22.1408   17.3065   24.3971 H   0  0  0  0  0  0  0  0  0  0  0  0
   21.8361   16.9692   22.6914 H   0  0  0  0  0  0  0  0  0  0  0  0
   22.0111   19.1048   23.1598 C   0  0  0  0  0  0  0  0  0  0  0  0
   22.6583   19.7282   23.7922 H   0  0  0  0  0  0  0  0  0  0  0  0
   22.2236   19.3925   22.1209 H   0  0  0  0  0  0  0  0  0  0  0  0
   20.5353   19.4228   23.5002 C   0  0  0  0  0  0  0  0  0  0  0  0
   20.4094   20.5123   23.4658 H   0  0  0  0  0  0  0  0  0  0  0  0
   20.3182   19.1114   24.5310 H   0  0  0  0  0  0  0  0  0  0  0  0
   19.5236   18.7684   22.5293 C   0  0  0  0  0  0  0  0  0  0  0  0
   19.7105   19.1311   21.5095 H   0  0  0  0  0  0  0  0  0  0  0  0
   19.6865   17.6838   22.5055 H   0  0  0  0  0  0  0  0  0  0  0  0
   18.0388   19.0145   22.8986 C   0  0  0  0  0  0  0  0  0  0  0  0
   17.8169   18.5719   23.8793 H   0  0  0  0  0  0  0  0  0  0  0  0
   17.4232   18.4613   22.1763 H   0  0  0  0  0  0  0  0  0  0  0  0
   17.5991   20.4998   22.8681 C   0  0  0  0  0  0  0  0  0  0  0  0
   18.2274   21.0694   22.1696 H   0  0  0  0  0  0  0  0  0  0  0  0
   16.5755   20.5554   22.4724 H   0  0  0  0  0  0  0  0  0  0  0  0
   17.6087   21.1649   24.2627 C   0  0  0  0  0  0  0  0  0  0  0  0
   18.6072   21.1519   24.7143 H   0  0  0  0  0  0  0  0  0  0  0  0
   17.2863   22.2117   24.1912 H   0  0  0  0  0  0  0  0  0  0  0  0
   16.9221   20.6483   24.9458 H   0  0  0  0  0  0  0  0  0  0  0  0
  1  2  1  0  0  0  0
  1  3  2  0  0  0  0
  1  4  1  0  0  0  0
  4  5  1  0  0  0  0
  4  6  1  0  0  0  0
  4  7  1  0  0  0  0
  7  8  1  0  0  0  0
  7  9  1  0  0  0  0
  7 10  1  0  0  0  0
 10 11  1  0  0  0  0
 10 12  1  0  0  0  0
 10 13  1  0  0  0  0
 13 14  1  0  0  0  0
 13 15  1  0  0  0  0
 13 16  1  0  0  0  0
 16 17  1  0  0  0  0
 16 18  1  0  0  0  0
 16 19  1  0  0  0  0
 19 20  1  0  0  0  0
 19 21  1  0  0  0  0
 19 22  1  0  0  0  0
 22 23  1  0  0  0  0
 22 24  1  0  0  0  0
 22 25  1  0  0  0  0
M  END
> <VConfSearch Rank>
692

> <Conf_Id>
19

> <Delta U+W>
3.222

> <U+W>
-48.407

> <U>
10.617

> <W>
-59.025

> <W(PB)>
-61.462

> <W(SA)>
2.437

> <Valence>
11.188

> <Coulomb>
-1.778

> <VdW>
1.208

> <VdW6>
-9.786

> <VdW12>
10.993

> <Bond>
0.241

> <Angle>
3.294

> <Pdih>
7.653

> <Idih>
0.001

> <Tether>
0.000

$$$$
VeraChem MOL file


 25 24  0  0  0  0  0  0  0  0999 V2000     
   21.6802   15.7786   25.1433 C   0  0  0  0  0  0  0  0  0  0  0  0
   21.7449   15.8766   26.3528 O   0  5  0  0  0  0  0  0  0  0  0  0
   22.3260   14.9768   24.4976 O   0  0  0  0  0  0  0  0  0  0  0  0
   20.7552   16.7295   24.3921 C   0  0  0  0  0  0  0  0  0  0  0  0
   19.8925   16.9316   25.0364 H   0  0  0  0  0  0  0  0  0  0  0  0
   20.3823   16.2085   23.5023 H   0  0  0  0  0  0  0  0  0  0  0  0
   21.4579   18.0506   23.9835 C   0  0  0  0  0  0  0  0  0  0  0  0
   21.7849   18.5880   24.8843 H   0  0  0  0  0  0  0  0  0  0  0  0
   22.3698   17.8029   23.4226 H   0  0  0  0  0  0  0  0  0  0  0  0
   20.5787   18.9777   23.1104 C   0  0  0  0  0  0  0  0  0  0  0  0
   20.2322   18.4307   22.2231 H   0  0  0  0  0  0  0  0  0  0  0  0
   21.2110   19.7985   22.7491 H   0  0  0  0  0  0  0  0  0  0  0  0
   19.3672   19.5717   23.8679 C   0  0  0  0  0  0  0  0  0  0  0  0
   18.7644   18.7588   24.2913 H   0  0  0  0  0  0  0  0  0  0  0  0
   19.7257   20.1659   24.7194 H   0  0  0  0  0  0  0  0  0  0  0  0
   18.4341   20.4429   22.9894 C   0  0  0  0  0  0  0  0  0  0  0  0
   17.5905   20.7598   23.6178 H   0  0  0  0  0  0  0  0  0  0  0  0
   17.9953   19.8333   22.1877 H   0  0  0  0  0  0  0  0  0  0  0  0
   19.0968   21.7119   22.3973 C   0  0  0  0  0  0  0  0  0  0  0  0
   18.3630   22.5297   22.4086 H   0  0  0  0  0  0  0  0  0  0  0  0
   19.9292   22.0404   23.0348 H   0  0  0  0  0  0  0  0  0  0  0  0
   19.5785   21.5227   20.9415 C   0  0  0  0  0  0  0  0  0  0  0  0
   18.7376   21.2711   20.2822 H   0  0  0  0  0  0  0  0  0  0  0  0
   20.0353   22.4469   20.5649 H   0  0  0  0  0  0  0  0  0  0  0  0
   20.3232   20.7229   20.8587 H   0  0  0  0  0  0  0  0  0  0  0  0
  1  2  1  0  0  0  0
  1  3  2  0  0  0  0
  1  4  1  0  0  0  0
  4  5  1  0  0  0  0
  4  6  1  0  0  0  0
  4  7  1  0  0  0  0
  7  8  1  0  0  0  0
  7  9  1  0  0  0  0
  7 10  1  0  0  0  0
 10 11  1  0  0  0  0
 10 12  1  0  0  0  0
 10 13  1  0  0  0  0
 13 14  1  0  0  0  0
 13 15  1  0  0  0  0
 13 16  1  0  0  0  0
 16 17  1  0  0  0  0
 16 18  1  0  0  0  0
 16 19  1  0  0  0  0
 19 20  1  0  0  0  0
 19 21  1  0  0  0  0
 19 22  1  0  0  0  0
 22 23  1  0  0  0  0
 22 24  1  0  0  0  0
 22 25  1  0  0  0  0
M  END
> <VConfSearch Rank>
693

> <Conf_Id>
20

> <Delta U+W>
3.224

> <U+W>
-48.406

> <U>
10.617

> <W>
-59.023

> <W(PB)>
-61.467

> <W(SA)>
2.444

> <Valence>
11.188

> <Coulomb>
-1.778

> <VdW>
1.208

> <VdW6>
-9.786

> <VdW12>
10.993

> <Bond>
0.241

> <Angle>
3.294

> <Pdih>
7.653

> <Idih>
0.001

> <Tether>
0.000

$$$$
VeraChem MOL file


 25 24  0  0  0  0  0  0  0  0999 V2000     
   20.4475   17.2750   26.0089 C   0  0  0  0  0  0  0  0  0  0  0  0
   21.0929   16.3525   25.5505 O   0  5  0  0  0  0  0  0  0  0  0  0
   19.2592   17.2054   26.2543 O   0  0  0  0  0  0  0  0  0  0  0  0
   21.1798   18.5694   26.3575 C   0  0  0  0  0  0  0  0  0  0  0  0
   21.9007   18.3136   27.1427 H   0  0  0  0  0  0  0  0  0  0  0  0
   20.4668   19.2734   26.8034 H   0  0  0  0  0  0  0  0  0  0  0  0
   21.9352   19.2428   25.1772 C   0  0  0  0  0  0  0  0  0  0  0  0
   22.6936   19.9156   25.5999 H   0  0  0  0  0  0  0  0  0  0  0  0
   22.4888   18.4849   24.6057 H   0  0  0  0  0  0  0  0  0  0  0  0
   21.0420   20.0774   24.2261 C   0  0  0  0  0  0  0  0  0  0  0  0
   21.6969   20.6218   23.5320 H   0  0  0  0  0  0  0  0  0  0  0  0
   20.5006   20.8404   24.8019 H   0  0  0  0  0  0  0  0  0  0  0  0
   20.0379   19.2369   23.4052 C   0  0  0  0  0  0  0  0  0  0  0  0
   20.5661   18.4094   22.9119 H   0  0  0  0  0  0  0  0  0  0  0  0
   19.2921   18.7892   24.0740 H   0  0  0  0  0  0  0  0  0  0  0  0
   19.3100   20.0916   22.3449 C   0  0  0  0  0  0  0  0  0  0  0  0
   20.0468   20.5387   21.6635 H   0  0  0  0  0  0  0  0  0  0  0  0
   18.7865   20.9212   22.8395 H   0  0  0  0  0  0  0  0  0  0  0  0
   18.2989   19.2557   21.5323 C   0  0  0  0  0  0  0  0  0  0  0  0
   18.8197   18.4253   21.0356 H   0  0  0  0  0  0  0  0  0  0  0  0
   17.5591   18.8081   22.2104 H   0  0  0  0  0  0  0  0  0  0  0  0
   17.5733   20.1118   20.4748 C   0  0  0  0  0  0  0  0  0  0  0  0
   18.2879   20.5466   19.7637 H   0  0  0  0  0  0  0  0  0  0  0  0
   16.8588   19.5017   19.9070 H   0  0  0  0  0  0  0  0  0  0  0  0
   17.0178   20.9323   20.9476 H   0  0  0  0  0  0  0  0  0  0  0  0
  1  2  1  0  0  0  0
  1  3  2  0  0  0  0
  1  4  1  0  0  0  0
  4  5  1  0  0  0  0
  4  6  1  0  0  0  0
  4  7  1  0  0  0  0
  7  8  1  0  0  0  0
  7  9  1  0  0  0  0
  7 10  1  0  0  0  0
 10 11  1  0  0  0  0
 10 12  1  0  0  0  0
 10 13  1  0  0  0  0
 13 14  1  0  0  0  0
 13 15  1  0  0  0  0
 13 16  1  0  0  0  0
 16 17  1  0  0  0  0
 16 18  1  0  0  0  0
 16 19  1  0  0  0  0
 19 20  1  0  0  0  0
 19 21  1  0  0  0  0
 19 22  1  0  0  0  0
 22 23  1  0  0  0  0
 22 24  1  0  0  0  0
 22 25  1  0  0  0  0
M  END
> <VConfSearch Rank>
694

> <Conf_Id>
24

> <Delta U+W>
1.784

> <U+W>
-49.846

> <U>
10.904

> <W>
-60.749

> <W(PB)>
-63.220

> <W(SA)>
2.471

> <Valence>
9.445

> <Coulomb>
0.780

> <VdW>
0.679

> <VdW6>
-10.008

> <VdW12>
10.687

> <Bond>
0.201

> <Angle>
3.198

> <Pdih>
6.039

> <Idih>
0.006

> <Tether>
0.000

$$$$
VeraChem MOL file


 25 24  0  0  0  0  0  0  0  0999 V2000     
   22.7065   18.7169   21.6639 C   0  0  0  0  0  0  0  0  0  0  0  0
   23.0990   17.5733   21.7889 O   0  5  0  0  0  0  0  0  0  0  0  0
   22.0631   19.1045   20.7084 O   0  0  0  0  0  0  0  0  0  0  0  0
   23.0980   19.7383   22.7302 C   0  0  0  0  0  0  0  0  0  0  0  0
   22.7094   20.7223   22.4410 H   0  0  0  0  0  0  0  0  0  0  0  0
   24.1913   19.8116   22.6998 H   0  0  0  0  0  0  0  0  0  0  0  0
   22.6546   19.3884   24.1786 C   0  0  0  0  0  0  0  0  0  0  0  0
   22.8631   18.3301   24.3888 H   0  0  0  0  0  0  0  0  0  0  0  0
   23.2816   19.9633   24.8734 H   0  0  0  0  0  0  0  0  0  0  0  0
   21.1746   19.7121   24.5010 C   0  0  0  0  0  0  0  0  0  0  0  0
   20.9761   20.7738   24.3002 H   0  0  0  0  0  0  0  0  0  0  0  0
   21.0201   19.5680   25.5791 H   0  0  0  0  0  0  0  0  0  0  0  0
   20.1567   18.8393   23.7326 C   0  0  0  0  0  0  0  0  0  0  0  0
   20.2051   19.0669   22.6603 H   0  0  0  0  0  0  0  0  0  0  0  0
   20.4184   17.7786   23.8487 H   0  0  0  0  0  0  0  0  0  0  0  0
   18.7134   19.0737   24.2292 C   0  0  0  0  0  0  0  0  0  0  0  0
   18.4552   20.1356   24.1168 H   0  0  0  0  0  0  0  0  0  0  0  0
   18.6506   18.8406   25.3010 H   0  0  0  0  0  0  0  0  0  0  0  0
   17.6949   18.2110   23.4547 C   0  0  0  0  0  0  0  0  0  0  0  0
   17.7536   18.4428   22.3821 H   0  0  0  0  0  0  0  0  0  0  0  0
   17.9500   17.1480   23.5657 H   0  0  0  0  0  0  0  0  0  0  0  0
   16.2548   18.4475   23.9524 C   0  0  0  0  0  0  0  0  0  0  0  0
   15.9622   19.4978   23.8237 H   0  0  0  0  0  0  0  0  0  0  0  0
   15.5446   17.8266   23.3910 H   0  0  0  0  0  0  0  0  0  0  0  0
   16.1601   18.1931   25.0163 H   0  0  0  0  0  0  0  0  0  0  0  0
  1  2  1  0  0  0  0
  1  3  2  0  0  0  0
  1  4  1  0  0  0  0
  4  5  1  0  0  0  0
  4  6  1  0  0  0  0
  4  7  1  0  0  0  0
  7  8  1  0  0  0  0
  7  9  1  0  0  0  0
  7 10  1  0  0  0  0
 10 11  1  0  0  0  0
 10 12  1  0  0  0  0
 10 13  1  0  0  0  0
 13 14  1  0  0  0  0
 13 15  1  0  0  0  0
 13 16  1  0  0  0  0
 16 17  1  0  0  0  0
 16 18  1  0  0  0  0
 16 19  1  0  0  0  0
 19 20  1  0  0  0  0
 19 21  1  0  0  0  0
 19 22  1  0  0  0  0
 22 23  1  0  0  0  0
 22 24  1  0  0  0  0
 22 25  1  0  0  0  0
M  END
> <VConfSearch Rank>
695

> <Conf_Id>
9

> <Delta U+W>
1.764

> <U+W>
-49.865

> <U>
10.902

> <W>
-60.768

> <W(PB)>
-63.223

> <W(SA)>
2.456

> <Valence>
9.445

> <Coulomb>
0.778

> <VdW>
0.679

> <VdW6>
-10.007

> <VdW12>
10.687

> <Bond>
0.201

> <Angle>
3.198

> <Pdih>
6.040

> <Idih>
0.006

> <Tether>
0.000

$$$$
VeraChem MOL file


 25 24  0  0  0  0  0  0  0  0999 V2000     
   17.6712   20.4206   25.9901 C   0  0  0  0  0  0  0  0  0  0  0  0
   17.4877   19.2999   26.4226 O   0  5  0  0  0  0  0  0  0  0  0  0
   17.3710   21.4324   26.5926 O   0  0  0  0  0  0  0  0  0  0  0  0
   18.3333   20.5661   24.6247 C   0  0  0  0  0  0  0  0  0  0  0  0
   17.9248   21.4635   24.1450 H   0  0  0  0  0  0  0  0  0  0  0  0
   18.0298   19.7112   24.0129 H   0  0  0  0  0  0  0  0  0  0  0  0
   19.8789   20.6689   24.7159 C   0  0  0  0  0  0  0  0  0  0  0  0
   20.1231   21.5447   25.3330 H   0  0  0  0  0  0  0  0  0  0  0  0
   20.2853   19.7976   25.2480 H   0  0  0  0  0  0  0  0  0  0  0  0
   20.5702   20.8261   23.3376 C   0  0  0  0  0  0  0  0  0  0  0  0
   21.4410   21.4835   23.4657 H   0  0  0  0  0  0  0  0  0  0  0  0
   19.9053   21.3459   22.6344 H   0  0  0  0  0  0  0  0  0  0  0  0
   21.0760   19.5013   22.7132 C   0  0  0  0  0  0  0  0  0  0  0  0
   21.6183   19.7409   21.7886 H   0  0  0  0  0  0  0  0  0  0  0  0
   21.8080   19.0427   23.3910 H   0  0  0  0  0  0  0  0  0  0  0  0
   19.9568   18.4838   22.3890 C   0  0  0  0  0  0  0  0  0  0  0  0
   19.1543   18.9948   21.8401 H   0  0  0  0  0  0  0  0  0  0  0  0
   19.5158   18.1075   23.3213 H   0  0  0  0  0  0  0  0  0  0  0  0
   20.4462   17.2847   21.5439 C   0  0  0  0  0  0  0  0  0  0  0  0
   19.5794   16.6654   21.2749 H   0  0  0  0  0  0  0  0  0  0  0  0
   20.8741   17.6466   20.5988 H   0  0  0  0  0  0  0  0  0  0  0  0
   21.4799   16.4034   22.2780 C   0  0  0  0  0  0  0  0  0  0  0  0
   21.0830   16.0503   23.2387 H   0  0  0  0  0  0  0  0  0  0  0  0
   21.7334   15.5234   21.6728 H   0  0  0  0  0  0  0  0  0  0  0  0
   22.4094   16.9535   22.4708 H   0  0  0  0  0  0  0  0  0  0  0  0
  1  2  1  0  0  0  0
  1  3  2  0  0  0  0
  1  4  1  0  0  0  0
  4  5  1  0  0  0  0
  4  6  1  0  0  0  0
  4  7  1  0  0  0  0
  7  8  1  0  0  0  0
  7  9  1  0  0  0  0
  7 10  1  0  0  0  0
 10 11  1  0  0  0  0
 10 12  1  0  0  0  0
 10 13  1  0  0  0  0
 13 14  1  0  0  0  0
 13 15  1  0  0  0  0
 13 16  1  0  0  0  0
 16 17  1  0  0  0  0
 16 18  1  0  0  0  0
 16 19  1  0  0  0  0
 19 20  1  0  0  0  0
 19 21  1  0  0  0  0
 19 22  1  0  0  0  0
 22 23  1  0  0  0  0
 22 24  1  0  0  0  0
 22 25  1  0  0  0  0
M  END
> <VConfSearch Rank>
696

> <Conf_Id>
89

> <Delta U+W>
2.903

> <U+W>
-48.726

> <U>
10.996

> <W>
-59.723

> <W(PB)>
-62.151

> <W(SA)>
2.428

> <Valence>
10.985

> <Coulomb>
-0.995

> <VdW>
1.006

> <VdW6>
-10.062

> <VdW12>
11.069

> <Bond>
0.238

> <Angle>
3.202

> <Pdih>
7.544

> <Idih>
0.001

> <Tether>
0.000

$$$$
VeraChem MOL file


 25 24  0  0  0  0  0  0  0  0999 V2000     
   21.9852   16.6918   25.2020 C   0  0  0  0  0  0  0  0  0  0  0  0
   22.5062   16.1377   24.2540 O   0  5  0  0  0  0  0  0  0  0  0  0
   22.6065   17.3248   26.0331 O   0  0  0  0  0  0  0  0  0  0  0  0
   20.4784   16.5283   25.3922 C   0  0  0  0  0  0  0  0  0  0  0  0
   20.3454   15.9727   26.3277 H   0  0  0  0  0  0  0  0  0  0  0  0
   20.0844   15.8918   24.5908 H   0  0  0  0  0  0  0  0  0  0  0  0
   19.6715   17.8550   25.4732 C   0  0  0  0  0  0  0  0  0  0  0  0
   18.7205   17.6412   25.9796 H   0  0  0  0  0  0  0  0  0  0  0  0
   20.1983   18.5762   26.1134 H   0  0  0  0  0  0  0  0  0  0  0  0
   19.3402   18.5019   24.1051 C   0  0  0  0  0  0  0  0  0  0  0  0
   18.6340   19.3213   24.2876 H   0  0  0  0  0  0  0  0  0  0  0  0
   18.8137   17.7757   23.4710 H   0  0  0  0  0  0  0  0  0  0  0  0
   20.5764   19.0501   23.3517 C   0  0  0  0  0  0  0  0  0  0  0  0
   21.1404   19.7306   24.0042 H   0  0  0  0  0  0  0  0  0  0  0  0
   21.2504   18.2191   23.1107 H   0  0  0  0  0  0  0  0  0  0  0  0
   20.2242   19.7704   22.0279 C   0  0  0  0  0  0  0  0  0  0  0  0
   19.6323   19.1001   21.3898 H   0  0  0  0  0  0  0  0  0  0  0  0
   21.1578   19.9708   21.4847 H   0  0  0  0  0  0  0  0  0  0  0  0
   19.4691   21.1043   22.2285 C   0  0  0  0  0  0  0  0  0  0  0  0
   18.4930   20.9222   22.6962 H   0  0  0  0  0  0  0  0  0  0  0  0
   20.0362   21.7518   22.9114 H   0  0  0  0  0  0  0  0  0  0  0  0
   19.2526   21.8379   20.8895 C   0  0  0  0  0  0  0  0  0  0  0  0
   18.6642   21.2230   20.1959 H   0  0  0  0  0  0  0  0  0  0  0  0
   18.7131   22.7807   21.0479 H   0  0  0  0  0  0  0  0  0  0  0  0
   20.2119   22.0731   20.4102 H   0  0  0  0  0  0  0  0  0  0  0  0
  1  2  1  0  0  0  0
  1  3  2  0  0  0  0
  1  4  1  0  0  0  0
  4  5  1  0  0  0  0
  4  6  1  0  0  0  0
  4  7  1  0  0  0  0
  7  8  1  0  0  0  0
  7  9  1  0  0  0  0
  7 10  1  0  0  0  0
 10 11  1  0  0  0  0
 10 12  1  0  0  0  0
 10 13  1  0  0  0  0
 13 14  1  0  0  0  0
 13 15  1  0  0  0  0
 13 16  1  0  0  0  0
 16 17  1  0  0  0  0
 16 18  1  0  0  0  0
 16 19  1  0  0  0  0
 19 20  1  0  0  0  0
 19 21  1  0  0  0  0
 19 22  1  0  0  0  0
 22 23  1  0  0  0  0
 22 24  1  0  0  0  0
 22 25  1  0  0  0  0
M  END
> <VConfSearch Rank>
697

> <Conf_Id>
114

> <Delta U+W>
2.758

> <U+W>
-48.871

> <U>
11.422

> <W>
-60.293

> <W(PB)>
-62.719

> <W(SA)>
2.425

> <Valence>
10.135

> <Coulomb>
0.369

> <VdW>
0.918

> <VdW6>
-10.482

> <VdW12>
11.400

> <Bond>
0.245

> <Angle>
3.539

> <Pdih>
6.346

> <Idih>
0.006

> <Tether>
0.000

$$$$
VeraChem MOL file


 25 24  0  0  0  0  0  0  0  0999 V2000     
   23.0357   17.7693   21.1792 C   0  0  0  0  0  0  0  0  0  0  0  0
   23.8831   17.3532   21.9447 O   0  5  0  0  0  0  0  0  0  0  0  0
   22.4583   17.0700   20.3701 O   0  0  0  0  0  0  0  0  0  0  0  0
   22.6910   19.2553   21.2205 C   0  0  0  0  0  0  0  0  0  0  0  0
   22.6555   19.6131   20.1847 H   0  0  0  0  0  0  0  0  0  0  0  0
   23.5111   19.7913   21.7134 H   0  0  0  0  0  0  0  0  0  0  0  0
   21.3451   19.5697   21.9237 C   0  0  0  0  0  0  0  0  0  0  0  0
   21.1153   20.6358   21.7939 H   0  0  0  0  0  0  0  0  0  0  0  0
   20.5445   19.0086   21.4242 H   0  0  0  0  0  0  0  0  0  0  0  0
   21.3741   19.2334   23.4341 C   0  0  0  0  0  0  0  0  0  0  0  0
   22.2391   19.7318   23.8926 H   0  0  0  0  0  0  0  0  0  0  0  0
   21.5295   18.1547   23.5741 H   0  0  0  0  0  0  0  0  0  0  0  0
   20.0980   19.6729   24.1911 C   0  0  0  0  0  0  0  0  0  0  0  0
   20.2741   19.5277   25.2644 H   0  0  0  0  0  0  0  0  0  0  0  0
   19.9354   20.7493   24.0449 H   0  0  0  0  0  0  0  0  0  0  0  0
   18.8302   18.8902   23.7682 C   0  0  0  0  0  0  0  0  0  0  0  0
   18.9947   17.8136   23.9112 H   0  0  0  0  0  0  0  0  0  0  0  0
   18.6503   19.0381   22.6959 H   0  0  0  0  0  0  0  0  0  0  0  0
   17.5567   19.3249   24.5308 C   0  0  0  0  0  0  0  0  0  0  0  0
   17.3956   20.4038   24.3995 H   0  0  0  0  0  0  0  0  0  0  0  0
   16.6890   18.8248   24.0791 H   0  0  0  0  0  0  0  0  0  0  0  0
   17.5956   18.9838   26.0365 C   0  0  0  0  0  0  0  0  0  0  0  0
   16.6345   19.2242   26.5090 H   0  0  0  0  0  0  0  0  0  0  0  0
   17.7904   17.9147   26.1923 H   0  0  0  0  0  0  0  0  0  0  0  0
   18.3731   19.5555   26.5581 H   0  0  0  0  0  0  0  0  0  0  0  0
  1  2  1  0  0  0  0
  1  3  2  0  0  0  0
  1  4  1  0  0  0  0
  4  5  1  0  0  0  0
  4  6  1  0  0  0  0
  4  7  1  0  0  0  0
  7  8  1  0  0  0  0
  7  9  1  0  0  0  0
  7 10  1  0  0  0  0
 10 11  1  0  0  0  0
 10 12  1  0  0  0  0
 10 13  1  0  0  0  0
 13 14  1  0  0  0  0
 13 15  1  0  0  0  0
 13 16  1  0  0  0  0
 16 17  1  0  0  0  0
 16 18  1  0  0  0  0
 16 19  1  0  0  0  0
 19 20  1  0  0  0  0
 19 21  1  0  0  0  0
 19 22  1  0  0  0  0
 22 23  1  0  0  0  0
 22 24  1  0  0  0  0
 22 25  1  0  0  0  0
M  END
> <VConfSearch Rank>
698

> <Conf_Id>
87

> <Delta U+W>
1.453

> <U+W>
-50.176

> <U>
9.763

> <W>
-59.940

> <W(PB)>
-62.392

> <W(SA)>
2.452

> <Valence>
8.883

> <Coulomb>
-0.122

> <VdW>
1.003

> <VdW6>
-9.782

> <VdW12>
10.785

> <Bond>
0.212

> <Angle>
2.940

> <Pdih>
5.730

> <Idih>
0.001

> <Tether>
0.000

$$$$
VeraChem MOL file


 25 24  0  0  0  0  0  0  0  0999 V2000     
   22.5046   16.8123   25.4608 C   0  0  0  0  0  0  0  0  0  0  0  0
   23.1859   16.3005   24.5945 O   0  5  0  0  0  0  0  0  0  0  0  0
   22.9144   17.0701   26.5753 O   0  0  0  0  0  0  0  0  0  0  0  0
   21.0606   17.1677   25.1249 C   0  0  0  0  0  0  0  0  0  0  0  0
   20.4618   17.0576   26.0369 H   0  0  0  0  0  0  0  0  0  0  0  0
   20.6882   16.4326   24.4013 H   0  0  0  0  0  0  0  0  0  0  0  0
   20.9106   18.5999   24.5556 C   0  0  0  0  0  0  0  0  0  0  0  0
   21.2951   19.3241   25.2870 H   0  0  0  0  0  0  0  0  0  0  0  0
   21.5335   18.6914   23.6560 H   0  0  0  0  0  0  0  0  0  0  0  0
   19.4388   18.9316   24.2172 C   0  0  0  0  0  0  0  0  0  0  0  0
   18.8211   18.7674   25.1106 H   0  0  0  0  0  0  0  0  0  0  0  0
   19.0658   18.2331   23.4567 H   0  0  0  0  0  0  0  0  0  0  0  0
   19.2294   20.3909   23.7409 C   0  0  0  0  0  0  0  0  0  0  0  0
   18.1568   20.5608   23.5800 H   0  0  0  0  0  0  0  0  0  0  0  0
   19.5194   21.0730   24.5516 H   0  0  0  0  0  0  0  0  0  0  0  0
   20.0077   20.7876   22.4585 C   0  0  0  0  0  0  0  0  0  0  0  0
   21.0851   20.7762   22.6691 H   0  0  0  0  0  0  0  0  0  0  0  0
   19.7654   21.8300   22.2108 H   0  0  0  0  0  0  0  0  0  0  0  0
   19.7295   19.9032   21.2181 C   0  0  0  0  0  0  0  0  0  0  0  0
   20.3508   20.2615   20.3859 H   0  0  0  0  0  0  0  0  0  0  0  0
   20.0476   18.8702   21.4116 H   0  0  0  0  0  0  0  0  0  0  0  0
   18.2499   19.9193   20.7767 C   0  0  0  0  0  0  0  0  0  0  0  0
   17.9060   20.9455   20.5934 H   0  0  0  0  0  0  0  0  0  0  0  0
   18.1193   19.3474   19.8490 H   0  0  0  0  0  0  0  0  0  0  0  0
   17.6017   19.4695   21.5392 H   0  0  0  0  0  0  0  0  0  0  0  0
  1  2  1  0  0  0  0
  1  3  2  0  0  0  0
  1  4  1  0  0  0  0
  4  5  1  0  0  0  0
  4  6  1  0  0  0  0
  4  7  1  0  0  0  0
  7  8  1  0  0  0  0
  7  9  1  0  0  0  0
  7 10  1  0  0  0  0
 10 11  1  0  0  0  0
 10 12  1  0  0  0  0
 10 13  1  0  0  0  0
 13 14  1  0  0  0  0
 13 15  1  0  0  0  0
 13 16  1  0  0  0  0
 16 17  1  0  0  0  0
 16 18  1  0  0  0  0
 16 19  1  0  0  0  0
 19 20  1  0  0  0  0
 19 21  1  0  0  0  0
 19 22  1  0  0  0  0
 22 23  1  0  0  0  0
 22 24  1  0  0  0  0
 22 25  1  0  0  0  0
M  END
> <VConfSearch Rank>
699

> <Conf_Id>
29

> <Delta U+W>
0.850

> <U+W>
-50.780

> <U>
8.646

> <W>
-59.426

> <W(PB)>
-61.868

> <W(SA)>
2.442

> <Valence>
8.924

> <Coulomb>
-1.171

> <VdW>
0.894

> <VdW6>
-10.223

> <VdW12>
11.117

> <Bond>
0.231

> <Angle>
3.232

> <Pdih>
5.461

> <Idih>
0.001

> <Tether>
0.000

$$$$
VeraChem MOL file


 25 24  0  0  0  0  0  0  0  0999 V2000     
   18.8652   16.8948   26.3716 C   0  0  0  0  0  0  0  0  0  0  0  0
   17.6740   16.7731   26.1647 O   0  5  0  0  0  0  0  0  0  0  0  0
   19.3572   16.9132   27.4826 O   0  0  0  0  0  0  0  0  0  0  0  0
   19.7920   17.0521   25.1713 C   0  0  0  0  0  0  0  0  0  0  0  0
   19.3661   16.4843   24.3354 H   0  0  0  0  0  0  0  0  0  0  0  0
   20.7543   16.5895   25.4212 H   0  0  0  0  0  0  0  0  0  0  0  0
   19.9992   18.5309   24.7614 C   0  0  0  0  0  0  0  0  0  0  0  0
   19.0215   18.9771   24.5357 H   0  0  0  0  0  0  0  0  0  0  0  0
   20.4179   19.0885   25.6104 H   0  0  0  0  0  0  0  0  0  0  0  0
   20.9362   18.6613   23.5384 C   0  0  0  0  0  0  0  0  0  0  0  0
   20.4992   18.1380   22.6779 H   0  0  0  0  0  0  0  0  0  0  0  0
   21.8830   18.1491   23.7575 H   0  0  0  0  0  0  0  0  0  0  0  0
   21.2526   20.1294   23.1578 C   0  0  0  0  0  0  0  0  0  0  0  0
   21.7749   20.6081   23.9971 H   0  0  0  0  0  0  0  0  0  0  0  0
   21.9662   20.1333   22.3234 H   0  0  0  0  0  0  0  0  0  0  0  0
   20.0220   20.9965   22.7816 C   0  0  0  0  0  0  0  0  0  0  0  0
   20.3719   22.0027   22.5140 H   0  0  0  0  0  0  0  0  0  0  0  0
   19.3870   21.1298   23.6672 H   0  0  0  0  0  0  0  0  0  0  0  0
   19.1564   20.4451   21.6220 C   0  0  0  0  0  0  0  0  0  0  0  0
   18.7217   19.4765   21.9025 H   0  0  0  0  0  0  0  0  0  0  0  0
   18.3077   21.1247   21.4646 H   0  0  0  0  0  0  0  0  0  0  0  0
   19.9328   20.3036   20.2949 C   0  0  0  0  0  0  0  0  0  0  0  0
   20.7275   19.5515   20.3764 H   0  0  0  0  0  0  0  0  0  0  0  0
   19.2591   19.9902   19.4870 H   0  0  0  0  0  0  0  0  0  0  0  0
   20.3900   21.2582   20.0037 H   0  0  0  0  0  0  0  0  0  0  0  0
  1  2  1  0  0  0  0
  1  3  2  0  0  0  0
  1  4  1  0  0  0  0
  4  5  1  0  0  0  0
  4  6  1  0  0  0  0
  4  7  1  0  0  0  0
  7  8  1  0  0  0  0
  7  9  1  0  0  0  0
  7 10  1  0  0  0  0
 10 11  1  0  0  0  0
 10 12  1  0  0  0  0
 10 13  1  0  0  0  0
 13 14  1  0  0  0  0
 13 15  1  0  0  0  0
 13 16  1  0  0  0  0
 16 17  1  0  0  0  0
 16 18  1  0  0  0  0
 16 19  1  0  0  0  0
 19 20  1  0  0  0  0
 19 21  1  0  0  0  0
 19 22  1  0  0  0  0
 22 23  1  0  0  0  0
 22 24  1  0  0  0  0
 22 25  1  0  0  0  0
M  END
> <VConfSearch Rank>
700

> <Conf_Id>
30

> <Delta U+W>
0.843

> <U+W>
-50.787

> <U>
8.647

> <W>
-59.434

> <W(PB)>
-61.861

> <W(SA)>
2.428

> <Valence>
8.924

> <Coulomb>
-1.170

> <VdW>
0.894

> <VdW6>
-10.224

> <VdW12>
11.118

> <Bond>
0.231

> <Angle>
3.232

> <Pdih>
5.460

> <Idih>
0.000

> <Tether>
0.000

$$$$
VeraChem MOL file


 25 24  0  0  0  0  0  0  0  0999 V2000     
   18.3389   17.8426   18.9640 C   0  0  0  0  0  0  0  0  0  0  0  0
   18.9125   18.7257   18.3559 O   0  5  0  0  0  0  0  0  0  0  0  0
   17.6195   17.0250   18.4255 O   0  0  0  0  0  0  0  0  0  0  0  0
   18.5111   17.7300   20.4797 C   0  0  0  0  0  0  0  0  0  0  0  0
   18.8979   16.7261   20.6910 H   0  0  0  0  0  0  0  0  0  0  0  0
   17.5122   17.7899   20.9274 H   0  0  0  0  0  0  0  0  0  0  0  0
   19.4387   18.7956   21.1218 C   0  0  0  0  0  0  0  0  0  0  0  0
   20.4358   18.7342   20.6641 H   0  0  0  0  0  0  0  0  0  0  0  0
   19.0488   19.7989   20.9008 H   0  0  0  0  0  0  0  0  0  0  0  0
   19.5562   18.6089   22.6501 C   0  0  0  0  0  0  0  0  0  0  0  0
   19.9461   17.6052   22.8686 H   0  0  0  0  0  0  0  0  0  0  0  0
   18.5582   18.6706   23.1055 H   0  0  0  0  0  0  0  0  0  0  0  0
   20.4794   19.6699   23.2868 C   0  0  0  0  0  0  0  0  0  0  0  0
   21.4775   19.6084   22.8316 H   0  0  0  0  0  0  0  0  0  0  0  0
   20.0898   20.6737   23.0685 H   0  0  0  0  0  0  0  0  0  0  0  0
   20.5974   19.4838   24.8150 C   0  0  0  0  0  0  0  0  0  0  0  0
   20.9871   18.4800   25.0335 H   0  0  0  0  0  0  0  0  0  0  0  0
   19.5994   19.5453   25.2704 H   0  0  0  0  0  0  0  0  0  0  0  0
   21.5202   20.5443   25.4514 C   0  0  0  0  0  0  0  0  0  0  0  0
   22.5201   20.4844   24.9996 H   0  0  0  0  0  0  0  0  0  0  0  0
   21.1324   21.5497   25.2365 H   0  0  0  0  0  0  0  0  0  0  0  0
   21.6353   20.3550   26.9774 C   0  0  0  0  0  0  0  0  0  0  0  0
   22.0507   19.3682   27.2206 H   0  0  0  0  0  0  0  0  0  0  0  0
   22.2947   21.1169   27.4131 H   0  0  0  0  0  0  0  0  0  0  0  0
   20.6526   20.4416   27.4593 H   0  0  0  0  0  0  0  0  0  0  0  0
  1  2  1  0  0  0  0
  1  3  2  0  0  0  0
  1  4  1  0  0  0  0
  4  5  1  0  0  0  0
  4  6  1  0  0  0  0
  4  7  1  0  0  0  0
  7  8  1  0  0  0  0
  7  9  1  0  0  0  0
  7 10  1  0  0  0  0
 10 11  1  0  0  0  0
 10 12  1  0  0  0  0
 10 13  1  0  0  0  0
 13 14  1  0  0  0  0
 13 15  1  0  0  0  0
 13 16  1  0  0  0  0
 16 17  1  0  0  0  0
 16 18  1  0  0  0  0
 16 19  1  0  0  0  0
 19 20  1  0  0  0  0
 19 21  1  0  0  0  0
 19 22  1  0  0  0  0
 22 23  1  0  0  0  0
 22 24  1  0  0  0  0
 22 25  1  0  0  0  0
M  END
> <VConfSearch Rank>
701

> <Conf_Id>
0

> <Delta U+W>
0.000

> <U+W>
-51.629

> <U>
6.586

> <W>
-58.216

> <W(PB)>
-60.757

> <W(SA)>
2.541

> <Valence>
8.027

> <Coulomb>
-2.892

> <VdW>
1.451

> <VdW6>
-7.931

> <VdW12>
9.383

> <Bond>
0.149

> <Angle>
2.726

> <Pdih>
5.152

> <Idih>
0.000

> <Tether>
0.000

$$$$
VeraChem MOL file


 25 24  0  0  0  0  0  0  0  0999 V2000     
   22.1614   23.0341   21.5354 C   0  0  0  0  0  0  0  0  0  0  0  0
   23.3395   22.9077   21.2660 O   0  5  0  0  0  0  0  0  0  0  0  0
   21.4129   23.7886   20.9461 O   0  0  0  0  0  0  0  0  0  0  0  0
   21.5849   22.1819   22.6604 C   0  0  0  0  0  0  0  0  0  0  0  0
   20.7841   22.7535   23.1447 H   0  0  0  0  0  0  0  0  0  0  0  0
   22.3717   22.0282   23.4087 H   0  0  0  0  0  0  0  0  0  0  0  0
   21.0442   20.8180   22.1650 C   0  0  0  0  0  0  0  0  0  0  0  0
   20.2670   20.9894   21.4072 H   0  0  0  0  0  0  0  0  0  0  0  0
   21.8546   20.2641   21.6710 H   0  0  0  0  0  0  0  0  0  0  0  0
   20.4664   19.9741   23.3217 C   0  0  0  0  0  0  0  0  0  0  0  0
   19.6573   20.5311   23.8140 H   0  0  0  0  0  0  0  0  0  0  0  0
   21.2453   19.8058   24.0781 H   0  0  0  0  0  0  0  0  0  0  0  0
   19.9283   18.6151   22.8249 C   0  0  0  0  0  0  0  0  0  0  0  0
   19.1494   18.7832   22.0685 H   0  0  0  0  0  0  0  0  0  0  0  0
   20.7373   18.0580   22.3325 H   0  0  0  0  0  0  0  0  0  0  0  0
   19.3505   17.7706   23.9811 C   0  0  0  0  0  0  0  0  0  0  0  0
   18.5414   18.3274   24.4736 H   0  0  0  0  0  0  0  0  0  0  0  0
   20.1292   17.6023   24.7376 H   0  0  0  0  0  0  0  0  0  0  0  0
   18.8127   16.4121   23.4846 C   0  0  0  0  0  0  0  0  0  0  0  0
   18.0320   16.5764   22.7290 H   0  0  0  0  0  0  0  0  0  0  0  0
   19.6198   15.8514   22.9930 H   0  0  0  0  0  0  0  0  0  0  0  0
   18.2365   15.5718   24.6421 C   0  0  0  0  0  0  0  0  0  0  0  0
   17.8589   14.6100   24.2713 H   0  0  0  0  0  0  0  0  0  0  0  0
   19.0053   15.3654   25.3982 H   0  0  0  0  0  0  0  0  0  0  0  0
   17.4055   16.0959   25.1322 H   0  0  0  0  0  0  0  0  0  0  0  0
  1  2  1  0  0  0  0
  1  3  2  0  0  0  0
  1  4  1  0  0  0  0
  4  5  1  0  0  0  0
  4  6  1  0  0  0  0
  4  7  1  0  0  0  0
  7  8  1  0  0  0  0
  7  9  1  0  0  0  0
  7 10  1  0  0  0  0
 10 11  1  0  0  0  0
 10 12  1  0  0  0  0
 10 13  1  0  0  0  0
 13 14  1  0  0  0  0
 13 15  1  0  0  0  0
 13 16  1  0  0  0  0
 16 17  1  0  0  0  0
 16 18  1  0  0  0  0
 16 19  1  0  0  0  0
 19 20  1  0  0  0  0
 19 21  1  0  0  0  0
 19 22  1  0  0  0  0
 22 23  1  0  0  0  0
 22 24  1  0  0  0  0
 22 25  1  0  0  0  0
M  END
> <VConfSearch Rank>
702

> <Conf_Id>
27

> <Delta U+W>
-1.297

> <U+W>
-52.926

> <U>
5.617

> <W>
-58.543

> <W(PB)>
-61.065

> <W(SA)>
2.522

> <Valence>
7.531

> <Coulomb>
-2.818

> <VdW>
0.904

> <VdW6>
-7.640

> <VdW12>
8.544

> <Bond>
0.115

> <Angle>
2.271

> <Pdih>
5.144

> <Idih>
0.001

> <Tether>
0.000

$$$$
VeraChem MOL file


 25 24  0  0  0  0  0  0  0  0999 V2000     
   16.4522   17.8904   22.6024 C   0  0  0  0  0  0  0  0  0  0  0  0
   16.3309   17.2793   21.5589 O   0  5  0  0  0  0  0  0  0  0  0  0
   16.2915   17.3895   23.6980 O   0  0  0  0  0  0  0  0  0  0  0  0
   16.8094   19.3724   22.5301 C   0  0  0  0  0  0  0  0  0  0  0  0
   16.5469   19.8428   23.4854 H   0  0  0  0  0  0  0  0  0  0  0  0
   16.1686   19.8271   21.7656 H   0  0  0  0  0  0  0  0  0  0  0  0
   18.2973   19.6461   22.1891 C   0  0  0  0  0  0  0  0  0  0  0  0
   18.5522   19.1458   21.2444 H   0  0  0  0  0  0  0  0  0  0  0  0
   18.4324   20.7234   22.0226 H   0  0  0  0  0  0  0  0  0  0  0  0
   19.2585   19.1785   23.3049 C   0  0  0  0  0  0  0  0  0  0  0  0
   19.1417   18.0977   23.4653 H   0  0  0  0  0  0  0  0  0  0  0  0
   18.9912   19.6711   24.2499 H   0  0  0  0  0  0  0  0  0  0  0  0
   20.7307   19.4895   22.9589 C   0  0  0  0  0  0  0  0  0  0  0  0
   20.9970   18.9965   22.0139 H   0  0  0  0  0  0  0  0  0  0  0  0
   20.8505   20.5701   22.8011 H   0  0  0  0  0  0  0  0  0  0  0  0
   21.6918   19.0217   24.0731 C   0  0  0  0  0  0  0  0  0  0  0  0
   21.5720   17.9411   24.2311 H   0  0  0  0  0  0  0  0  0  0  0  0
   21.4253   19.5143   25.0183 H   0  0  0  0  0  0  0  0  0  0  0  0
   23.1634   19.3319   23.7275 C   0  0  0  0  0  0  0  0  0  0  0  0
   23.4340   18.8391   22.7833 H   0  0  0  0  0  0  0  0  0  0  0  0
   23.2873   20.4124   23.5706 H   0  0  0  0  0  0  0  0  0  0  0  0
   24.1198   18.8631   24.8425 C   0  0  0  0  0  0  0  0  0  0  0  0
   24.0394   17.7793   24.9989 H   0  0  0  0  0  0  0  0  0  0  0  0
   25.1611   19.0913   24.5803 H   0  0  0  0  0  0  0  0  0  0  0  0
   23.8917   19.3644   25.7922 H   0  0  0  0  0  0  0  0  0  0  0  0
  1  2  1  0  0  0  0
  1  3  2  0  0  0  0
  1  4  1  0  0  0  0
  4  5  1  0  0  0  0
  4  6  1  0  0  0  0
  4  7  1  0  0  0  0
  7  8  1  0  0  0  0
  7  9  1  0  0  0  0
  7 10  1  0  0  0  0
 10 11  1  0  0  0  0
 10 12  1  0  0  0  0
 10 13  1  0  0  0  0
 13 14  1  0  0  0  0
 13 15  1  0  0  0  0
 13 16  1  0  0  0  0
 16 17  1  0  0  0  0
 16 18  1  0  0  0  0
 16 19  1  0  0  0  0
 19 20  1  0  0  0  0
 19 21  1  0  0  0  0
 19 22  1  0  0  0  0
 22 23  1  0  0  0  0
 22 24  1  0  0  0  0
 22 25  1  0  0  0  0
M  END
> <VConfSearch Rank>
703

> <Conf_Id>
37

> <Delta U+W>
-0.230

> <U+W>
-51.860

> <U>
7.816

> <W>
-59.675

> <W(PB)>
-62.180

> <W(SA)>
2.505

> <Valence>
7.785

> <Coulomb>
-0.713

> <VdW>
0.744

> <VdW6>
-8.514

> <VdW12>
9.259

> <Bond>
0.136

> <Angle>
2.433

> <Pdih>
5.216

> <Idih>
0.000

> <Tether>
0.000

$$$$
VeraChem MOL file


 25 24  0  0  0  0  0  0  0  0999 V2000     
   22.3636   17.3979   25.9484 C   0  0  0  0  0  0  0  0  0  0  0  0
   21.8057   16.4891   26.5313 O   0  5  0  0  0  0  0  0  0  0  0  0
   22.7539   18.4098   26.4969 O   0  0  0  0  0  0  0  0  0  0  0  0
   22.6007   17.2511   24.4480 C   0  0  0  0  0  0  0  0  0  0  0  0
   22.9932   16.2421   24.2753 H   0  0  0  0  0  0  0  0  0  0  0  0
   23.3874   17.9537   24.1475 H   0  0  0  0  0  0  0  0  0  0  0  0
   21.3305   17.4677   23.5850 C   0  0  0  0  0  0  0  0  0  0  0  0
   21.5598   17.2094   22.5423 H   0  0  0  0  0  0  0  0  0  0  0  0
   20.5432   16.7764   23.9163 H   0  0  0  0  0  0  0  0  0  0  0  0
   20.8107   18.9216   23.6472 C   0  0  0  0  0  0  0  0  0  0  0  0
   21.6055   19.6096   23.3280 H   0  0  0  0  0  0  0  0  0  0  0  0
   20.5626   19.1819   24.6855 H   0  0  0  0  0  0  0  0  0  0  0  0
   19.5656   19.1222   22.7567 C   0  0  0  0  0  0  0  0  0  0  0  0
   19.8121   18.8652   21.7174 H   0  0  0  0  0  0  0  0  0  0  0  0
   18.7713   18.4339   23.0768 H   0  0  0  0  0  0  0  0  0  0  0  0
   19.0451   20.5745   22.8189 C   0  0  0  0  0  0  0  0  0  0  0  0
   19.8394   21.2630   22.4991 H   0  0  0  0  0  0  0  0  0  0  0  0
   18.7987   20.8317   23.8583 H   0  0  0  0  0  0  0  0  0  0  0  0
   17.8002   20.7754   21.9294 C   0  0  0  0  0  0  0  0  0  0  0  0
   18.0437   20.5207   20.8885 H   0  0  0  0  0  0  0  0  0  0  0  0
   17.0029   20.0895   22.2478 H   0  0  0  0  0  0  0  0  0  0  0  0
   17.2837   22.2268   21.9944 C   0  0  0  0  0  0  0  0  0  0  0  0
   18.0514   22.9326   21.6510 H   0  0  0  0  0  0  0  0  0  0  0  0
   16.3990   22.3516   21.3566 H   0  0  0  0  0  0  0  0  0  0  0  0
   17.0029   22.4982   23.0205 H   0  0  0  0  0  0  0  0  0  0  0  0
  1  2  1  0  0  0  0
  1  3  2  0  0  0  0
  1  4  1  0  0  0  0
  4  5  1  0  0  0  0
  4  6  1  0  0  0  0
  4  7  1  0  0  0  0
  7  8  1  0  0  0  0
  7  9  1  0  0  0  0
  7 10  1  0  0  0  0
 10 11  1  0  0  0  0
 10 12  1  0  0  0  0
 10 13  1  0  0  0  0
 13 14  1  0  0  0  0
 13 15  1  0  0  0  0
 13 16  1  0  0  0  0
 16 17  1  0  0  0  0
 16 18  1  0  0  0  0
 16 19  1  0  0  0  0
 19 20  1  0  0  0  0
 19 21  1  0  0  0  0
 19 22  1  0  0  0  0
 22 23  1  0  0  0  0
 22 24  1  0  0  0  0
 22 25  1  0  0  0  0
M  END
> <VConfSearch Rank>
704

> <Conf_Id>
54

> <Delta U+W>
-0.224

> <U+W>
-51.854

> <U>
7.816

> <W>
-59.670

> <W(PB)>
-62.157

> <W(SA)>
2.487

> <Valence>
7.785

> <Coulomb>
-0.713

> <VdW>
0.744

> <VdW6>
-8.515

> <VdW12>
9.259

> <Bond>
0.136

> <Angle>
2.433

> <Pdih>
5.215

> <Idih>
0.000

> <Tether>
0.000

$$$$
VeraChem MOL file


 25 24  0  0  0  0  0  0  0  0999 V2000     
   18.9226   16.7745   26.3924 C   0  0  0  0  0  0  0  0  0  0  0  0
   17.7146   16.7090   26.2764 O   0  5  0  0  0  0  0  0  0  0  0  0
   19.6386   15.8024   26.5319 O   0  0  0  0  0  0  0  0  0  0  0  0
   19.5766   18.1534   26.3810 C   0  0  0  0  0  0  0  0  0  0  0  0
   20.2888   18.1841   27.2140 H   0  0  0  0  0  0  0  0  0  0  0  0
   18.8087   18.9074   26.5920 H   0  0  0  0  0  0  0  0  0  0  0  0
   20.3122   18.4936   25.0586 C   0  0  0  0  0  0  0  0  0  0  0  0
   20.8746   19.4244   25.2045 H   0  0  0  0  0  0  0  0  0  0  0  0
   21.0489   17.7083   24.8398 H   0  0  0  0  0  0  0  0  0  0  0  0
   19.3417   18.6509   23.8630 C   0  0  0  0  0  0  0  0  0  0  0  0
   18.6343   19.4670   24.0636 H   0  0  0  0  0  0  0  0  0  0  0  0
   18.7394   17.7371   23.7669 H   0  0  0  0  0  0  0  0  0  0  0  0
   20.0564   18.9036   22.5137 C   0  0  0  0  0  0  0  0  0  0  0  0
   20.7772   18.0971   22.3227 H   0  0  0  0  0  0  0  0  0  0  0  0
   19.3045   18.8438   21.7167 H   0  0  0  0  0  0  0  0  0  0  0  0
   20.7732   20.2746   22.4406 C   0  0  0  0  0  0  0  0  0  0  0  0
   21.5307   20.3341   23.2321 H   0  0  0  0  0  0  0  0  0  0  0  0
   20.0529   21.0804   22.6367 H   0  0  0  0  0  0  0  0  0  0  0  0
   21.4769   20.5283   21.0867 C   0  0  0  0  0  0  0  0  0  0  0  0
   22.0704   21.4495   21.1667 H   0  0  0  0  0  0  0  0  0  0  0  0
   22.1894   19.7176   20.8810 H   0  0  0  0  0  0  0  0  0  0  0  0
   20.4967   20.6731   19.9021 C   0  0  0  0  0  0  0  0  0  0  0  0
   19.9651   19.7343   19.7033 H   0  0  0  0  0  0  0  0  0  0  0  0
   19.7527   21.4554   20.1009 H   0  0  0  0  0  0  0  0  0  0  0  0
   21.0384   20.9469   18.9876 H   0  0  0  0  0  0  0  0  0  0  0  0
  1  2  1  0  0  0  0
  1  3  2  0  0  0  0
  1  4  1  0  0  0  0
  4  5  1  0  0  0  0
  4  6  1  0  0  0  0
  4  7  1  0  0  0  0
  7  8  1  0  0  0  0
  7  9  1  0  0  0  0
  7 10  1  0  0  0  0
 10 11  1  0  0  0  0
 10 12  1  0  0  0  0
 10 13  1  0  0  0  0
 13 14  1  0  0  0  0
 13 15  1  0  0  0  0
 13 16  1  0  0  0  0
 16 17  1  0  0  0  0
 16 18  1  0  0  0  0
 16 19  1  0  0  0  0
 19 20  1  0  0  0  0
 19 21  1  0  0  0  0
 19 22  1  0  0  0  0
 22 23  1  0  0  0  0
 22 24  1  0  0  0  0
 22 25  1  0  0  0  0
M  END
> <VConfSearch Rank>
705

> <Conf_Id>
101

> <Delta U+W>
1.534

> <U+W>
-50.095

> <U>
9.416

> <W>
-59.512

> <W(PB)>
-61.988

> <W(SA)>
2.476

> <Valence>
8.939

> <Coulomb>
-0.615

> <VdW>
1.092

> <VdW6>
-9.710

> <VdW12>
10.802

> <Bond>
0.216

> <Angle>
2.979

> <Pdih>
5.743

> <Idih>
0.000

> <Tether>
0.000

$$$$
VeraChem MOL file


 25 24  0  0  0  0  0  0  0  0999 V2000     
   22.7991   16.8571   21.0879 C   0  0  0  0  0  0  0  0  0  0  0  0
   23.8973   17.3633   21.2088 O   0  5  0  0  0  0  0  0  0  0  0  0
   22.6237   15.6999   20.7610 O   0  0  0  0  0  0  0  0  0  0  0  0
   21.5742   17.7147   21.3847 C   0  0  0  0  0  0  0  0  0  0  0  0
   20.7551   17.3715   20.7416 H   0  0  0  0  0  0  0  0  0  0  0  0
   21.8098   18.7436   21.0910 H   0  0  0  0  0  0  0  0  0  0  0  0
   21.1466   17.6536   22.8744 C   0  0  0  0  0  0  0  0  0  0  0  0
   21.0147   16.6004   23.1586 H   0  0  0  0  0  0  0  0  0  0  0  0
   21.9560   18.0455   23.5057 H   0  0  0  0  0  0  0  0  0  0  0  0
   19.8333   18.4145   23.1755 C   0  0  0  0  0  0  0  0  0  0  0  0
   19.5439   18.1935   24.2108 H   0  0  0  0  0  0  0  0  0  0  0  0
   19.0280   18.0277   22.5364 H   0  0  0  0  0  0  0  0  0  0  0  0
   19.9546   19.9476   22.9943 C   0  0  0  0  0  0  0  0  0  0  0  0
   20.7588   20.3344   23.6336 H   0  0  0  0  0  0  0  0  0  0  0  0
   20.2522   20.1709   21.9621 H   0  0  0  0  0  0  0  0  0  0  0  0
   18.6366   20.7107   23.2819 C   0  0  0  0  0  0  0  0  0  0  0  0
   17.8678   20.3714   22.5744 H   0  0  0  0  0  0  0  0  0  0  0  0
   18.7950   21.7765   23.0679 H   0  0  0  0  0  0  0  0  0  0  0  0
   18.0852   20.5699   24.7226 C   0  0  0  0  0  0  0  0  0  0  0  0
   17.1543   21.1485   24.7979 H   0  0  0  0  0  0  0  0  0  0  0  0
   17.8089   19.5265   24.9234 H   0  0  0  0  0  0  0  0  0  0  0  0
   19.0669   21.0668   25.8057 C   0  0  0  0  0  0  0  0  0  0  0  0
   19.3758   22.1021   25.6110 H   0  0  0  0  0  0  0  0  0  0  0  0
   18.5949   21.0347   26.7962 H   0  0  0  0  0  0  0  0  0  0  0  0
   19.9666   20.4399   25.8458 H   0  0  0  0  0  0  0  0  0  0  0  0
  1  2  1  0  0  0  0
  1  3  2  0  0  0  0
  1  4  1  0  0  0  0
  4  5  1  0  0  0  0
  4  6  1  0  0  0  0
  4  7  1  0  0  0  0
  7  8  1  0  0  0  0
  7  9  1  0  0  0  0
  7 10  1  0  0  0  0
 10 11  1  0  0  0  0
 10 12  1  0  0  0  0
 10 13  1  0  0  0  0
 13 14  1  0  0  0  0
 13 15  1  0  0  0  0
 13 16  1  0  0  0  0
 16 17  1  0  0  0  0
 16 18  1  0  0  0  0
 16 19  1  0  0  0  0
 19 20  1  0  0  0  0
 19 21  1  0  0  0  0
 19 22  1  0  0  0  0
 22 23  1  0  0  0  0
 22 24  1  0  0  0  0
 22 25  1  0  0  0  0
M  END
> <VConfSearch Rank>
706

> <Conf_Id>
75

> <Delta U+W>
1.014

> <U+W>
-50.615

> <U>
8.474

> <W>
-59.089

> <W(PB)>
-61.530

> <W(SA)>
2.441

> <Valence>
9.080

> <Coulomb>
-1.772

> <VdW>
1.165

> <VdW6>
-9.830

> <VdW12>
10.996

> <Bond>
0.240

> <Angle>
3.225

> <Pdih>
5.615

> <Idih>
0.001

> <Tether>
0.000

$$$$
VeraChem MOL file


 25 24  0  0  0  0  0  0  0  0999 V2000     
   15.9015   19.5345   23.7937 C   0  0  0  0  0  0  0  0  0  0  0  0
   15.5168   20.4764   23.1293 O   0  5  0  0  0  0  0  0  0  0  0  0
   15.1958   18.5942   24.1009 O   0  0  0  0  0  0  0  0  0  0  0  0
   17.3563   19.5215   24.2491 C   0  0  0  0  0  0  0  0  0  0  0  0
   17.4056   19.0093   25.2175 H   0  0  0  0  0  0  0  0  0  0  0  0
   17.6708   20.5590   24.4146 H   0  0  0  0  0  0  0  0  0  0  0  0
   18.2991   18.8331   23.2316 C   0  0  0  0  0  0  0  0  0  0  0  0
   17.9634   17.7998   23.0670 H   0  0  0  0  0  0  0  0  0  0  0  0
   18.2280   19.3497   22.2643 H   0  0  0  0  0  0  0  0  0  0  0  0
   19.7657   18.8342   23.7146 C   0  0  0  0  0  0  0  0  0  0  0  0
   19.8318   18.3174   24.6817 H   0  0  0  0  0  0  0  0  0  0  0  0
   20.0896   19.8674   23.8875 H   0  0  0  0  0  0  0  0  0  0  0  0
   20.7022   18.1403   22.6977 C   0  0  0  0  0  0  0  0  0  0  0  0
   20.3652   17.1018   22.5759 H   0  0  0  0  0  0  0  0  0  0  0  0
   20.6090   18.6103   21.7092 H   0  0  0  0  0  0  0  0  0  0  0  0
   22.1874   18.1257   23.1410 C   0  0  0  0  0  0  0  0  0  0  0  0
   22.6317   17.1756   22.8143 H   0  0  0  0  0  0  0  0  0  0  0  0
   22.2580   18.1265   24.2373 H   0  0  0  0  0  0  0  0  0  0  0  0
   23.0495   19.2695   22.5516 C   0  0  0  0  0  0  0  0  0  0  0  0
   24.0920   19.1159   22.8626 H   0  0  0  0  0  0  0  0  0  0  0  0
   23.0439   19.2068   21.4547 H   0  0  0  0  0  0  0  0  0  0  0  0
   22.6076   20.6826   22.9855 C   0  0  0  0  0  0  0  0  0  0  0  0
   22.5394   20.7560   24.0786 H   0  0  0  0  0  0  0  0  0  0  0  0
   23.3295   21.4336   22.6398 H   0  0  0  0  0  0  0  0  0  0  0  0
   21.6315   20.9409   22.5563 H   0  0  0  0  0  0  0  0  0  0  0  0
  1  2  1  0  0  0  0
  1  3  2  0  0  0  0
  1  4  1  0  0  0  0
  4  5  1  0  0  0  0
  4  6  1  0  0  0  0
  4  7  1  0  0  0  0
  7  8  1  0  0  0  0
  7  9  1  0  0  0  0
  7 10  1  0  0  0  0
 10 11  1  0  0  0  0
 10 12  1  0  0  0  0
 10 13  1  0  0  0  0
 13 14  1  0  0  0  0
 13 15  1  0  0  0  0
 13 16  1  0  0  0  0
 16 17  1  0  0  0  0
 16 18  1  0  0  0  0
 16 19  1  0  0  0  0
 19 20  1  0  0  0  0
 19 21  1  0  0  0  0
 19 22  1  0  0  0  0
 22 23  1  0  0  0  0
 22 24  1  0  0  0  0
 22 25  1  0  0  0  0
M  END
> <VConfSearch Rank>
707

> <Conf_Id>
125

> <Delta U+W>
2.314

> <U+W>
-49.315

> <U>
9.740

> <W>
-59.054

> <W(PB)>
-61.488

> <W(SA)>
2.433

> <Valence>
10.506

> <Coulomb>
-1.761

> <VdW>
0.994

> <VdW6>
-9.209

> <VdW12>
10.203

> <Bond>
0.193

> <Angle>
2.979

> <Pdih>
7.334

> <Idih>
0.001

> <Tether>
0.000

$$$$
VeraChem MOL file


 25 24  0  0  0  0  0  0  0  0999 V2000     
   16.1392   18.3724   22.6664 C   0  0  0  0  0  0  0  0  0  0  0  0
   15.5446   19.0688   23.4652 O   0  5  0  0  0  0  0  0  0  0  0  0
   15.5990   17.5365   21.9691 O   0  0  0  0  0  0  0  0  0  0  0  0
   17.6500   18.5396   22.5496 C   0  0  0  0  0  0  0  0  0  0  0  0
   17.8834   19.5940   22.7351 H   0  0  0  0  0  0  0  0  0  0  0  0
   17.9376   18.3192   21.5147 H   0  0  0  0  0  0  0  0  0  0  0  0
   18.4318   17.6255   23.5287 C   0  0  0  0  0  0  0  0  0  0  0  0
   18.1703   17.8876   24.5632 H   0  0  0  0  0  0  0  0  0  0  0  0
   18.1039   16.5874   23.3795 H   0  0  0  0  0  0  0  0  0  0  0  0
   19.9667   17.6917   23.3444 C   0  0  0  0  0  0  0  0  0  0  0  0
   20.2255   17.4199   22.3119 H   0  0  0  0  0  0  0  0  0  0  0  0
   20.4277   16.9322   23.9906 H   0  0  0  0  0  0  0  0  0  0  0  0
   20.5680   19.0750   23.6849 C   0  0  0  0  0  0  0  0  0  0  0  0
   20.1644   19.8298   22.9994 H   0  0  0  0  0  0  0  0  0  0  0  0
   20.2664   19.3665   24.7001 H   0  0  0  0  0  0  0  0  0  0  0  0
   22.1113   19.0644   23.5882 C   0  0  0  0  0  0  0  0  0  0  0  0
   22.4159   18.8190   22.5616 H   0  0  0  0  0  0  0  0  0  0  0  0
   22.5046   18.2636   24.2291 H   0  0  0  0  0  0  0  0  0  0  0  0
   22.7638   20.3997   24.0161 C   0  0  0  0  0  0  0  0  0  0  0  0
   22.4656   20.6455   25.0447 H   0  0  0  0  0  0  0  0  0  0  0  0
   23.8547   20.2694   24.0323 H   0  0  0  0  0  0  0  0  0  0  0  0
   22.4181   21.5777   23.0794 C   0  0  0  0  0  0  0  0  0  0  0  0
   21.3494   21.8221   23.1204 H   0  0  0  0  0  0  0  0  0  0  0  0
   22.9755   22.4769   23.3720 H   0  0  0  0  0  0  0  0  0  0  0  0
   22.6785   21.3422   22.0393 H   0  0  0  0  0  0  0  0  0  0  0  0
  1  2  1  0  0  0  0
  1  3  2  0  0  0  0
  1  4  1  0  0  0  0
  4  5  1  0  0  0  0
  4  6  1  0  0  0  0
  4  7  1  0  0  0  0
  7  8  1  0  0  0  0
  7  9  1  0  0  0  0
  7 10  1  0  0  0  0
 10 11  1  0  0  0  0
 10 12  1  0  0  0  0
 10 13  1  0  0  0  0
 13 14  1  0  0  0  0
 13 15  1  0  0  0  0
 13 16  1  0  0  0  0
 16 17  1  0  0  0  0
 16 18  1  0  0  0  0
 16 19  1  0  0  0  0
 19 20  1  0  0  0  0
 19 21  1  0  0  0  0
 19 22  1  0  0  0  0
 22 23  1  0  0  0  0
 22 24  1  0  0  0  0
 22 25  1  0  0  0  0
M  END
> <VConfSearch Rank>
708

> <Conf_Id>
4

> <Delta U+W>
0.189

> <U+W>
-51.441

> <U>
7.701

> <W>
-59.141

> <W(PB)>
-61.609

> <W(SA)>
2.467

> <Valence>
8.550

> <Coulomb>
-1.988

> <VdW>
1.139

> <VdW6>
-8.988

> <VdW12>
10.127

> <Bond>
0.191

> <Angle>
2.738

> <Pdih>
5.621

> <Idih>
0.001

> <Tether>
0.000

$$$$
VeraChem MOL file


 25 24  0  0  0  0  0  0  0  0999 V2000     
   16.6279   18.0351   25.2256 C   0  0  0  0  0  0  0  0  0  0  0  0
   16.1248   19.0588   25.6446 O   0  5  0  0  0  0  0  0  0  0  0  0
   16.0867   16.9484   25.2786 O   0  0  0  0  0  0  0  0  0  0  0  0
   18.0045   18.1226   24.5764 C   0  0  0  0  0  0  0  0  0  0  0  0
   18.5302   17.1790   24.7653 H   0  0  0  0  0  0  0  0  0  0  0  0
   18.5635   18.9148   25.0869 H   0  0  0  0  0  0  0  0  0  0  0  0
   17.9320   18.3990   23.0521 C   0  0  0  0  0  0  0  0  0  0  0  0
   17.2873   17.6406   22.5866 H   0  0  0  0  0  0  0  0  0  0  0  0
   17.4454   19.3687   22.8778 H   0  0  0  0  0  0  0  0  0  0  0  0
   19.3119   18.3732   22.3525 C   0  0  0  0  0  0  0  0  0  0  0  0
   19.1541   18.4595   21.2687 H   0  0  0  0  0  0  0  0  0  0  0  0
   19.7914   17.3991   22.5203 H   0  0  0  0  0  0  0  0  0  0  0  0
   20.2576   19.5056   22.8156 C   0  0  0  0  0  0  0  0  0  0  0  0
   19.7564   20.4754   22.6931 H   0  0  0  0  0  0  0  0  0  0  0  0
   20.4759   19.3881   23.8838 H   0  0  0  0  0  0  0  0  0  0  0  0
   21.5814   19.5044   22.0164 C   0  0  0  0  0  0  0  0  0  0  0  0
   21.3518   19.5584   20.9435 H   0  0  0  0  0  0  0  0  0  0  0  0
   22.1079   18.5532   22.1744 H   0  0  0  0  0  0  0  0  0  0  0  0
   22.5188   20.6805   22.3768 C   0  0  0  0  0  0  0  0  0  0  0  0
   23.3737   20.6738   21.6867 H   0  0  0  0  0  0  0  0  0  0  0  0
   21.9970   21.6338   22.2150 H   0  0  0  0  0  0  0  0  0  0  0  0
   23.0496   20.6182   23.8256 C   0  0  0  0  0  0  0  0  0  0  0  0
   23.5481   19.6598   24.0207 H   0  0  0  0  0  0  0  0  0  0  0  0
   23.7781   21.4201   24.0022 H   0  0  0  0  0  0  0  0  0  0  0  0
   22.2392   20.7400   24.5551 H   0  0  0  0  0  0  0  0  0  0  0  0
  1  2  1  0  0  0  0
  1  3  2  0  0  0  0
  1  4  1  0  0  0  0
  4  5  1  0  0  0  0
  4  6  1  0  0  0  0
  4  7  1  0  0  0  0
  7  8  1  0  0  0  0
  7  9  1  0  0  0  0
  7 10  1  0  0  0  0
 10 11  1  0  0  0  0
 10 12  1  0  0  0  0
 10 13  1  0  0  0  0
 13 14  1  0  0  0  0
 13 15  1  0  0  0  0
 13 16  1  0  0  0  0
 16 17  1  0  0  0  0
 16 18  1  0  0  0  0
 16 19  1  0  0  0  0
 19 20  1  0  0  0  0
 19 21  1  0  0  0  0
 19 22  1  0  0  0  0
 22 23  1  0  0  0  0
 22 24  1  0  0  0  0
 22 25  1  0  0  0  0
M  END
> <VConfSearch Rank>
709

> <Conf_Id>
17

> <Delta U+W>
0.219

> <U+W>
-51.411

> <U>
7.701

> <W>
-59.111

> <W(PB)>
-61.599

> <W(SA)>
2.488

> <Valence>
8.550

> <Coulomb>
-1.988

> <VdW>
1.139

> <VdW6>
-8.988

> <VdW12>
10.127

> <Bond>
0.191

> <Angle>
2.738

> <Pdih>
5.621

> <Idih>
0.001

> <Tether>
0.000

$$$$
VeraChem MOL file


 25 24  0  0  0  0  0  0  0  0999 V2000     
   18.1035   16.2752   22.1827 C   0  0  0  0  0  0  0  0  0  0  0  0
   18.1666   15.3837   23.0063 O   0  5  0  0  0  0  0  0  0  0  0  0
   18.5880   16.1993   21.0707 O   0  0  0  0  0  0  0  0  0  0  0  0
   17.3588   17.5537   22.5565 C   0  0  0  0  0  0  0  0  0  0  0  0
   16.6969   17.3381   23.4039 H   0  0  0  0  0  0  0  0  0  0  0  0
   16.7144   17.8179   21.7098 H   0  0  0  0  0  0  0  0  0  0  0  0
   18.2890   18.7482   22.8923 C   0  0  0  0  0  0  0  0  0  0  0  0
   18.9538   18.9320   22.0380 H   0  0  0  0  0  0  0  0  0  0  0  0
   17.6777   19.6517   23.0198 H   0  0  0  0  0  0  0  0  0  0  0  0
   19.1203   18.5085   24.1754 C   0  0  0  0  0  0  0  0  0  0  0  0
   19.7879   17.6477   24.0322 H   0  0  0  0  0  0  0  0  0  0  0  0
   18.4410   18.2396   24.9958 H   0  0  0  0  0  0  0  0  0  0  0  0
   19.9519   19.7389   24.6095 C   0  0  0  0  0  0  0  0  0  0  0  0
   19.2854   20.5987   24.7619 H   0  0  0  0  0  0  0  0  0  0  0  0
   20.4085   19.5231   25.5851 H   0  0  0  0  0  0  0  0  0  0  0  0
   21.0664   20.1143   23.6055 C   0  0  0  0  0  0  0  0  0  0  0  0
   20.6226   20.4064   22.6449 H   0  0  0  0  0  0  0  0  0  0  0  0
   21.6983   19.2364   23.4134 H   0  0  0  0  0  0  0  0  0  0  0  0
   21.9402   21.2730   24.1303 C   0  0  0  0  0  0  0  0  0  0  0  0
   21.3107   22.1523   24.3252 H   0  0  0  0  0  0  0  0  0  0  0  0
   22.3970   20.9886   25.0884 H   0  0  0  0  0  0  0  0  0  0  0  0
   23.0487   21.6486   23.1264 C   0  0  0  0  0  0  0  0  0  0  0  0
   22.6189   21.9685   22.1682 H   0  0  0  0  0  0  0  0  0  0  0  0
   23.6601   22.4731   23.5157 H   0  0  0  0  0  0  0  0  0  0  0  0
   23.7123   20.7948   22.9365 H   0  0  0  0  0  0  0  0  0  0  0  0
  1  2  1  0  0  0  0
  1  3  2  0  0  0  0
  1  4  1  0  0  0  0
  4  5  1  0  0  0  0
  4  6  1  0  0  0  0
  4  7  1  0  0  0  0
  7  8  1  0  0  0  0
  7  9  1  0  0  0  0
  7 10  1  0  0  0  0
 10 11  1  0  0  0  0
 10 12  1  0  0  0  0
 10 13  1  0  0  0  0
 13 14  1  0  0  0  0
 13 15  1  0  0  0  0
 13 16  1  0  0  0  0
 16 17  1  0  0  0  0
 16 18  1  0  0  0  0
 16 19  1  0  0  0  0
 19 20  1  0  0  0  0
 19 21  1  0  0  0  0
 19 22  1  0  0  0  0
 22 23  1  0  0  0  0
 22 24  1  0  0  0  0
 22 25  1  0  0  0  0
M  END
> <VConfSearch Rank>
710

> <Conf_Id>
142

> <Delta U+W>
0.593

> <U+W>
-51.037

> <U>
8.903

> <W>
-59.940

> <W(PB)>
-62.418

> <W(SA)>
2.478

> <Valence>
8.305

> <Coulomb>
-0.223

> <VdW>
0.821

> <VdW6>
-9.236

> <VdW12>
10.057

> <Bond>
0.173

> <Angle>
2.663

> <Pdih>
5.469

> <Idih>
0.001

> <Tether>
0.000

$$$$
VeraChem MOL file


 25 24  0  0  0  0  0  0  0  0999 V2000     
   19.5674   20.7439   20.3382 C   0  0  0  0  0  0  0  0  0  0  0  0
   18.6209   21.2033   19.7292 O   0  5  0  0  0  0  0  0  0  0  0  0
   20.6544   21.2841   20.3976 O   0  0  0  0  0  0  0  0  0  0  0  0
   19.3858   19.4022   21.0423 C   0  0  0  0  0  0  0  0  0  0  0  0
   20.3741   19.0017   21.2957 H   0  0  0  0  0  0  0  0  0  0  0  0
   18.9468   18.7090   20.3155 H   0  0  0  0  0  0  0  0  0  0  0  0
   18.4818   19.4655   22.3037 C   0  0  0  0  0  0  0  0  0  0  0  0
   17.4811   19.8046   22.0027 H   0  0  0  0  0  0  0  0  0  0  0  0
   18.3478   18.4521   22.7037 H   0  0  0  0  0  0  0  0  0  0  0  0
   19.0070   20.4028   23.4219 C   0  0  0  0  0  0  0  0  0  0  0  0
   18.2984   20.3821   24.2609 H   0  0  0  0  0  0  0  0  0  0  0  0
   19.0052   21.4371   23.0514 H   0  0  0  0  0  0  0  0  0  0  0  0
   20.4237   20.0701   23.9534 C   0  0  0  0  0  0  0  0  0  0  0  0
   21.1627   20.1956   23.1507 H   0  0  0  0  0  0  0  0  0  0  0  0
   20.6853   20.8083   24.7236 H   0  0  0  0  0  0  0  0  0  0  0  0
   20.5403   18.6514   24.5569 C   0  0  0  0  0  0  0  0  0  0  0  0
   20.3525   17.8988   23.7800 H   0  0  0  0  0  0  0  0  0  0  0  0
   19.7703   18.5163   25.3286 H   0  0  0  0  0  0  0  0  0  0  0  0
   21.9347   18.4054   25.1705 C   0  0  0  0  0  0  0  0  0  0  0  0
   22.7067   18.5427   24.4006 H   0  0  0  0  0  0  0  0  0  0  0  0
   22.1308   19.1487   25.9556 H   0  0  0  0  0  0  0  0  0  0  0  0
   22.0514   16.9880   25.7664 C   0  0  0  0  0  0  0  0  0  0  0  0
   21.8913   16.2233   24.9951 H   0  0  0  0  0  0  0  0  0  0  0  0
   23.0483   16.8307   26.1981 H   0  0  0  0  0  0  0  0  0  0  0  0
   21.3097   16.8340   26.5611 H   0  0  0  0  0  0  0  0  0  0  0  0
  1  2  1  0  0  0  0
  1  3  2  0  0  0  0
  1  4  1  0  0  0  0
  4  5  1  0  0  0  0
  4  6  1  0  0  0  0
  4  7  1  0  0  0  0
  7  8  1  0  0  0  0
  7  9  1  0  0  0  0
  7 10  1  0  0  0  0
 10 11  1  0  0  0  0
 10 12  1  0  0  0  0
 10 13  1  0  0  0  0
 13 14  1  0  0  0  0
 13 15  1  0  0  0  0
 13 16  1  0  0  0  0
 16 17  1  0  0  0  0
 16 18  1  0  0  0  0
 16 19  1  0  0  0  0
 19 20  1  0  0  0  0
 19 21  1  0  0  0  0
 19 22  1  0  0  0  0
 22 23  1  0  0  0  0
 22 24  1  0  0  0  0
 22 25  1  0  0  0  0
M  END
> <VConfSearch Rank>
711

> <Conf_Id>
135

> <Delta U+W>
1.314

> <U+W>
-50.316

> <U>
9.773

> <W>
-60.088

> <W(PB)>
-62.535

> <W(SA)>
2.447

> <Valence>
8.741

> <Coulomb>
0.479

> <VdW>
0.552

> <VdW6>
-10.627

> <VdW12>
11.179

> <Bond>
0.227

> <Angle>
3.155

> <Pdih>
5.358

> <Idih>
0.001

> <Tether>
0.000

$$$$
VeraChem MOL file


 25 24  0  0  0  0  0  0  0  0999 V2000     
   21.6432   22.9192   22.0294 C   0  0  0  0  0  0  0  0  0  0  0  0
   22.8096   23.0822   22.3290 O   0  5  0  0  0  0  0  0  0  0  0  0
   21.0758   23.5544   21.1626 O   0  0  0  0  0  0  0  0  0  0  0  0
   20.8542   21.8427   22.7661 C   0  0  0  0  0  0  0  0  0  0  0  0
   19.8078   22.1659   22.8207 H   0  0  0  0  0  0  0  0  0  0  0  0
   21.2344   21.7962   23.7925 H   0  0  0  0  0  0  0  0  0  0  0  0
   20.9503   20.4547   22.0805 C   0  0  0  0  0  0  0  0  0  0  0  0
   20.6535   20.5630   21.0281 H   0  0  0  0  0  0  0  0  0  0  0  0
   21.9964   20.1185   22.0741 H   0  0  0  0  0  0  0  0  0  0  0  0
   20.0568   19.3745   22.7361 C   0  0  0  0  0  0  0  0  0  0  0  0
   20.0757   18.4863   22.0922 H   0  0  0  0  0  0  0  0  0  0  0  0
   19.0156   19.7232   22.7642 H   0  0  0  0  0  0  0  0  0  0  0  0
   20.5158   18.9747   24.1587 C   0  0  0  0  0  0  0  0  0  0  0  0
   21.5367   18.5720   24.1124 H   0  0  0  0  0  0  0  0  0  0  0  0
   20.5653   19.8682   24.7933 H   0  0  0  0  0  0  0  0  0  0  0  0
   19.5898   17.9488   24.8598 C   0  0  0  0  0  0  0  0  0  0  0  0
   18.5878   18.3784   24.9959 H   0  0  0  0  0  0  0  0  0  0  0  0
   19.9840   17.7865   25.8723 H   0  0  0  0  0  0  0  0  0  0  0  0
   19.4926   16.5728   24.1547 C   0  0  0  0  0  0  0  0  0  0  0  0
   20.4041   16.3768   23.5734 H   0  0  0  0  0  0  0  0  0  0  0  0
   19.4452   15.7872   24.9215 H   0  0  0  0  0  0  0  0  0  0  0  0
   18.2436   16.4379   23.2552 C   0  0  0  0  0  0  0  0  0  0  0  0
   18.2312   17.1903   22.4584 H   0  0  0  0  0  0  0  0  0  0  0  0
   18.2158   15.4477   22.7824 H   0  0  0  0  0  0  0  0  0  0  0  0
   17.3245   16.5543   23.8442 H   0  0  0  0  0  0  0  0  0  0  0  0
  1  2  1  0  0  0  0
  1  3  2  0  0  0  0
  1  4  1  0  0  0  0
  4  5  1  0  0  0  0
  4  6  1  0  0  0  0
  4  7  1  0  0  0  0
  7  8  1  0  0  0  0
  7  9  1  0  0  0  0
  7 10  1  0  0  0  0
 10 11  1  0  0  0  0
 10 12  1  0  0  0  0
 10 13  1  0  0  0  0
 13 14  1  0  0  0  0
 13 15  1  0  0  0  0
 13 16  1  0  0  0  0
 16 17  1  0  0  0  0
 16 18  1  0  0  0  0
 16 19  1  0  0  0  0
 19 20  1  0  0  0  0
 19 21  1  0  0  0  0
 19 22  1  0  0  0  0
 22 23  1  0  0  0  0
 22 24  1  0  0  0  0
 22 25  1  0  0  0  0
M  END
> <VConfSearch Rank>
712

> <Conf_Id>
19

> <Delta U+W>
3.222

> <U+W>
-48.407

> <U>
10.617

> <W>
-59.025

> <W(PB)>
-61.462

> <W(SA)>
2.437

> <Valence>
11.188

> <Coulomb>
-1.778

> <VdW>
1.208

> <VdW6>
-9.786

> <VdW12>
10.993

> <Bond>
0.241

> <Angle>
3.294

> <Pdih>
7.653

> <Idih>
0.001

> <Tether>
0.000

$$$$
VeraChem MOL file


 25 24  0  0  0  0  0  0  0  0999 V2000     
   17.4470   20.1753   20.1295 C   0  0  0  0  0  0  0  0  0  0  0  0
   18.0069   20.4356   19.0828 O   0  5  0  0  0  0  0  0  0  0  0  0
   16.3071   20.5104   20.3844 O   0  0  0  0  0  0  0  0  0  0  0  0
   18.2255   19.4058   21.1907 C   0  0  0  0  0  0  0  0  0  0  0  0
   18.9034   18.7189   20.6723 H   0  0  0  0  0  0  0  0  0  0  0  0
   17.5134   18.7946   21.7579 H   0  0  0  0  0  0  0  0  0  0  0  0
   19.0131   20.3372   22.1488 C   0  0  0  0  0  0  0  0  0  0  0  0
   19.7567   20.9099   21.5774 H   0  0  0  0  0  0  0  0  0  0  0  0
   18.3158   21.0725   22.5737 H   0  0  0  0  0  0  0  0  0  0  0  0
   19.7085   19.5884   23.3110 C   0  0  0  0  0  0  0  0  0  0  0  0
   18.9675   18.9968   23.8654 H   0  0  0  0  0  0  0  0  0  0  0  0
   20.0997   20.3396   24.0087 H   0  0  0  0  0  0  0  0  0  0  0  0
   20.8704   18.6766   22.8495 C   0  0  0  0  0  0  0  0  0  0  0  0
   20.5031   17.9647   22.1001 H   0  0  0  0  0  0  0  0  0  0  0  0
   21.6346   19.2859   22.3481 H   0  0  0  0  0  0  0  0  0  0  0  0
   21.5299   17.8619   23.9909 C   0  0  0  0  0  0  0  0  0  0  0  0
   22.2960   17.2185   23.5369 H   0  0  0  0  0  0  0  0  0  0  0  0
   20.7949   17.1790   24.4386 H   0  0  0  0  0  0  0  0  0  0  0  0
   22.2087   18.7160   25.0909 C   0  0  0  0  0  0  0  0  0  0  0  0
   23.1287   18.2085   25.4125 H   0  0  0  0  0  0  0  0  0  0  0  0
   22.5228   19.6859   24.6813 H   0  0  0  0  0  0  0  0  0  0  0  0
   21.3173   18.9229   26.3358 C   0  0  0  0  0  0  0  0  0  0  0  0
   21.0636   17.9601   26.7981 H   0  0  0  0  0  0  0  0  0  0  0  0
   21.8411   19.5280   27.0870 H   0  0  0  0  0  0  0  0  0  0  0  0
   20.3808   19.4349   26.0868 H   0  0  0  0  0  0  0  0  0  0  0  0
  1  2  1  0  0  0  0
  1  3  2  0  0  0  0
  1  4  1  0  0  0  0
  4  5  1  0  0  0  0
  4  6  1  0  0  0  0
  4  7  1  0  0  0  0
  7  8  1  0  0  0  0
  7  9  1  0  0  0  0
  7 10  1  0  0  0  0
 10 11  1  0  0  0  0
 10 12  1  0  0  0  0
 10 13  1  0  0  0  0
 13 14  1  0  0  0  0
 13 15  1  0  0  0  0
 13 16  1  0  0  0  0
 16 17  1  0  0  0  0
 16 18  1  0  0  0  0
 16 19  1  0  0  0  0
 19 20  1  0  0  0  0
 19 21  1  0  0  0  0
 19 22  1  0  0  0  0
 22 23  1  0  0  0  0
 22 24  1  0  0  0  0
 22 25  1  0  0  0  0
M  END
> <VConfSearch Rank>
713

> <Conf_Id>
20

> <Delta U+W>
3.224

> <U+W>
-48.406

> <U>
10.617

> <W>
-59.023

> <W(PB)>
-61.467

> <W(SA)>
2.444

> <Valence>
11.188

> <Coulomb>
-1.778

> <VdW>
1.208

> <VdW6>
-9.786

> <VdW12>
10.993

> <Bond>
0.241

> <Angle>
3.294

> <Pdih>
7.653

> <Idih>
0.001

> <Tether>
0.000

$$$$
VeraChem MOL file


 25 24  0  0  0  0  0  0  0  0999 V2000     
   18.8982   22.2469   24.2123 C   0  0  0  0  0  0  0  0  0  0  0  0
   19.7281   22.9911   23.7274 O   0  5  0  0  0  0  0  0  0  0  0  0
   18.8369   21.9932   25.3993 O   0  0  0  0  0  0  0  0  0  0  0  0
   17.8344   21.6499   23.2928 C   0  0  0  0  0  0  0  0  0  0  0  0
   17.2579   22.4951   22.8994 H   0  0  0  0  0  0  0  0  0  0  0  0
   17.1406   21.0492   23.8932 H   0  0  0  0  0  0  0  0  0  0  0  0
   18.3807   20.8124   22.1023 C   0  0  0  0  0  0  0  0  0  0  0  0
   17.5937   20.7558   21.3383 H   0  0  0  0  0  0  0  0  0  0  0  0
   19.2227   21.3376   21.6301 H   0  0  0  0  0  0  0  0  0  0  0  0
   18.7935   19.3637   22.4626 C   0  0  0  0  0  0  0  0  0  0  0  0
   19.0149   18.8291   21.5287 H   0  0  0  0  0  0  0  0  0  0  0  0
   17.9441   18.8410   22.9233 H   0  0  0  0  0  0  0  0  0  0  0  0
   20.0254   19.2717   23.3912 C   0  0  0  0  0  0  0  0  0  0  0  0
   20.8426   19.8811   22.9815 H   0  0  0  0  0  0  0  0  0  0  0  0
   19.7800   19.6844   24.3779 H   0  0  0  0  0  0  0  0  0  0  0  0
   20.5033   17.8135   23.5636 C   0  0  0  0  0  0  0  0  0  0  0  0
   20.7602   17.3920   22.5821 H   0  0  0  0  0  0  0  0  0  0  0  0
   19.6835   17.2047   23.9688 H   0  0  0  0  0  0  0  0  0  0  0  0
   21.7264   17.7194   24.4998 C   0  0  0  0  0  0  0  0  0  0  0  0
   22.5487   18.3268   24.0968 H   0  0  0  0  0  0  0  0  0  0  0  0
   21.4727   18.1387   25.4834 H   0  0  0  0  0  0  0  0  0  0  0  0
   22.2010   16.2623   24.6704 C   0  0  0  0  0  0  0  0  0  0  0  0
   22.4914   15.8281   23.7047 H   0  0  0  0  0  0  0  0  0  0  0  0
   23.0706   16.2143   25.3387 H   0  0  0  0  0  0  0  0  0  0  0  0
   21.4072   15.6386   25.1019 H   0  0  0  0  0  0  0  0  0  0  0  0
  1  2  1  0  0  0  0
  1  3  2  0  0  0  0
  1  4  1  0  0  0  0
  4  5  1  0  0  0  0
  4  6  1  0  0  0  0
  4  7  1  0  0  0  0
  7  8  1  0  0  0  0
  7  9  1  0  0  0  0
  7 10  1  0  0  0  0
 10 11  1  0  0  0  0
 10 12  1  0  0  0  0
 10 13  1  0  0  0  0
 13 14  1  0  0  0  0
 13 15  1  0  0  0  0
 13 16  1  0  0  0  0
 16 17  1  0  0  0  0
 16 18  1  0  0  0  0
 16 19  1  0  0  0  0
 19 20  1  0  0  0  0
 19 21  1  0  0  0  0
 19 22  1  0  0  0  0
 22 23  1  0  0  0  0
 22 24  1  0  0  0  0
 22 25  1  0  0  0  0
M  END
> <VConfSearch Rank>
714

> <Conf_Id>
24

> <Delta U+W>
1.784

> <U+W>
-49.846

> <U>
10.904

> <W>
-60.749

> <W(PB)>
-63.220

> <W(SA)>
2.471

> <Valence>
9.445

> <Coulomb>
0.780

> <VdW>
0.679

> <VdW6>
-10.008

> <VdW12>
10.687

> <Bond>
0.201

> <Angle>
3.198

> <Pdih>
6.039

> <Idih>
0.006

> <Tether>
0.000

$$$$
VeraChem MOL file


 25 24  0  0  0  0  0  0  0  0999 V2000     
   18.5802   20.0120   26.1732 C   0  0  0  0  0  0  0  0  0  0  0  0
   17.6387   19.2566   26.3168 O   0  5  0  0  0  0  0  0  0  0  0  0
   19.5961   19.9513   26.8377 O   0  0  0  0  0  0  0  0  0  0  0  0
   18.4558   21.1393   25.1499 C   0  0  0  0  0  0  0  0  0  0  0  0
   19.3642   21.7529   25.1833 H   0  0  0  0  0  0  0  0  0  0  0  0
   17.6334   21.7775   25.4933 H   0  0  0  0  0  0  0  0  0  0  0  0
   18.1672   20.6830   23.6920 C   0  0  0  0  0  0  0  0  0  0  0  0
   17.3890   19.9072   23.6895 H   0  0  0  0  0  0  0  0  0  0  0  0
   17.7435   21.5372   23.1469 H   0  0  0  0  0  0  0  0  0  0  0  0
   19.4090   20.1919   22.9071 C   0  0  0  0  0  0  0  0  0  0  0  0
   20.1780   20.9764   22.9033 H   0  0  0  0  0  0  0  0  0  0  0  0
   19.1144   20.0436   21.8592 H   0  0  0  0  0  0  0  0  0  0  0  0
   20.0136   18.8748   23.4440 C   0  0  0  0  0  0  0  0  0  0  0  0
   20.4337   19.0381   24.4445 H   0  0  0  0  0  0  0  0  0  0  0  0
   19.2217   18.1202   23.5466 H   0  0  0  0  0  0  0  0  0  0  0  0
   21.1246   18.3364   22.5165 C   0  0  0  0  0  0  0  0  0  0  0  0
   21.9131   19.0941   22.4113 H   0  0  0  0  0  0  0  0  0  0  0  0
   20.7133   18.1609   21.5130 H   0  0  0  0  0  0  0  0  0  0  0  0
   21.7369   17.0273   23.0576 C   0  0  0  0  0  0  0  0  0  0  0  0
   22.1510   17.1995   24.0609 H   0  0  0  0  0  0  0  0  0  0  0  0
   20.9507   16.2670   23.1634 H   0  0  0  0  0  0  0  0  0  0  0  0
   22.8461   16.4924   22.1297 C   0  0  0  0  0  0  0  0  0  0  0  0
   23.6612   17.2212   22.0313 H   0  0  0  0  0  0  0  0  0  0  0  0
   23.2699   15.5620   22.5297 H   0  0  0  0  0  0  0  0  0  0  0  0
   22.4517   16.2816   21.1271 H   0  0  0  0  0  0  0  0  0  0  0  0
  1  2  1  0  0  0  0
  1  3  2  0  0  0  0
  1  4  1  0  0  0  0
  4  5  1  0  0  0  0
  4  6  1  0  0  0  0
  4  7  1  0  0  0  0
  7  8  1  0  0  0  0
  7  9  1  0  0  0  0
  7 10  1  0  0  0  0
 10 11  1  0  0  0  0
 10 12  1  0  0  0  0
 10 13  1  0  0  0  0
 13 14  1  0  0  0  0
 13 15  1  0  0  0  0
 13 16  1  0  0  0  0
 16 17  1  0  0  0  0
 16 18  1  0  0  0  0
 16 19  1  0  0  0  0
 19 20  1  0  0  0  0
 19 21  1  0  0  0  0
 19 22  1  0  0  0  0
 22 23  1  0  0  0  0
 22 24  1  0  0  0  0
 22 25  1  0  0  0  0
M  END
> <VConfSearch Rank>
715

> <Conf_Id>
9

> <Delta U+W>
1.764

> <U+W>
-49.865

> <U>
10.902

> <W>
-60.768

> <W(PB)>
-63.223

> <W(SA)>
2.456

> <Valence>
9.445

> <Coulomb>
0.778

> <VdW>
0.679

> <VdW6>
-10.007

> <VdW12>
10.687

> <Bond>
0.201

> <Angle>
3.198

> <Pdih>
6.040

> <Idih>
0.006

> <Tether>
0.000

$$$$
VeraChem MOL file


 25 24  0  0  0  0  0  0  0  0999 V2000     
   21.0524   16.4144   25.6408 C   0  0  0  0  0  0  0  0  0  0  0  0
   20.3755   16.8483   26.5519 O   0  5  0  0  0  0  0  0  0  0  0  0
   21.5161   15.2912   25.6222 O   0  0  0  0  0  0  0  0  0  0  0  0
   21.3177   17.3221   24.4452 C   0  0  0  0  0  0  0  0  0  0  0  0
   22.3111   17.0786   24.0500 H   0  0  0  0  0  0  0  0  0  0  0  0
   21.3639   18.3523   24.8111 H   0  0  0  0  0  0  0  0  0  0  0  0
   20.2501   17.1713   23.3294 C   0  0  0  0  0  0  0  0  0  0  0  0
   20.2541   16.1237   22.9978 H   0  0  0  0  0  0  0  0  0  0  0  0
   19.2472   17.3585   23.7375 H   0  0  0  0  0  0  0  0  0  0  0  0
   20.5075   18.0804   22.1008 C   0  0  0  0  0  0  0  0  0  0  0  0
   20.1899   17.5360   21.2010 H   0  0  0  0  0  0  0  0  0  0  0  0
   21.5844   18.2585   21.9769 H   0  0  0  0  0  0  0  0  0  0  0  0
   19.7432   19.4281   22.1224 C   0  0  0  0  0  0  0  0  0  0  0  0
   19.9328   19.9473   21.1731 H   0  0  0  0  0  0  0  0  0  0  0  0
   18.6643   19.2273   22.1549 H   0  0  0  0  0  0  0  0  0  0  0  0
   20.1351   20.3620   23.2918 C   0  0  0  0  0  0  0  0  0  0  0  0
   21.2299   20.4328   23.3439 H   0  0  0  0  0  0  0  0  0  0  0  0
   19.7980   19.9281   24.2422 H   0  0  0  0  0  0  0  0  0  0  0  0
   19.5545   21.7889   23.1560 C   0  0  0  0  0  0  0  0  0  0  0  0
   19.9567   22.4121   23.9666 H   0  0  0  0  0  0  0  0  0  0  0  0
   19.8991   22.2421   22.2163 H   0  0  0  0  0  0  0  0  0  0  0  0
   18.0120   21.8274   23.2161 C   0  0  0  0  0  0  0  0  0  0  0  0
   17.6431   21.3565   24.1366 H   0  0  0  0  0  0  0  0  0  0  0  0
   17.6527   22.8644   23.1992 H   0  0  0  0  0  0  0  0  0  0  0  0
   17.5653   21.3066   22.3599 H   0  0  0  0  0  0  0  0  0  0  0  0
  1  2  1  0  0  0  0
  1  3  2  0  0  0  0
  1  4  1  0  0  0  0
  4  5  1  0  0  0  0
  4  6  1  0  0  0  0
  4  7  1  0  0  0  0
  7  8  1  0  0  0  0
  7  9  1  0  0  0  0
  7 10  1  0  0  0  0
 10 11  1  0  0  0  0
 10 12  1  0  0  0  0
 10 13  1  0  0  0  0
 13 14  1  0  0  0  0
 13 15  1  0  0  0  0
 13 16  1  0  0  0  0
 16 17  1  0  0  0  0
 16 18  1  0  0  0  0
 16 19  1  0  0  0  0
 19 20  1  0  0  0  0
 19 21  1  0  0  0  0
 19 22  1  0  0  0  0
 22 23  1  0  0  0  0
 22 24  1  0  0  0  0
 22 25  1  0  0  0  0
M  END
> <VConfSearch Rank>
716

> <Conf_Id>
89

> <Delta U+W>
2.903

> <U+W>
-48.726

> <U>
10.996

> <W>
-59.723

> <W(PB)>
-62.151

> <W(SA)>
2.428

> <Valence>
10.985

> <Coulomb>
-0.995

> <VdW>
1.006

> <VdW6>
-10.062

> <VdW12>
11.069

> <Bond>
0.238

> <Angle>
3.202

> <Pdih>
7.544

> <Idih>
0.001

> <Tether>
0.000

$$$$
VeraChem MOL file


 25 24  0  0  0  0  0  0  0  0999 V2000     
   16.9431   19.5605   24.8434 C   0  0  0  0  0  0  0  0  0  0  0  0
   16.3266   18.7123   24.2287 O   0  5  0  0  0  0  0  0  0  0  0  0
   17.1017   19.5328   26.0482 O   0  0  0  0  0  0  0  0  0  0  0  0
   17.4911   20.7564   24.0670 C   0  0  0  0  0  0  0  0  0  0  0  0
   16.9571   21.6370   24.4422 H   0  0  0  0  0  0  0  0  0  0  0  0
   17.2182   20.6511   23.0100 H   0  0  0  0  0  0  0  0  0  0  0  0
   19.0210   20.9950   24.2079 C   0  0  0  0  0  0  0  0  0  0  0  0
   19.2240   22.0437   23.9518 H   0  0  0  0  0  0  0  0  0  0  0  0
   19.3242   20.8771   25.2575 H   0  0  0  0  0  0  0  0  0  0  0  0
   19.9064   20.1090   23.2963 C   0  0  0  0  0  0  0  0  0  0  0  0
   20.9339   20.4876   23.3620 H   0  0  0  0  0  0  0  0  0  0  0  0
   19.5980   20.2322   22.2493 H   0  0  0  0  0  0  0  0  0  0  0  0
   19.8899   18.6068   23.6699 C   0  0  0  0  0  0  0  0  0  0  0  0
   20.1384   18.4832   24.7328 H   0  0  0  0  0  0  0  0  0  0  0  0
   18.8745   18.2132   23.5392 H   0  0  0  0  0  0  0  0  0  0  0  0
   20.8439   17.7450   22.8082 C   0  0  0  0  0  0  0  0  0  0  0  0
   20.6156   17.8946   21.7441 H   0  0  0  0  0  0  0  0  0  0  0  0
   20.6419   16.6866   23.0226 H   0  0  0  0  0  0  0  0  0  0  0  0
   22.3413   18.0282   23.0674 C   0  0  0  0  0  0  0  0  0  0  0  0
   22.5884   19.0588   22.7821 H   0  0  0  0  0  0  0  0  0  0  0  0
   22.5559   17.9322   24.1407 H   0  0  0  0  0  0  0  0  0  0  0  0
   23.2445   17.0604   22.2765 C   0  0  0  0  0  0  0  0  0  0  0  0
   23.0697   17.1545   21.1967 H   0  0  0  0  0  0  0  0  0  0  0  0
   24.3037   17.2758   22.4684 H   0  0  0  0  0  0  0  0  0  0  0  0
   23.0531   16.0187   22.5654 H   0  0  0  0  0  0  0  0  0  0  0  0
  1  2  1  0  0  0  0
  1  3  2  0  0  0  0
  1  4  1  0  0  0  0
  4  5  1  0  0  0  0
  4  6  1  0  0  0  0
  4  7  1  0  0  0  0
  7  8  1  0  0  0  0
  7  9  1  0  0  0  0
  7 10  1  0  0  0  0
 10 11  1  0  0  0  0
 10 12  1  0  0  0  0
 10 13  1  0  0  0  0
 13 14  1  0  0  0  0
 13 15  1  0  0  0  0
 13 16  1  0  0  0  0
 16 17  1  0  0  0  0
 16 18  1  0  0  0  0
 16 19  1  0  0  0  0
 19 20  1  0  0  0  0
 19 21  1  0  0  0  0
 19 22  1  0  0  0  0
 22 23  1  0  0  0  0
 22 24  1  0  0  0  0
 22 25  1  0  0  0  0
M  END
> <VConfSearch Rank>
717

> <Conf_Id>
114

> <Delta U+W>
2.758

> <U+W>
-48.871

> <U>
11.422

> <W>
-60.293

> <W(PB)>
-62.719

> <W(SA)>
2.425

> <Valence>
10.135

> <Coulomb>
0.369

> <VdW>
0.918

> <VdW6>
-10.482

> <VdW12>
11.400

> <Bond>
0.245

> <Angle>
3.539

> <Pdih>
6.346

> <Idih>
0.006

> <Tether>
0.000

$$$$
VeraChem MOL file


 25 24  0  0  0  0  0  0  0  0999 V2000     
   16.4368   19.5665   23.8103 C   0  0  0  0  0  0  0  0  0  0  0  0
   16.0103   19.7856   22.6935 O   0  5  0  0  0  0  0  0  0  0  0  0
   16.1029   18.6105   24.4824 O   0  0  0  0  0  0  0  0  0  0  0  0
   17.4307   20.5561   24.4118 C   0  0  0  0  0  0  0  0  0  0  0  0
   17.1132   20.7550   25.4422 H   0  0  0  0  0  0  0  0  0  0  0  0
   17.3531   21.5048   23.8671 H   0  0  0  0  0  0  0  0  0  0  0  0
   18.8980   20.0540   24.4094 C   0  0  0  0  0  0  0  0  0  0  0  0
   19.5188   20.7640   24.9722 H   0  0  0  0  0  0  0  0  0  0  0  0
   18.9460   19.0963   24.9440 H   0  0  0  0  0  0  0  0  0  0  0  0
   19.4678   19.8992   22.9788 C   0  0  0  0  0  0  0  0  0  0  0  0
   19.3226   20.8422   22.4344 H   0  0  0  0  0  0  0  0  0  0  0  0
   18.8991   19.1355   22.4304 H   0  0  0  0  0  0  0  0  0  0  0  0
   20.9733   19.5424   22.9471 C   0  0  0  0  0  0  0  0  0  0  0  0
   21.3130   19.5999   21.9053 H   0  0  0  0  0  0  0  0  0  0  0  0
   21.5429   20.2996   23.5027 H   0  0  0  0  0  0  0  0  0  0  0  0
   21.2850   18.1345   23.5120 C   0  0  0  0  0  0  0  0  0  0  0  0
   20.7123   17.3781   22.9584 H   0  0  0  0  0  0  0  0  0  0  0  0
   20.9499   18.0769   24.5553 H   0  0  0  0  0  0  0  0  0  0  0  0
   22.7891   17.7759   23.4728 C   0  0  0  0  0  0  0  0  0  0  0  0
   23.3664   18.5368   24.0159 H   0  0  0  0  0  0  0  0  0  0  0  0
   22.9388   16.8302   24.0118 H   0  0  0  0  0  0  0  0  0  0  0  0
   23.3472   17.6226   22.0410 C   0  0  0  0  0  0  0  0  0  0  0  0
   24.3879   17.2750   22.0704 H   0  0  0  0  0  0  0  0  0  0  0  0
   22.7629   16.8911   21.4677 H   0  0  0  0  0  0  0  0  0  0  0  0
   23.3320   18.5766   21.4995 H   0  0  0  0  0  0  0  0  0  0  0  0
  1  2  1  0  0  0  0
  1  3  2  0  0  0  0
  1  4  1  0  0  0  0
  4  5  1  0  0  0  0
  4  6  1  0  0  0  0
  4  7  1  0  0  0  0
  7  8  1  0  0  0  0
  7  9  1  0  0  0  0
  7 10  1  0  0  0  0
 10 11  1  0  0  0  0
 10 12  1  0  0  0  0
 10 13  1  0  0  0  0
 13 14  1  0  0  0  0
 13 15  1  0  0  0  0
 13 16  1  0  0  0  0
 16 17  1  0  0  0  0
 16 18  1  0  0  0  0
 16 19  1  0  0  0  0
 19 20  1  0  0  0  0
 19 21  1  0  0  0  0
 19 22  1  0  0  0  0
 22 23  1  0  0  0  0
 22 24  1  0  0  0  0
 22 25  1  0  0  0  0
M  END
> <VConfSearch Rank>
718

> <Conf_Id>
87

> <Delta U+W>
1.453

> <U+W>
-50.176

> <U>
9.763

> <W>
-59.940

> <W(PB)>
-62.392

> <W(SA)>
2.452

> <Valence>
8.883

> <Coulomb>
-0.122

> <VdW>
1.003

> <VdW6>
-9.782

> <VdW12>
10.785

> <Bond>
0.212

> <Angle>
2.940

> <Pdih>
5.730

> <Idih>
0.001

> <Tether>
0.000

$$$$
VeraChem MOL file


 25 24  0  0  0  0  0  0  0  0999 V2000     
   16.1391   19.0217   22.8265 C   0  0  0  0  0  0  0  0  0  0  0  0
   15.7941   18.2040   23.6566 O   0  5  0  0  0  0  0  0  0  0  0  0
   15.4569   19.9699   22.4914 O   0  0  0  0  0  0  0  0  0  0  0  0
   17.5116   18.8593   22.1831 C   0  0  0  0  0  0  0  0  0  0  0  0
   17.4527   19.2370   21.1553 H   0  0  0  0  0  0  0  0  0  0  0  0
   17.7350   17.7873   22.1227 H   0  0  0  0  0  0  0  0  0  0  0  0
   18.6309   19.5946   22.9604 C   0  0  0  0  0  0  0  0  0  0  0  0
   18.3896   20.6648   23.0201 H   0  0  0  0  0  0  0  0  0  0  0  0
   18.6571   19.2139   23.9901 H   0  0  0  0  0  0  0  0  0  0  0  0
   20.0121   19.4079   22.2910 C   0  0  0  0  0  0  0  0  0  0  0  0
   19.9475   19.7292   21.2426 H   0  0  0  0  0  0  0  0  0  0  0  0
   20.2724   18.3415   22.2670 H   0  0  0  0  0  0  0  0  0  0  0  0
   21.1442   20.2116   22.9786 C   0  0  0  0  0  0  0  0  0  0  0  0
   22.0733   20.0724   22.4103 H   0  0  0  0  0  0  0  0  0  0  0  0
   20.9111   21.2826   22.9082 H   0  0  0  0  0  0  0  0  0  0  0  0
   21.3983   19.8574   24.4678 C   0  0  0  0  0  0  0  0  0  0  0  0
   20.5250   20.1504   25.0651 H   0  0  0  0  0  0  0  0  0  0  0  0
   22.2295   20.4734   24.8368 H   0  0  0  0  0  0  0  0  0  0  0  0
   21.7198   18.3683   24.7460 C   0  0  0  0  0  0  0  0  0  0  0  0
   21.8541   18.2352   25.8282 H   0  0  0  0  0  0  0  0  0  0  0  0
   20.8647   17.7386   24.4665 H   0  0  0  0  0  0  0  0  0  0  0  0
   22.9908   17.8731   24.0226 C   0  0  0  0  0  0  0  0  0  0  0  0
   23.8559   18.4996   24.2755 H   0  0  0  0  0  0  0  0  0  0  0  0
   23.2225   16.8411   24.3159 H   0  0  0  0  0  0  0  0  0  0  0  0
   22.8608   17.8884   22.9332 H   0  0  0  0  0  0  0  0  0  0  0  0
  1  2  1  0  0  0  0
  1  3  2  0  0  0  0
  1  4  1  0  0  0  0
  4  5  1  0  0  0  0
  4  6  1  0  0  0  0
  4  7  1  0  0  0  0
  7  8  1  0  0  0  0
  7  9  1  0  0  0  0
  7 10  1  0  0  0  0
 10 11  1  0  0  0  0
 10 12  1  0  0  0  0
 10 13  1  0  0  0  0
 13 14  1  0  0  0  0
 13 15  1  0  0  0  0
 13 16  1  0  0  0  0
 16 17  1  0  0  0  0
 16 18  1  0  0  0  0
 16 19  1  0  0  0  0
 19 20  1  0  0  0  0
 19 21  1  0  0  0  0
 19 22  1  0  0  0  0
 22 23  1  0  0  0  0
 22 24  1  0  0  0  0
 22 25  1  0  0  0  0
M  END
> <VConfSearch Rank>
719

> <Conf_Id>
29

> <Delta U+W>
0.850

> <U+W>
-50.780

> <U>
8.646

> <W>
-59.426

> <W(PB)>
-61.868

> <W(SA)>
2.442

> <Valence>
8.924

> <Coulomb>
-1.171

> <VdW>
0.894

> <VdW6>
-10.223

> <VdW12>
11.117

> <Bond>
0.231

> <Angle>
3.232

> <Pdih>
5.461

> <Idih>
0.001

> <Tether>
0.000

$$$$
VeraChem MOL file


 25 24  0  0  0  0  0  0  0  0999 V2000     
   21.1266   22.8783   22.5022 C   0  0  0  0  0  0  0  0  0  0  0  0
   20.8391   22.9694   21.3251 O   0  5  0  0  0  0  0  0  0  0  0  0
   22.0670   23.4548   23.0122 O   0  0  0  0  0  0  0  0  0  0  0  0
   20.2715   21.9757   23.3844 C   0  0  0  0  0  0  0  0  0  0  0  0
   19.2445   21.9978   23.0005 H   0  0  0  0  0  0  0  0  0  0  0  0
   20.2504   22.4060   24.3928 H   0  0  0  0  0  0  0  0  0  0  0  0
   20.7908   20.5177   23.4353 C   0  0  0  0  0  0  0  0  0  0  0  0
   20.8217   20.1160   22.4138 H   0  0  0  0  0  0  0  0  0  0  0  0
   21.8224   20.5120   23.8135 H   0  0  0  0  0  0  0  0  0  0  0  0
   19.9022   19.6231   24.3300 C   0  0  0  0  0  0  0  0  0  0  0  0
   18.8801   19.5959   23.9300 H   0  0  0  0  0  0  0  0  0  0  0  0
   19.8269   20.0776   25.3272 H   0  0  0  0  0  0  0  0  0  0  0  0
   20.4438   18.1805   24.4911 C   0  0  0  0  0  0  0  0  0  0  0  0
   21.4265   18.2238   24.9799 H   0  0  0  0  0  0  0  0  0  0  0  0
   19.7919   17.6324   25.1839 H   0  0  0  0  0  0  0  0  0  0  0  0
   20.5822   17.3734   23.1730 C   0  0  0  0  0  0  0  0  0  0  0  0
   20.9533   16.3685   23.4157 H   0  0  0  0  0  0  0  0  0  0  0  0
   21.3579   17.8319   22.5459 H   0  0  0  0  0  0  0  0  0  0  0  0
   19.2816   17.2374   22.3434 C   0  0  0  0  0  0  0  0  0  0  0  0
   18.9391   18.2270   22.0129 H   0  0  0  0  0  0  0  0  0  0  0  0
   19.5073   16.6729   21.4284 H   0  0  0  0  0  0  0  0  0  0  0  0
   18.1455   16.5192   23.1033 C   0  0  0  0  0  0  0  0  0  0  0  0
   17.8140   17.1042   23.9703 H   0  0  0  0  0  0  0  0  0  0  0  0
   17.2770   16.3735   22.4480 H   0  0  0  0  0  0  0  0  0  0  0  0
   18.4721   15.5328   23.4573 H   0  0  0  0  0  0  0  0  0  0  0  0
  1  2  1  0  0  0  0
  1  3  2  0  0  0  0
  1  4  1  0  0  0  0
  4  5  1  0  0  0  0
  4  6  1  0  0  0  0
  4  7  1  0  0  0  0
  7  8  1  0  0  0  0
  7  9  1  0  0  0  0
  7 10  1  0  0  0  0
 10 11  1  0  0  0  0
 10 12  1  0  0  0  0
 10 13  1  0  0  0  0
 13 14  1  0  0  0  0
 13 15  1  0  0  0  0
 13 16  1  0  0  0  0
 16 17  1  0  0  0  0
 16 18  1  0  0  0  0
 16 19  1  0  0  0  0
 19 20  1  0  0  0  0
 19 21  1  0  0  0  0
 19 22  1  0  0  0  0
 22 23  1  0  0  0  0
 22 24  1  0  0  0  0
 22 25  1  0  0  0  0
M  END
> <VConfSearch Rank>
720

> <Conf_Id>
30

> <Delta U+W>
0.843

> <U+W>
-50.787

> <U>
8.647

> <W>
-59.434

> <W(PB)>
-61.861

> <W(SA)>
2.428

> <Valence>
8.924

> <Coulomb>
-1.170

> <VdW>
0.894

> <VdW6>
-10.224

> <VdW12>
11.118

> <Bond>
0.231

> <Angle>
3.232

> <Pdih>
5.460

> <Idih>
0.000

> <Tether>
0.000

$$$$
VeraChem MOL file


 25 24  0  0  0  0  0  0  0  0999 V2000     
   23.2671   19.2063   26.5810 C   0  0  0  0  0  0  0  0  0  0  0  0
   23.2976   17.9939   26.6687 O   0  5  0  0  0  0  0  0  0  0  0  0
   23.9413   19.9393   27.2770 O   0  0  0  0  0  0  0  0  0  0  0  0
   22.3462   19.8699   25.5559 C   0  0  0  0  0  0  0  0  0  0  0  0
   22.9737   20.4929   24.9078 H   0  0  0  0  0  0  0  0  0  0  0  0
   21.6802   20.5464   26.1043 H   0  0  0  0  0  0  0  0  0  0  0  0
   21.5057   18.8934   24.6908 C   0  0  0  0  0  0  0  0  0  0  0  0
   22.1790   18.2145   24.1491 H   0  0  0  0  0  0  0  0  0  0  0  0
   20.8842   18.2680   25.3467 H   0  0  0  0  0  0  0  0  0  0  0  0
   20.6066   19.6451   23.6852 C   0  0  0  0  0  0  0  0  0  0  0  0
   21.2301   20.2696   23.0307 H   0  0  0  0  0  0  0  0  0  0  0  0
   19.9345   20.3231   24.2290 H   0  0  0  0  0  0  0  0  0  0  0  0
   19.7715   18.6718   22.8258 C   0  0  0  0  0  0  0  0  0  0  0  0
   20.4434   17.9936   22.2819 H   0  0  0  0  0  0  0  0  0  0  0  0
   19.1479   18.0472   23.4801 H   0  0  0  0  0  0  0  0  0  0  0  0
   18.8723   19.4228   21.8201 C   0  0  0  0  0  0  0  0  0  0  0  0
   19.4957   20.0474   21.1657 H   0  0  0  0  0  0  0  0  0  0  0  0
   18.2003   20.1009   22.3638 H   0  0  0  0  0  0  0  0  0  0  0  0
   18.0375   18.4500   20.9610 C   0  0  0  0  0  0  0  0  0  0  0  0
   18.7066   17.7712   20.4141 H   0  0  0  0  0  0  0  0  0  0  0  0
   17.4111   17.8247   21.6122 H   0  0  0  0  0  0  0  0  0  0  0  0
   17.1410   19.2037   19.9581 C   0  0  0  0  0  0  0  0  0  0  0  0
   17.7445   19.8135   19.2730 H   0  0  0  0  0  0  0  0  0  0  0  0
   16.5550   18.4972   19.3560 H   0  0  0  0  0  0  0  0  0  0  0  0
   16.4393   19.8674   20.4801 H   0  0  0  0  0  0  0  0  0  0  0  0
  1  2  1  0  0  0  0
  1  3  2  0  0  0  0
  1  4  1  0  0  0  0
  4  5  1  0  0  0  0
  4  6  1  0  0  0  0
  4  7  1  0  0  0  0
  7  8  1  0  0  0  0
  7  9  1  0  0  0  0
  7 10  1  0  0  0  0
 10 11  1  0  0  0  0
 10 12  1  0  0  0  0
 10 13  1  0  0  0  0
 13 14  1  0  0  0  0
 13 15  1  0  0  0  0
 13 16  1  0  0  0  0
 16 17  1  0  0  0  0
 16 18  1  0  0  0  0
 16 19  1  0  0  0  0
 19 20  1  0  0  0  0
 19 21  1  0  0  0  0
 19 22  1  0  0  0  0
 22 23  1  0  0  0  0
 22 24  1  0  0  0  0
 22 25  1  0  0  0  0
M  END
> <VConfSearch Rank>
721

> <Conf_Id>
0

> <Delta U+W>
0.000

> <U+W>
-51.629

> <U>
6.586

> <W>
-58.216

> <W(PB)>
-60.757

> <W(SA)>
2.541

> <Valence>
8.027

> <Coulomb>
-2.892

> <VdW>
1.451

> <VdW6>
-7.931

> <VdW12>
9.383

> <Bond>
0.149

> <Angle>
2.726

> <Pdih>
5.152

> <Idih>
0.000

> <Tether>
0.000

$$$$
VeraChem MOL file


 25 24  0  0  0  0  0  0  0  0999 V2000     
   15.9535   20.7351   21.7387 C   0  0  0  0  0  0  0  0  0  0  0  0
   16.0031   21.7307   21.0437 O   0  5  0  0  0  0  0  0  0  0  0  0
   15.1009   19.8767   21.6256 O   0  0  0  0  0  0  0  0  0  0  0  0
   17.0344   20.5410   22.7961 C   0  0  0  0  0  0  0  0  0  0  0  0
   16.5906   20.0021   23.6419 H   0  0  0  0  0  0  0  0  0  0  0  0
   17.3337   21.5302   23.1628 H   0  0  0  0  0  0  0  0  0  0  0  0
   18.2681   19.7732   22.2609 C   0  0  0  0  0  0  0  0  0  0  0  0
   17.9494   18.7908   21.8856 H   0  0  0  0  0  0  0  0  0  0  0  0
   18.6924   20.3187   21.4065 H   0  0  0  0  0  0  0  0  0  0  0  0
   19.3477   19.5897   23.3494 C   0  0  0  0  0  0  0  0  0  0  0  0
   18.9201   19.0451   24.2025 H   0  0  0  0  0  0  0  0  0  0  0  0
   19.6631   20.5734   23.7234 H   0  0  0  0  0  0  0  0  0  0  0  0
   20.5764   18.8242   22.8129 C   0  0  0  0  0  0  0  0  0  0  0  0
   20.2613   17.8404   22.4390 H   0  0  0  0  0  0  0  0  0  0  0  0
   21.0041   19.3686   21.9598 H   0  0  0  0  0  0  0  0  0  0  0  0
   21.6564   18.6403   23.9009 C   0  0  0  0  0  0  0  0  0  0  0  0
   21.2290   18.0958   24.7540 H   0  0  0  0  0  0  0  0  0  0  0  0
   21.9718   19.6240   24.2750 H   0  0  0  0  0  0  0  0  0  0  0  0
   22.8847   17.8753   23.3648 C   0  0  0  0  0  0  0  0  0  0  0  0
   22.5734   16.8898   22.9913 H   0  0  0  0  0  0  0  0  0  0  0  0
   23.3162   18.4180   22.5123 H   0  0  0  0  0  0  0  0  0  0  0  0
   23.9608   17.6937   24.4541 C   0  0  0  0  0  0  0  0  0  0  0  0
   24.8263   17.1482   24.0559 H   0  0  0  0  0  0  0  0  0  0  0  0
   24.3135   18.6655   24.8237 H   0  0  0  0  0  0  0  0  0  0  0  0
   23.5652   17.1258   25.3063 H   0  0  0  0  0  0  0  0  0  0  0  0
  1  2  1  0  0  0  0
  1  3  2  0  0  0  0
  1  4  1  0  0  0  0
  4  5  1  0  0  0  0
  4  6  1  0  0  0  0
  4  7  1  0  0  0  0
  7  8  1  0  0  0  0
  7  9  1  0  0  0  0
  7 10  1  0  0  0  0
 10 11  1  0  0  0  0
 10 12  1  0  0  0  0
 10 13  1  0  0  0  0
 13 14  1  0  0  0  0
 13 15  1  0  0  0  0
 13 16  1  0  0  0  0
 16 17  1  0  0  0  0
 16 18  1  0  0  0  0
 16 19  1  0  0  0  0
 19 20  1  0  0  0  0
 19 21  1  0  0  0  0
 19 22  1  0  0  0  0
 22 23  1  0  0  0  0
 22 24  1  0  0  0  0
 22 25  1  0  0  0  0
M  END
> <VConfSearch Rank>
722

> <Conf_Id>
27

> <Delta U+W>
-1.297

> <U+W>
-52.926

> <U>
5.617

> <W>
-58.543

> <W(PB)>
-61.065

> <W(SA)>
2.522

> <Valence>
7.531

> <Coulomb>
-2.818

> <VdW>
0.904

> <VdW6>
-7.640

> <VdW12>
8.544

> <Bond>
0.115

> <Angle>
2.271

> <Pdih>
5.144

> <Idih>
0.001

> <Tether>
0.000

$$$$
VeraChem MOL file


 25 24  0  0  0  0  0  0  0  0999 V2000     
   20.1141   21.1028   19.8525 C   0  0  0  0  0  0  0  0  0  0  0  0
   21.2013   21.5055   19.4878 O   0  5  0  0  0  0  0  0  0  0  0  0
   19.4817   20.2475   19.2649 O   0  0  0  0  0  0  0  0  0  0  0  0
   19.5041   21.7186   21.1085 C   0  0  0  0  0  0  0  0  0  0  0  0
   18.4256   21.5191   21.1079 H   0  0  0  0  0  0  0  0  0  0  0  0
   19.6258   22.8056   21.0331 H   0  0  0  0  0  0  0  0  0  0  0  0
   20.1411   21.2162   22.4302 C   0  0  0  0  0  0  0  0  0  0  0  0
   21.2246   21.3978   22.4040 H   0  0  0  0  0  0  0  0  0  0  0  0
   19.7417   21.8070   23.2655 H   0  0  0  0  0  0  0  0  0  0  0  0
   19.8678   19.7176   22.6895 C   0  0  0  0  0  0  0  0  0  0  0  0
   20.2802   19.1181   21.8661 H   0  0  0  0  0  0  0  0  0  0  0  0
   18.7838   19.5389   22.7013 H   0  0  0  0  0  0  0  0  0  0  0  0
   20.4833   19.2468   24.0249 C   0  0  0  0  0  0  0  0  0  0  0  0
   21.5672   19.4259   24.0121 H   0  0  0  0  0  0  0  0  0  0  0  0
   20.0701   19.8429   24.8501 H   0  0  0  0  0  0  0  0  0  0  0  0
   20.2114   17.7493   24.2843 C   0  0  0  0  0  0  0  0  0  0  0  0
   20.6244   17.1531   23.4591 H   0  0  0  0  0  0  0  0  0  0  0  0
   19.1275   17.5700   24.2967 H   0  0  0  0  0  0  0  0  0  0  0  0
   20.8269   17.2782   25.6187 C   0  0  0  0  0  0  0  0  0  0  0  0
   21.9114   17.4544   25.6090 H   0  0  0  0  0  0  0  0  0  0  0  0
   20.4144   17.8713   26.4467 H   0  0  0  0  0  0  0  0  0  0  0  0
   20.5532   15.7823   25.8738 C   0  0  0  0  0  0  0  0  0  0  0  0
   20.9829   15.1627   25.0758 H   0  0  0  0  0  0  0  0  0  0  0  0
   20.9975   15.4646   26.8260 H   0  0  0  0  0  0  0  0  0  0  0  0
   19.4746   15.5826   25.9198 H   0  0  0  0  0  0  0  0  0  0  0  0
  1  2  1  0  0  0  0
  1  3  2  0  0  0  0
  1  4  1  0  0  0  0
  4  5  1  0  0  0  0
  4  6  1  0  0  0  0
  4  7  1  0  0  0  0
  7  8  1  0  0  0  0
  7  9  1  0  0  0  0
  7 10  1  0  0  0  0
 10 11  1  0  0  0  0
 10 12  1  0  0  0  0
 10 13  1  0  0  0  0
 13 14  1  0  0  0  0
 13 15  1  0  0  0  0
 13 16  1  0  0  0  0
 16 17  1  0  0  0  0
 16 18  1  0  0  0  0
 16 19  1  0  0  0  0
 19 20  1  0  0  0  0
 19 21  1  0  0  0  0
 19 22  1  0  0  0  0
 22 23  1  0  0  0  0
 22 24  1  0  0  0  0
 22 25  1  0  0  0  0
M  END
> <VConfSearch Rank>
723

> <Conf_Id>
37

> <Delta U+W>
-0.230

> <U+W>
-51.860

> <U>
7.816

> <W>
-59.675

> <W(PB)>
-62.180

> <W(SA)>
2.505

> <Valence>
7.785

> <Coulomb>
-0.713

> <VdW>
0.744

> <VdW6>
-8.514

> <VdW12>
9.259

> <Bond>
0.136

> <Angle>
2.433

> <Pdih>
5.216

> <Idih>
0.000

> <Tether>
0.000

$$$$
VeraChem MOL file


 25 24  0  0  0  0  0  0  0  0999 V2000     
   20.1106   23.1483   24.6288 C   0  0  0  0  0  0  0  0  0  0  0  0
   19.0263   23.5832   24.9639 O   0  5  0  0  0  0  0  0  0  0  0  0
   20.7328   23.5590   23.6690 O   0  0  0  0  0  0  0  0  0  0  0  0
   20.7303   22.0365   25.4706 C   0  0  0  0  0  0  0  0  0  0  0  0
   20.6191   22.3216   26.5234 H   0  0  0  0  0  0  0  0  0  0  0  0
   21.8067   21.9992   25.2637 H   0  0  0  0  0  0  0  0  0  0  0  0
   20.0921   20.6418   25.2413 C   0  0  0  0  0  0  0  0  0  0  0  0
   20.4997   19.9376   25.9791 H   0  0  0  0  0  0  0  0  0  0  0  0
   19.0103   20.7019   25.4254 H   0  0  0  0  0  0  0  0  0  0  0  0
   20.3514   20.0963   23.8190 C   0  0  0  0  0  0  0  0  0  0  0  0
   21.4335   20.0508   23.6350 H   0  0  0  0  0  0  0  0  0  0  0  0
   19.9309   20.7871   23.0751 H   0  0  0  0  0  0  0  0  0  0  0  0
   19.7348   18.6945   23.6231 C   0  0  0  0  0  0  0  0  0  0  0  0
   20.1560   18.0012   24.3640 H   0  0  0  0  0  0  0  0  0  0  0  0
   18.6527   18.7410   23.8071 H   0  0  0  0  0  0  0  0  0  0  0  0
   19.9929   18.1490   22.2019 C   0  0  0  0  0  0  0  0  0  0  0  0
   21.0750   18.1026   22.0175 H   0  0  0  0  0  0  0  0  0  0  0  0
   19.5719   18.8423   21.4608 H   0  0  0  0  0  0  0  0  0  0  0  0
   19.3763   16.7481   22.0054 C   0  0  0  0  0  0  0  0  0  0  0  0
   19.7966   16.0514   22.7440 H   0  0  0  0  0  0  0  0  0  0  0  0
   18.2935   16.7911   22.1872 H   0  0  0  0  0  0  0  0  0  0  0  0
   19.6363   16.2071   20.5851 C   0  0  0  0  0  0  0  0  0  0  0  0
   20.7130   16.1238   20.3874 H   0  0  0  0  0  0  0  0  0  0  0  0
   19.1913   15.2110   20.4630 H   0  0  0  0  0  0  0  0  0  0  0  0
   19.1986   16.8691   19.8264 H   0  0  0  0  0  0  0  0  0  0  0  0
  1  2  1  0  0  0  0
  1  3  2  0  0  0  0
  1  4  1  0  0  0  0
  4  5  1  0  0  0  0
  4  6  1  0  0  0  0
  4  7  1  0  0  0  0
  7  8  1  0  0  0  0
  7  9  1  0  0  0  0
  7 10  1  0  0  0  0
 10 11  1  0  0  0  0
 10 12  1  0  0  0  0
 10 13  1  0  0  0  0
 13 14  1  0  0  0  0
 13 15  1  0  0  0  0
 13 16  1  0  0  0  0
 16 17  1  0  0  0  0
 16 18  1  0  0  0  0
 16 19  1  0  0  0  0
 19 20  1  0  0  0  0
 19 21  1  0  0  0  0
 19 22  1  0  0  0  0
 22 23  1  0  0  0  0
 22 24  1  0  0  0  0
 22 25  1  0  0  0  0
M  END
> <VConfSearch Rank>
724

> <Conf_Id>
54

> <Delta U+W>
-0.224

> <U+W>
-51.854

> <U>
7.816

> <W>
-59.670

> <W(PB)>
-62.157

> <W(SA)>
2.487

> <Valence>
7.785

> <Coulomb>
-0.713

> <VdW>
0.744

> <VdW6>
-8.515

> <VdW12>
9.259

> <Bond>
0.136

> <Angle>
2.433

> <Pdih>
5.215

> <Idih>
0.000

> <Tether>
0.000

$$$$
VeraChem MOL file


 25 24  0  0  0  0  0  0  0  0999 V2000     
   23.2471   21.1453   21.6793 C   0  0  0  0  0  0  0  0  0  0  0  0
   22.8664   21.4560   20.5677 O   0  5  0  0  0  0  0  0  0  0  0  0
   23.7419   21.9301   22.4645 O   0  0  0  0  0  0  0  0  0  0  0  0
   23.1146   19.6866   22.1079 C   0  0  0  0  0  0  0  0  0  0  0  0
   24.0680   19.3914   22.5615 H   0  0  0  0  0  0  0  0  0  0  0  0
   22.9845   19.0682   21.2115 H   0  0  0  0  0  0  0  0  0  0  0  0
   21.9611   19.4245   23.1112 C   0  0  0  0  0  0  0  0  0  0  0  0
   22.0462   18.3929   23.4751 H   0  0  0  0  0  0  0  0  0  0  0  0
   22.0826   20.0805   23.9843 H   0  0  0  0  0  0  0  0  0  0  0  0
   20.5645   19.6433   22.4806 C   0  0  0  0  0  0  0  0  0  0  0  0
   20.4265   18.9549   21.6357 H   0  0  0  0  0  0  0  0  0  0  0  0
   20.5142   20.6582   22.0629 H   0  0  0  0  0  0  0  0  0  0  0  0
   19.3982   19.4742   23.4835 C   0  0  0  0  0  0  0  0  0  0  0  0
   19.5466   20.1493   24.3373 H   0  0  0  0  0  0  0  0  0  0  0  0
   18.4754   19.7995   22.9867 H   0  0  0  0  0  0  0  0  0  0  0  0
   19.2231   18.0209   23.9896 C   0  0  0  0  0  0  0  0  0  0  0  0
   20.1420   17.6958   24.4933 H   0  0  0  0  0  0  0  0  0  0  0  0
   19.0798   17.3456   23.1351 H   0  0  0  0  0  0  0  0  0  0  0  0
   18.0496   17.8537   24.9832 C   0  0  0  0  0  0  0  0  0  0  0  0
   18.0811   16.8358   25.3957 H   0  0  0  0  0  0  0  0  0  0  0  0
   18.1829   18.5367   25.8335 H   0  0  0  0  0  0  0  0  0  0  0  0
   16.6637   18.0847   24.3421 C   0  0  0  0  0  0  0  0  0  0  0  0
   16.5372   19.1265   24.0228 H   0  0  0  0  0  0  0  0  0  0  0  0
   16.5221   17.4362   23.4678 H   0  0  0  0  0  0  0  0  0  0  0  0
   15.8661   17.8598   25.0620 H   0  0  0  0  0  0  0  0  0  0  0  0
  1  2  1  0  0  0  0
  1  3  2  0  0  0  0
  1  4  1  0  0  0  0
  4  5  1  0  0  0  0
  4  6  1  0  0  0  0
  4  7  1  0  0  0  0
  7  8  1  0  0  0  0
  7  9  1  0  0  0  0
  7 10  1  0  0  0  0
 10 11  1  0  0  0  0
 10 12  1  0  0  0  0
 10 13  1  0  0  0  0
 13 14  1  0  0  0  0
 13 15  1  0  0  0  0
 13 16  1  0  0  0  0
 16 17  1  0  0  0  0
 16 18  1  0  0  0  0
 16 19  1  0  0  0  0
 19 20  1  0  0  0  0
 19 21  1  0  0  0  0
 19 22  1  0  0  0  0
 22 23  1  0  0  0  0
 22 24  1  0  0  0  0
 22 25  1  0  0  0  0
M  END
> <VConfSearch Rank>
725

> <Conf_Id>
101

> <Delta U+W>
1.534

> <U+W>
-50.095

> <U>
9.416

> <W>
-59.512

> <W(PB)>
-61.988

> <W(SA)>
2.476

> <Valence>
8.939

> <Coulomb>
-0.615

> <VdW>
1.092

> <VdW6>
-9.710

> <VdW12>
10.802

> <Bond>
0.216

> <Angle>
2.979

> <Pdih>
5.743

> <Idih>
0.000

> <Tether>
0.000

$$$$
VeraChem MOL file


 25 24  0  0  0  0  0  0  0  0999 V2000     
   23.1813   21.7647   22.0814 C   0  0  0  0  0  0  0  0  0  0  0  0
   23.2420   21.7243   20.8684 O   0  5  0  0  0  0  0  0  0  0  0  0
   23.6347   22.6740   22.7481 O   0  0  0  0  0  0  0  0  0  0  0  0
   22.4776   20.6226   22.8058 C   0  0  0  0  0  0  0  0  0  0  0  0
   22.9579   20.4928   23.7829 H   0  0  0  0  0  0  0  0  0  0  0  0
   22.6541   19.7063   22.2317 H   0  0  0  0  0  0  0  0  0  0  0  0
   20.9577   20.8734   22.9856 C   0  0  0  0  0  0  0  0  0  0  0  0
   20.8183   21.8464   23.4768 H   0  0  0  0  0  0  0  0  0  0  0  0
   20.4788   20.9529   21.9998 H   0  0  0  0  0  0  0  0  0  0  0  0
   20.2443   19.7885   23.8275 C   0  0  0  0  0  0  0  0  0  0  0  0
   19.2175   20.1272   24.0159 H   0  0  0  0  0  0  0  0  0  0  0  0
   20.7307   19.7041   24.8087 H   0  0  0  0  0  0  0  0  0  0  0  0
   20.2076   18.4013   23.1403 C   0  0  0  0  0  0  0  0  0  0  0  0
   19.7208   18.4856   22.1600 H   0  0  0  0  0  0  0  0  0  0  0  0
   21.2328   18.0642   22.9430 H   0  0  0  0  0  0  0  0  0  0  0  0
   19.5058   17.3097   23.9877 C   0  0  0  0  0  0  0  0  0  0  0  0
   20.0589   17.1792   24.9277 H   0  0  0  0  0  0  0  0  0  0  0  0
   19.5820   16.3511   23.4566 H   0  0  0  0  0  0  0  0  0  0  0  0
   18.0164   17.5772   24.3187 C   0  0  0  0  0  0  0  0  0  0  0  0
   17.6373   16.7405   24.9214 H   0  0  0  0  0  0  0  0  0  0  0  0
   17.9219   18.4707   24.9497 H   0  0  0  0  0  0  0  0  0  0  0  0
   17.1276   17.7281   23.0652 C   0  0  0  0  0  0  0  0  0  0  0  0
   17.2251   16.8551   22.4069 H   0  0  0  0  0  0  0  0  0  0  0  0
   16.0720   17.8206   23.3514 H   0  0  0  0  0  0  0  0  0  0  0  0
   17.3963   18.6244   22.4919 H   0  0  0  0  0  0  0  0  0  0  0  0
  1  2  1  0  0  0  0
  1  3  2  0  0  0  0
  1  4  1  0  0  0  0
  4  5  1  0  0  0  0
  4  6  1  0  0  0  0
  4  7  1  0  0  0  0
  7  8  1  0  0  0  0
  7  9  1  0  0  0  0
  7 10  1  0  0  0  0
 10 11  1  0  0  0  0
 10 12  1  0  0  0  0
 10 13  1  0  0  0  0
 13 14  1  0  0  0  0
 13 15  1  0  0  0  0
 13 16  1  0  0  0  0
 16 17  1  0  0  0  0
 16 18  1  0  0  0  0
 16 19  1  0  0  0  0
 19 20  1  0  0  0  0
 19 21  1  0  0  0  0
 19 22  1  0  0  0  0
 22 23  1  0  0  0  0
 22 24  1  0  0  0  0
 22 25  1  0  0  0  0
M  END
> <VConfSearch Rank>
726

> <Conf_Id>
75

> <Delta U+W>
1.014

> <U+W>
-50.615

> <U>
8.474

> <W>
-59.089

> <W(PB)>
-61.530

> <W(SA)>
2.441

> <Valence>
9.080

> <Coulomb>
-1.772

> <VdW>
1.165

> <VdW6>
-9.830

> <VdW12>
10.996

> <Bond>
0.240

> <Angle>
3.225

> <Pdih>
5.615

> <Idih>
0.001

> <Tether>
0.000

$$$$
VeraChem MOL file


 25 24  0  0  0  0  0  0  0  0999 V2000     
   17.4819   21.1470   25.9742 C   0  0  0  0  0  0  0  0  0  0  0  0
   17.7865   22.3229   26.0064 O   0  5  0  0  0  0  0  0  0  0  0  0
   16.3685   20.7326   26.2299 O   0  0  0  0  0  0  0  0  0  0  0  0
   18.5503   20.1375   25.5698 C   0  0  0  0  0  0  0  0  0  0  0  0
   18.3533   19.2004   26.1042 H   0  0  0  0  0  0  0  0  0  0  0  0
   19.5210   20.5112   25.9174 H   0  0  0  0  0  0  0  0  0  0  0  0
   18.5910   19.8838   24.0427 C   0  0  0  0  0  0  0  0  0  0  0  0
   17.6085   19.5226   23.7084 H   0  0  0  0  0  0  0  0  0  0  0  0
   18.7759   20.8337   23.5221 H   0  0  0  0  0  0  0  0  0  0  0  0
   19.6812   18.8600   23.6588 C   0  0  0  0  0  0  0  0  0  0  0  0
   19.4926   17.9126   24.1818 H   0  0  0  0  0  0  0  0  0  0  0  0
   20.6564   19.2218   24.0056 H   0  0  0  0  0  0  0  0  0  0  0  0
   19.7137   18.6056   22.1334 C   0  0  0  0  0  0  0  0  0  0  0  0
   18.7323   18.2154   21.8309 H   0  0  0  0  0  0  0  0  0  0  0  0
   19.8477   19.5512   21.5905 H   0  0  0  0  0  0  0  0  0  0  0  0
   20.8007   17.5877   21.7034 C   0  0  0  0  0  0  0  0  0  0  0  0
   20.4005   16.9923   20.8714 H   0  0  0  0  0  0  0  0  0  0  0  0
   20.9960   16.8731   22.5145 H   0  0  0  0  0  0  0  0  0  0  0  0
   22.1288   18.2239   21.2237 C   0  0  0  0  0  0  0  0  0  0  0  0
   22.7911   17.4222   20.8689 H   0  0  0  0  0  0  0  0  0  0  0  0
   21.9355   18.8691   20.3556 H   0  0  0  0  0  0  0  0  0  0  0  0
   22.8701   19.0335   22.3078 C   0  0  0  0  0  0  0  0  0  0  0  0
   23.0189   18.4337   23.2150 H   0  0  0  0  0  0  0  0  0  0  0  0
   23.8567   19.3486   21.9442 H   0  0  0  0  0  0  0  0  0  0  0  0
   22.3122   19.9395   22.5755 H   0  0  0  0  0  0  0  0  0  0  0  0
  1  2  1  0  0  0  0
  1  3  2  0  0  0  0
  1  4  1  0  0  0  0
  4  5  1  0  0  0  0
  4  6  1  0  0  0  0
  4  7  1  0  0  0  0
  7  8  1  0  0  0  0
  7  9  1  0  0  0  0
  7 10  1  0  0  0  0
 10 11  1  0  0  0  0
 10 12  1  0  0  0  0
 10 13  1  0  0  0  0
 13 14  1  0  0  0  0
 13 15  1  0  0  0  0
 13 16  1  0  0  0  0
 16 17  1  0  0  0  0
 16 18  1  0  0  0  0
 16 19  1  0  0  0  0
 19 20  1  0  0  0  0
 19 21  1  0  0  0  0
 19 22  1  0  0  0  0
 22 23  1  0  0  0  0
 22 24  1  0  0  0  0
 22 25  1  0  0  0  0
M  END
> <VConfSearch Rank>
727

> <Conf_Id>
125

> <Delta U+W>
2.314

> <U+W>
-49.315

> <U>
9.740

> <W>
-59.054

> <W(PB)>
-61.488

> <W(SA)>
2.433

> <Valence>
10.506

> <Coulomb>
-1.761

> <VdW>
0.994

> <VdW6>
-9.209

> <VdW12>
10.203

> <Bond>
0.193

> <Angle>
2.979

> <Pdih>
7.334

> <Idih>
0.001

> <Tether>
0.000

$$$$
VeraChem MOL file


 25 24  0  0  0  0  0  0  0  0999 V2000     
   20.1769   15.6262   21.2121 C   0  0  0  0  0  0  0  0  0  0  0  0
   19.4607   14.8671   21.8347 O   0  5  0  0  0  0  0  0  0  0  0  0
   20.8572   15.2849   20.2648 O   0  0  0  0  0  0  0  0  0  0  0  0
   20.2443   17.0821   21.6592 C   0  0  0  0  0  0  0  0  0  0  0  0
   19.2590   17.3552   22.0532 H   0  0  0  0  0  0  0  0  0  0  0  0
   20.4241   17.7020   20.7727 H   0  0  0  0  0  0  0  0  0  0  0  0
   21.3470   17.3330   22.7205 C   0  0  0  0  0  0  0  0  0  0  0  0
   21.1303   16.7422   23.6213 H   0  0  0  0  0  0  0  0  0  0  0  0
   22.3041   16.9614   22.3289 H   0  0  0  0  0  0  0  0  0  0  0  0
   21.5123   18.8238   23.1001 C   0  0  0  0  0  0  0  0  0  0  0  0
   21.7383   19.4102   22.1989 H   0  0  0  0  0  0  0  0  0  0  0  0
   22.3849   18.9200   23.7605 H   0  0  0  0  0  0  0  0  0  0  0  0
   20.2745   19.4184   23.8112 C   0  0  0  0  0  0  0  0  0  0  0  0
   19.4124   19.3891   23.1340 H   0  0  0  0  0  0  0  0  0  0  0  0
   20.0209   18.8013   24.6838 H   0  0  0  0  0  0  0  0  0  0  0  0
   20.5237   20.8757   24.2646 C   0  0  0  0  0  0  0  0  0  0  0  0
   20.7315   21.5052   23.3886 H   0  0  0  0  0  0  0  0  0  0  0  0
   21.4258   20.9064   24.8908 H   0  0  0  0  0  0  0  0  0  0  0  0
   19.3484   21.4794   25.0684 C   0  0  0  0  0  0  0  0  0  0  0  0
   19.1414   20.8550   25.9485 H   0  0  0  0  0  0  0  0  0  0  0  0
   19.6521   22.4636   25.4509 H   0  0  0  0  0  0  0  0  0  0  0  0
   18.0591   21.6466   24.2352 C   0  0  0  0  0  0  0  0  0  0  0  0
   17.6512   20.6754   23.9285 H   0  0  0  0  0  0  0  0  0  0  0  0
   17.2868   22.1604   24.8221 H   0  0  0  0  0  0  0  0  0  0  0  0
   18.2490   22.2416   23.3324 H   0  0  0  0  0  0  0  0  0  0  0  0
  1  2  1  0  0  0  0
  1  3  2  0  0  0  0
  1  4  1  0  0  0  0
  4  5  1  0  0  0  0
  4  6  1  0  0  0  0
  4  7  1  0  0  0  0
  7  8  1  0  0  0  0
  7  9  1  0  0  0  0
  7 10  1  0  0  0  0
 10 11  1  0  0  0  0
 10 12  1  0  0  0  0
 10 13  1  0  0  0  0
 13 14  1  0  0  0  0
 13 15  1  0  0  0  0
 13 16  1  0  0  0  0
 16 17  1  0  0  0  0
 16 18  1  0  0  0  0
 16 19  1  0  0  0  0
 19 20  1  0  0  0  0
 19 21  1  0  0  0  0
 19 22  1  0  0  0  0
 22 23  1  0  0  0  0
 22 24  1  0  0  0  0
 22 25  1  0  0  0  0
M  END
> <VConfSearch Rank>
728

> <Conf_Id>
4

> <Delta U+W>
0.189

> <U+W>
-51.441

> <U>
7.701

> <W>
-59.141

> <W(PB)>
-61.609

> <W(SA)>
2.467

> <Valence>
8.550

> <Coulomb>
-1.988

> <VdW>
1.139

> <VdW6>
-8.988

> <VdW12>
10.127

> <Bond>
0.191

> <Angle>
2.738

> <Pdih>
5.621

> <Idih>
0.001

> <Tether>
0.000

$$$$
VeraChem MOL file


 25 24  0  0  0  0  0  0  0  0999 V2000     
   20.1513   22.0671   20.3731 C   0  0  0  0  0  0  0  0  0  0  0  0
   19.3363   22.9041   20.7075 O   0  5  0  0  0  0  0  0  0  0  0  0
   20.9094   22.2035   19.4332 O   0  0  0  0  0  0  0  0  0  0  0  0
   20.2442   20.7847   21.1923 C   0  0  0  0  0  0  0  0  0  0  0  0
   20.5475   19.9731   20.5202 H   0  0  0  0  0  0  0  0  0  0  0  0
   19.2377   20.5481   21.5553 H   0  0  0  0  0  0  0  0  0  0  0  0
   21.2398   20.9001   22.3757 C   0  0  0  0  0  0  0  0  0  0  0  0
   22.2130   21.2302   21.9867 H   0  0  0  0  0  0  0  0  0  0  0  0
   20.8998   21.6844   23.0661 H   0  0  0  0  0  0  0  0  0  0  0  0
   21.4388   19.5741   23.1480 C   0  0  0  0  0  0  0  0  0  0  0  0
   22.2404   19.7179   23.8853 H   0  0  0  0  0  0  0  0  0  0  0  0
   21.7882   18.7947   22.4570 H   0  0  0  0  0  0  0  0  0  0  0  0
   20.1643   19.0899   23.8775 C   0  0  0  0  0  0  0  0  0  0  0  0
   19.7889   19.8896   24.5304 H   0  0  0  0  0  0  0  0  0  0  0  0
   19.3784   18.8780   23.1426 H   0  0  0  0  0  0  0  0  0  0  0  0
   20.4372   17.8219   24.7195 C   0  0  0  0  0  0  0  0  0  0  0  0
   21.2682   18.0224   25.4095 H   0  0  0  0  0  0  0  0  0  0  0  0
   20.7683   17.0059   24.0626 H   0  0  0  0  0  0  0  0  0  0  0  0
   19.2153   17.3572   25.5458 C   0  0  0  0  0  0  0  0  0  0  0  0
   19.5261   16.5309   26.1999 H   0  0  0  0  0  0  0  0  0  0  0  0
   18.8847   18.1693   26.2080 H   0  0  0  0  0  0  0  0  0  0  0  0
   18.0319   16.8829   24.6746 C   0  0  0  0  0  0  0  0  0  0  0  0
   18.3464   16.0919   23.9814 H   0  0  0  0  0  0  0  0  0  0  0  0
   17.2286   16.4800   25.3049 H   0  0  0  0  0  0  0  0  0  0  0  0
   17.6103   17.7082   24.0874 H   0  0  0  0  0  0  0  0  0  0  0  0
  1  2  1  0  0  0  0
  1  3  2  0  0  0  0
  1  4  1  0  0  0  0
  4  5  1  0  0  0  0
  4  6  1  0  0  0  0
  4  7  1  0  0  0  0
  7  8  1  0  0  0  0
  7  9  1  0  0  0  0
  7 10  1  0  0  0  0
 10 11  1  0  0  0  0
 10 12  1  0  0  0  0
 10 13  1  0  0  0  0
 13 14  1  0  0  0  0
 13 15  1  0  0  0  0
 13 16  1  0  0  0  0
 16 17  1  0  0  0  0
 16 18  1  0  0  0  0
 16 19  1  0  0  0  0
 19 20  1  0  0  0  0
 19 21  1  0  0  0  0
 19 22  1  0  0  0  0
 22 23  1  0  0  0  0
 22 24  1  0  0  0  0
 22 25  1  0  0  0  0
M  END
> <VConfSearch Rank>
729

> <Conf_Id>
17

> <Delta U+W>
0.219

> <U+W>
-51.411

> <U>
7.701

> <W>
-59.111

> <W(PB)>
-61.599

> <W(SA)>
2.488

> <Valence>
8.550

> <Coulomb>
-1.988

> <VdW>
1.139

> <VdW6>
-8.988

> <VdW12>
10.127

> <Bond>
0.191

> <Angle>
2.738

> <Pdih>
5.621

> <Idih>
0.001

> <Tether>
0.000

$$$$
VeraChem MOL file


 25 24  0  0  0  0  0  0  0  0999 V2000     
   17.1155   16.8946   23.8312 C   0  0  0  0  0  0  0  0  0  0  0  0
   16.9102   16.2950   22.7942 O   0  5  0  0  0  0  0  0  0  0  0  0
   16.3137   17.6532   24.3398 O   0  0  0  0  0  0  0  0  0  0  0  0
   18.4449   16.6692   24.5458 C   0  0  0  0  0  0  0  0  0  0  0  0
   18.8823   15.7309   24.1836 H   0  0  0  0  0  0  0  0  0  0  0  0
   18.2254   16.5266   25.6105 H   0  0  0  0  0  0  0  0  0  0  0  0
   19.4555   17.8332   24.3764 C   0  0  0  0  0  0  0  0  0  0  0  0
   18.9886   18.7630   24.7273 H   0  0  0  0  0  0  0  0  0  0  0  0
   20.3235   17.6492   25.0236 H   0  0  0  0  0  0  0  0  0  0  0  0
   19.9337   17.9935   22.9134 C   0  0  0  0  0  0  0  0  0  0  0  0
   19.0816   18.2481   22.2680 H   0  0  0  0  0  0  0  0  0  0  0  0
   20.3153   17.0278   22.5547 H   0  0  0  0  0  0  0  0  0  0  0  0
   21.0455   19.0556   22.7415 C   0  0  0  0  0  0  0  0  0  0  0  0
   21.9022   18.7984   23.3793 H   0  0  0  0  0  0  0  0  0  0  0  0
   21.4070   19.0158   21.7049 H   0  0  0  0  0  0  0  0  0  0  0  0
   20.5758   20.4952   23.0546 C   0  0  0  0  0  0  0  0  0  0  0  0
   20.2814   20.5724   24.1093 H   0  0  0  0  0  0  0  0  0  0  0  0
   19.6856   20.7293   22.4549 H   0  0  0  0  0  0  0  0  0  0  0  0
   21.6810   21.5320   22.7625 C   0  0  0  0  0  0  0  0  0  0  0  0
   22.5736   21.2995   23.3596 H   0  0  0  0  0  0  0  0  0  0  0  0
   21.9781   21.4699   21.7064 H   0  0  0  0  0  0  0  0  0  0  0  0
   21.2123   22.9666   23.0787 C   0  0  0  0  0  0  0  0  0  0  0  0
   20.9391   23.0662   24.1374 H   0  0  0  0  0  0  0  0  0  0  0  0
   22.0097   23.6901   22.8649 H   0  0  0  0  0  0  0  0  0  0  0  0
   20.3379   23.2367   22.4721 H   0  0  0  0  0  0  0  0  0  0  0  0
  1  2  1  0  0  0  0
  1  3  2  0  0  0  0
  1  4  1  0  0  0  0
  4  5  1  0  0  0  0
  4  6  1  0  0  0  0
  4  7  1  0  0  0  0
  7  8  1  0  0  0  0
  7  9  1  0  0  0  0
  7 10  1  0  0  0  0
 10 11  1  0  0  0  0
 10 12  1  0  0  0  0
 10 13  1  0  0  0  0
 13 14  1  0  0  0  0
 13 15  1  0  0  0  0
 13 16  1  0  0  0  0
 16 17  1  0  0  0  0
 16 18  1  0  0  0  0
 16 19  1  0  0  0  0
 19 20  1  0  0  0  0
 19 21  1  0  0  0  0
 19 22  1  0  0  0  0
 22 23  1  0  0  0  0
 22 24  1  0  0  0  0
 22 25  1  0  0  0  0
M  END
> <VConfSearch Rank>
730

> <Conf_Id>
142

> <Delta U+W>
0.593

> <U+W>
-51.037

> <U>
8.903

> <W>
-59.940

> <W(PB)>
-62.418

> <W(SA)>
2.478

> <Valence>
8.305

> <Coulomb>
-0.223

> <VdW>
0.821

> <VdW6>
-9.236

> <VdW12>
10.057

> <Bond>
0.173

> <Angle>
2.663

> <Pdih>
5.469

> <Idih>
0.001

> <Tether>
0.000

$$$$
VeraChem MOL file


 25 24  0  0  0  0  0  0  0  0999 V2000     
   23.3461   20.6276   24.2429 C   0  0  0  0  0  0  0  0  0  0  0  0
   23.8034   21.7150   24.5362 O   0  5  0  0  0  0  0  0  0  0  0  0
   23.6561   19.5948   24.8036 O   0  0  0  0  0  0  0  0  0  0  0  0
   22.3497   20.5546   23.0893 C   0  0  0  0  0  0  0  0  0  0  0  0
   22.2522   19.5092   22.7747 H   0  0  0  0  0  0  0  0  0  0  0  0
   22.7905   21.0938   22.2428 H   0  0  0  0  0  0  0  0  0  0  0  0
   20.9569   21.1594   23.4154 C   0  0  0  0  0  0  0  0  0  0  0  0
   21.0836   22.2232   23.6594 H   0  0  0  0  0  0  0  0  0  0  0  0
   20.3302   21.1305   22.5148 H   0  0  0  0  0  0  0  0  0  0  0  0
   20.2166   20.4670   24.5889 C   0  0  0  0  0  0  0  0  0  0  0  0
   19.2519   20.9693   24.7426 H   0  0  0  0  0  0  0  0  0  0  0  0
   20.7883   20.6230   25.5141 H   0  0  0  0  0  0  0  0  0  0  0  0
   19.9685   18.9481   24.4109 C   0  0  0  0  0  0  0  0  0  0  0  0
   20.9280   18.4155   24.3680 H   0  0  0  0  0  0  0  0  0  0  0  0
   19.4552   18.5750   25.3075 H   0  0  0  0  0  0  0  0  0  0  0  0
   19.1201   18.6020   23.1655 C   0  0  0  0  0  0  0  0  0  0  0  0
   19.6538   18.9037   22.2548 H   0  0  0  0  0  0  0  0  0  0  0  0
   18.1808   19.1709   23.1914 H   0  0  0  0  0  0  0  0  0  0  0  0
   18.8075   17.0927   23.0898 C   0  0  0  0  0  0  0  0  0  0  0  0
   19.7460   16.5215   23.0664 H   0  0  0  0  0  0  0  0  0  0  0  0
   18.2660   16.7803   23.9934 H   0  0  0  0  0  0  0  0  0  0  0  0
   17.9666   16.7483   21.8440 C   0  0  0  0  0  0  0  0  0  0  0  0
   18.4988   17.0210   20.9233 H   0  0  0  0  0  0  0  0  0  0  0  0
   17.7537   15.6720   21.8064 H   0  0  0  0  0  0  0  0  0  0  0  0
   17.0080   17.2833   21.8572 H   0  0  0  0  0  0  0  0  0  0  0  0
  1  2  1  0  0  0  0
  1  3  2  0  0  0  0
  1  4  1  0  0  0  0
  4  5  1  0  0  0  0
  4  6  1  0  0  0  0
  4  7  1  0  0  0  0
  7  8  1  0  0  0  0
  7  9  1  0  0  0  0
  7 10  1  0  0  0  0
 10 11  1  0  0  0  0
 10 12  1  0  0  0  0
 10 13  1  0  0  0  0
 13 14  1  0  0  0  0
 13 15  1  0  0  0  0
 13 16  1  0  0  0  0
 16 17  1  0  0  0  0
 16 18  1  0  0  0  0
 16 19  1  0  0  0  0
 19 20  1  0  0  0  0
 19 21  1  0  0  0  0
 19 22  1  0  0  0  0
 22 23  1  0  0  0  0
 22 24  1  0  0  0  0
 22 25  1  0  0  0  0
M  END
> <VConfSearch Rank>
731

> <Conf_Id>
135

> <Delta U+W>
1.314

> <U+W>
-50.316

> <U>
9.773

> <W>
-60.088

> <W(PB)>
-62.535

> <W(SA)>
2.447

> <Valence>
8.741

> <Coulomb>
0.479

> <VdW>
0.552

> <VdW6>
-10.627

> <VdW12>
11.179

> <Bond>
0.227

> <Angle>
3.155

> <Pdih>
5.358

> <Idih>
0.001

> <Tether>
0.000

$$$$
VeraChem MOL file


 25 24  0  0  0  0  0  0  0  0999 V2000     
   20.1138   23.3176   24.1479 C   0  0  0  0  0  0  0  0  0  0  0  0
   21.0306   23.9223   23.6278 O   0  5  0  0  0  0  0  0  0  0  0  0
   19.1040   23.8522   24.5619 O   0  0  0  0  0  0  0  0  0  0  0  0
   20.2266   21.8020   24.2673 C   0  0  0  0  0  0  0  0  0  0  0  0
   19.6880   21.4914   25.1705 H   0  0  0  0  0  0  0  0  0  0  0  0
   21.2839   21.5586   24.4190 H   0  0  0  0  0  0  0  0  0  0  0  0
   19.6638   21.0599   23.0270 C   0  0  0  0  0  0  0  0  0  0  0  0
   18.6351   21.4034   22.8507 H   0  0  0  0  0  0  0  0  0  0  0  0
   20.2413   21.3416   22.1356 H   0  0  0  0  0  0  0  0  0  0  0  0
   19.6503   19.5197   23.1775 C   0  0  0  0  0  0  0  0  0  0  0  0
   19.0975   19.1034   22.3260 H   0  0  0  0  0  0  0  0  0  0  0  0
   19.0940   19.2416   24.0828 H   0  0  0  0  0  0  0  0  0  0  0  0
   21.0639   18.8914   23.2154 C   0  0  0  0  0  0  0  0  0  0  0  0
   21.5916   19.1250   22.2808 H   0  0  0  0  0  0  0  0  0  0  0  0
   21.6483   19.3504   24.0224 H   0  0  0  0  0  0  0  0  0  0  0  0
   21.0714   17.3582   23.4407 C   0  0  0  0  0  0  0  0  0  0  0  0
   20.6293   17.1196   24.4176 H   0  0  0  0  0  0  0  0  0  0  0  0
   22.1208   17.0391   23.5030 H   0  0  0  0  0  0  0  0  0  0  0  0
   20.3830   16.5338   22.3242 C   0  0  0  0  0  0  0  0  0  0  0  0
   20.4173   17.0792   21.3709 H   0  0  0  0  0  0  0  0  0  0  0  0
   20.9545   15.6086   22.1669 H   0  0  0  0  0  0  0  0  0  0  0  0
   18.9277   16.1437   22.6666 C   0  0  0  0  0  0  0  0  0  0  0  0
   18.2962   17.0246   22.8284 H   0  0  0  0  0  0  0  0  0  0  0  0
   18.4847   15.5585   21.8504 H   0  0  0  0  0  0  0  0  0  0  0  0
   18.8922   15.5306   23.5766 H   0  0  0  0  0  0  0  0  0  0  0  0
  1  2  1  0  0  0  0
  1  3  2  0  0  0  0
  1  4  1  0  0  0  0
  4  5  1  0  0  0  0
  4  6  1  0  0  0  0
  4  7  1  0  0  0  0
  7  8  1  0  0  0  0
  7  9  1  0  0  0  0
  7 10  1  0  0  0  0
 10 11  1  0  0  0  0
 10 12  1  0  0  0  0
 10 13  1  0  0  0  0
 13 14  1  0  0  0  0
 13 15  1  0  0  0  0
 13 16  1  0  0  0  0
 16 17  1  0  0  0  0
 16 18  1  0  0  0  0
 16 19  1  0  0  0  0
 19 20  1  0  0  0  0
 19 21  1  0  0  0  0
 19 22  1  0  0  0  0
 22 23  1  0  0  0  0
 22 24  1  0  0  0  0
 22 25  1  0  0  0  0
M  END
> <VConfSearch Rank>
732

> <Conf_Id>
19

> <Delta U+W>
3.222

> <U+W>
-48.407

> <U>
10.617

> <W>
-59.025

> <W(PB)>
-61.462

> <W(SA)>
2.437

> <Valence>
11.188

> <Coulomb>
-1.778

> <VdW>
1.208

> <VdW6>
-9.786

> <VdW12>
10.993

> <Bond>
0.241

> <Angle>
3.294

> <Pdih>
7.653

> <Idih>
0.001

> <Tether>
0.000

$$$$
VeraChem MOL file


 25 24  0  0  0  0  0  0  0  0999 V2000     
   17.6214   21.8044   21.0580 C   0  0  0  0  0  0  0  0  0  0  0  0
   16.7754   21.2317   20.3998 O   0  5  0  0  0  0  0  0  0  0  0  0
   17.9842   22.9440   20.8427 O   0  0  0  0  0  0  0  0  0  0  0  0
   18.2808   21.0431   22.2024 C   0  0  0  0  0  0  0  0  0  0  0  0
   17.5312   20.3656   22.6260 H   0  0  0  0  0  0  0  0  0  0  0  0
   18.5450   21.7659   22.9835 H   0  0  0  0  0  0  0  0  0  0  0  0
   19.5401   20.2575   21.7522 C   0  0  0  0  0  0  0  0  0  0  0  0
   19.2566   19.5035   21.0050 H   0  0  0  0  0  0  0  0  0  0  0  0
   20.2240   20.9529   21.2461 H   0  0  0  0  0  0  0  0  0  0  0  0
   20.2997   19.5801   22.9181 C   0  0  0  0  0  0  0  0  0  0  0  0
   20.5601   20.3316   23.6758 H   0  0  0  0  0  0  0  0  0  0  0  0
   21.2455   19.1898   22.5216 H   0  0  0  0  0  0  0  0  0  0  0  0
   19.5132   18.4212   23.5758 C   0  0  0  0  0  0  0  0  0  0  0  0
   18.5363   18.7868   23.9157 H   0  0  0  0  0  0  0  0  0  0  0  0
   19.3085   17.6470   22.8239 H   0  0  0  0  0  0  0  0  0  0  0  0
   20.2266   17.7801   24.7930 C   0  0  0  0  0  0  0  0  0  0  0  0
   19.5542   17.0148   25.2041 H   0  0  0  0  0  0  0  0  0  0  0  0
   20.3524   18.5252   25.5904 H   0  0  0  0  0  0  0  0  0  0  0  0
   21.5834   17.1054   24.4699 C   0  0  0  0  0  0  0  0  0  0  0  0
   21.6753   16.1930   25.0751 H   0  0  0  0  0  0  0  0  0  0  0  0
   21.6070   16.7792   23.4210 H   0  0  0  0  0  0  0  0  0  0  0  0
   22.7991   18.0076   24.7785 C   0  0  0  0  0  0  0  0  0  0  0  0
   22.8267   18.2740   25.8431 H   0  0  0  0  0  0  0  0  0  0  0  0
   23.7349   17.4864   24.5386 H   0  0  0  0  0  0  0  0  0  0  0  0
   22.7752   18.9373   24.1986 H   0  0  0  0  0  0  0  0  0  0  0  0
  1  2  1  0  0  0  0
  1  3  2  0  0  0  0
  1  4  1  0  0  0  0
  4  5  1  0  0  0  0
  4  6  1  0  0  0  0
  4  7  1  0  0  0  0
  7  8  1  0  0  0  0
  7  9  1  0  0  0  0
  7 10  1  0  0  0  0
 10 11  1  0  0  0  0
 10 12  1  0  0  0  0
 10 13  1  0  0  0  0
 13 14  1  0  0  0  0
 13 15  1  0  0  0  0
 13 16  1  0  0  0  0
 16 17  1  0  0  0  0
 16 18  1  0  0  0  0
 16 19  1  0  0  0  0
 19 20  1  0  0  0  0
 19 21  1  0  0  0  0
 19 22  1  0  0  0  0
 22 23  1  0  0  0  0
 22 24  1  0  0  0  0
 22 25  1  0  0  0  0
M  END
> <VConfSearch Rank>
733

> <Conf_Id>
20

> <Delta U+W>
3.224

> <U+W>
-48.406

> <U>
10.617

> <W>
-59.023

> <W(PB)>
-61.467

> <W(SA)>
2.444

> <Valence>
11.188

> <Coulomb>
-1.778

> <VdW>
1.208

> <VdW6>
-9.786

> <VdW12>
10.993

> <Bond>
0.241

> <Angle>
3.294

> <Pdih>
7.653

> <Idih>
0.001

> <Tether>
0.000

$$$$
VeraChem MOL file


 25 24  0  0  0  0  0  0  0  0999 V2000     
   18.8537   22.0872   24.6858 C   0  0  0  0  0  0  0  0  0  0  0  0
   19.1426   22.9127   23.8415 O   0  5  0  0  0  0  0  0  0  0  0  0
   19.4808   21.9334   25.7155 O   0  0  0  0  0  0  0  0  0  0  0  0
   17.5985   21.2428   24.4745 C   0  0  0  0  0  0  0  0  0  0  0  0
   16.7546   21.9422   24.4655 H   0  0  0  0  0  0  0  0  0  0  0  0
   17.4566   20.5911   25.3452 H   0  0  0  0  0  0  0  0  0  0  0  0
   17.5752   20.4050   23.1651 C   0  0  0  0  0  0  0  0  0  0  0  0
   16.5298   20.1508   22.9438 H   0  0  0  0  0  0  0  0  0  0  0  0
   17.9218   21.0184   22.3218 H   0  0  0  0  0  0  0  0  0  0  0  0
   18.3793   19.0825   23.2255 C   0  0  0  0  0  0  0  0  0  0  0  0
   18.1669   18.5112   22.3115 H   0  0  0  0  0  0  0  0  0  0  0  0
   18.0200   18.4693   24.0632 H   0  0  0  0  0  0  0  0  0  0  0  0
   19.9077   19.2792   23.3441 C   0  0  0  0  0  0  0  0  0  0  0  0
   20.2512   19.9767   22.5679 H   0  0  0  0  0  0  0  0  0  0  0  0
   20.1512   19.7315   24.3136 H   0  0  0  0  0  0  0  0  0  0  0  0
   20.6677   17.9415   23.2109 C   0  0  0  0  0  0  0  0  0  0  0  0
   20.4381   17.4829   22.2394 H   0  0  0  0  0  0  0  0  0  0  0  0
   20.3195   17.2437   23.9847 H   0  0  0  0  0  0  0  0  0  0  0  0
   22.1932   18.1352   23.3405 C   0  0  0  0  0  0  0  0  0  0  0  0
   22.5449   18.8323   22.5673 H   0  0  0  0  0  0  0  0  0  0  0  0
   22.4270   18.5924   24.3121 H   0  0  0  0  0  0  0  0  0  0  0  0
   22.9494   16.7980   23.2078 C   0  0  0  0  0  0  0  0  0  0  0  0
   22.7581   16.3339   22.2313 H   0  0  0  0  0  0  0  0  0  0  0  0
   24.0318   16.9546   23.3024 H   0  0  0  0  0  0  0  0  0  0  0  0
   22.6393   16.0922   23.9895 H   0  0  0  0  0  0  0  0  0  0  0  0
  1  2  1  0  0  0  0
  1  3  2  0  0  0  0
  1  4  1  0  0  0  0
  4  5  1  0  0  0  0
  4  6  1  0  0  0  0
  4  7  1  0  0  0  0
  7  8  1  0  0  0  0
  7  9  1  0  0  0  0
  7 10  1  0  0  0  0
 10 11  1  0  0  0  0
 10 12  1  0  0  0  0
 10 13  1  0  0  0  0
 13 14  1  0  0  0  0
 13 15  1  0  0  0  0
 13 16  1  0  0  0  0
 16 17  1  0  0  0  0
 16 18  1  0  0  0  0
 16 19  1  0  0  0  0
 19 20  1  0  0  0  0
 19 21  1  0  0  0  0
 19 22  1  0  0  0  0
 22 23  1  0  0  0  0
 22 24  1  0  0  0  0
 22 25  1  0  0  0  0
M  END
> <VConfSearch Rank>
734

> <Conf_Id>
24

> <Delta U+W>
1.784

> <U+W>
-49.846

> <U>
10.904

> <W>
-60.749

> <W(PB)>
-63.220

> <W(SA)>
2.471

> <Valence>
9.445

> <Coulomb>
0.780

> <VdW>
0.679

> <VdW6>
-10.008

> <VdW12>
10.687

> <Bond>
0.201

> <Angle>
3.198

> <Pdih>
6.039

> <Idih>
0.006

> <Tether>
0.000

$$$$
VeraChem MOL file


 25 24  0  0  0  0  0  0  0  0999 V2000     
   22.1351   19.6735   25.9937 C   0  0  0  0  0  0  0  0  0  0  0  0
   22.8309   18.6886   26.1467 O   0  5  0  0  0  0  0  0  0  0  0  0
   22.5142   20.6815   25.4302 O   0  0  0  0  0  0  0  0  0  0  0  0
   20.7325   19.6715   26.5989 C   0  0  0  0  0  0  0  0  0  0  0  0
   20.2635   20.6456   26.4151 H   0  0  0  0  0  0  0  0  0  0  0  0
   20.8654   19.5871   27.6837 H   0  0  0  0  0  0  0  0  0  0  0  0
   19.8018   18.5251   26.1125 C   0  0  0  0  0  0  0  0  0  0  0  0
   20.3522   17.5740   26.1039 H   0  0  0  0  0  0  0  0  0  0  0  0
   18.9994   18.4027   26.8525 H   0  0  0  0  0  0  0  0  0  0  0  0
   19.1388   18.7673   24.7338 C   0  0  0  0  0  0  0  0  0  0  0  0
   18.5806   19.7133   24.7531 H   0  0  0  0  0  0  0  0  0  0  0  0
   18.3966   17.9746   24.5674 H   0  0  0  0  0  0  0  0  0  0  0  0
   20.1317   18.7744   23.5495 C   0  0  0  0  0  0  0  0  0  0  0  0
   20.8007   19.6405   23.6292 H   0  0  0  0  0  0  0  0  0  0  0  0
   20.7621   17.8756   23.5912 H   0  0  0  0  0  0  0  0  0  0  0  0
   19.3999   18.8308   22.1909 C   0  0  0  0  0  0  0  0  0  0  0  0
   18.7663   19.7275   22.1529 H   0  0  0  0  0  0  0  0  0  0  0  0
   18.7327   17.9631   22.0960 H   0  0  0  0  0  0  0  0  0  0  0  0
   20.3907   18.8495   21.0080 C   0  0  0  0  0  0  0  0  0  0  0  0
   21.0588   19.7173   21.0985 H   0  0  0  0  0  0  0  0  0  0  0  0
   21.0256   17.9533   21.0427 H   0  0  0  0  0  0  0  0  0  0  0  0
   19.6573   18.9062   19.6528 C   0  0  0  0  0  0  0  0  0  0  0  0
   19.0386   19.8101   19.5786 H   0  0  0  0  0  0  0  0  0  0  0  0
   20.3767   18.9189   18.8237 H   0  0  0  0  0  0  0  0  0  0  0  0
   19.0051   18.0326   19.5223 H   0  0  0  0  0  0  0  0  0  0  0  0
  1  2  1  0  0  0  0
  1  3  2  0  0  0  0
  1  4  1  0  0  0  0
  4  5  1  0  0  0  0
  4  6  1  0  0  0  0
  4  7  1  0  0  0  0
  7  8  1  0  0  0  0
  7  9  1  0  0  0  0
  7 10  1  0  0  0  0
 10 11  1  0  0  0  0
 10 12  1  0  0  0  0
 10 13  1  0  0  0  0
 13 14  1  0  0  0  0
 13 15  1  0  0  0  0
 13 16  1  0  0  0  0
 16 17  1  0  0  0  0
 16 18  1  0  0  0  0
 16 19  1  0  0  0  0
 19 20  1  0  0  0  0
 19 21  1  0  0  0  0
 19 22  1  0  0  0  0
 22 23  1  0  0  0  0
 22 24  1  0  0  0  0
 22 25  1  0  0  0  0
M  END
> <VConfSearch Rank>
735

> <Conf_Id>
9

> <Delta U+W>
1.764

> <U+W>
-49.865

> <U>
10.902

> <W>
-60.768

> <W(PB)>
-63.223

> <W(SA)>
2.456

> <Valence>
9.445

> <Coulomb>
0.778

> <VdW>
0.679

> <VdW6>
-10.007

> <VdW12>
10.687

> <Bond>
0.201

> <Angle>
3.198

> <Pdih>
6.040

> <Idih>
0.006

> <Tether>
0.000

$$$$
VeraChem MOL file


 25 24  0  0  0  0  0  0  0  0999 V2000     
   23.5827   18.4339   22.9115 C   0  0  0  0  0  0  0  0  0  0  0  0
   23.5779   18.9685   21.8202 O   0  5  0  0  0  0  0  0  0  0  0  0
   24.5965   18.1684   23.5267 O   0  0  0  0  0  0  0  0  0  0  0  0
   22.2422   18.0959   23.5537 C   0  0  0  0  0  0  0  0  0  0  0  0
   22.3732   17.1850   24.1498 H   0  0  0  0  0  0  0  0  0  0  0  0
   21.5385   17.8535   22.7515 H   0  0  0  0  0  0  0  0  0  0  0  0
   21.6994   19.2425   24.4472 C   0  0  0  0  0  0  0  0  0  0  0  0
   22.4406   19.4364   25.2348 H   0  0  0  0  0  0  0  0  0  0  0  0
   21.6222   20.1715   23.8653 H   0  0  0  0  0  0  0  0  0  0  0  0
   20.3404   18.9142   25.1163 C   0  0  0  0  0  0  0  0  0  0  0  0
   20.3307   19.3757   26.1132 H   0  0  0  0  0  0  0  0  0  0  0  0
   20.2509   17.8328   25.2875 H   0  0  0  0  0  0  0  0  0  0  0  0
   19.0994   19.4373   24.3500 C   0  0  0  0  0  0  0  0  0  0  0  0
   18.2065   19.2237   24.9531 H   0  0  0  0  0  0  0  0  0  0  0  0
   19.1634   20.5303   24.2687 H   0  0  0  0  0  0  0  0  0  0  0  0
   18.9144   18.8199   22.9437 C   0  0  0  0  0  0  0  0  0  0  0  0
   19.0061   17.7277   23.0156 H   0  0  0  0  0  0  0  0  0  0  0  0
   19.7172   19.1642   22.2787 H   0  0  0  0  0  0  0  0  0  0  0  0
   17.5490   19.1589   22.3016 C   0  0  0  0  0  0  0  0  0  0  0  0
   17.4567   18.6067   21.3563 H   0  0  0  0  0  0  0  0  0  0  0  0
   16.7357   18.8034   22.9492 H   0  0  0  0  0  0  0  0  0  0  0  0
   17.3662   20.6658   22.0184 C   0  0  0  0  0  0  0  0  0  0  0  0
   18.1825   21.0495   21.3927 H   0  0  0  0  0  0  0  0  0  0  0  0
   16.4214   20.8455   21.4894 H   0  0  0  0  0  0  0  0  0  0  0  0
   17.3425   21.2475   22.9484 H   0  0  0  0  0  0  0  0  0  0  0  0
  1  2  1  0  0  0  0
  1  3  2  0  0  0  0
  1  4  1  0  0  0  0
  4  5  1  0  0  0  0
  4  6  1  0  0  0  0
  4  7  1  0  0  0  0
  7  8  1  0  0  0  0
  7  9  1  0  0  0  0
  7 10  1  0  0  0  0
 10 11  1  0  0  0  0
 10 12  1  0  0  0  0
 10 13  1  0  0  0  0
 13 14  1  0  0  0  0
 13 15  1  0  0  0  0
 13 16  1  0  0  0  0
 16 17  1  0  0  0  0
 16 18  1  0  0  0  0
 16 19  1  0  0  0  0
 19 20  1  0  0  0  0
 19 21  1  0  0  0  0
 19 22  1  0  0  0  0
 22 23  1  0  0  0  0
 22 24  1  0  0  0  0
 22 25  1  0  0  0  0
M  END
> <VConfSearch Rank>
736

> <Conf_Id>
89

> <Delta U+W>
2.903

> <U+W>
-48.726

> <U>
10.996

> <W>
-59.723

> <W(PB)>
-62.151

> <W(SA)>
2.428

> <Valence>
10.985

> <Coulomb>
-0.995

> <VdW>
1.006

> <VdW6>
-10.062

> <VdW12>
11.069

> <Bond>
0.238

> <Angle>
3.202

> <Pdih>
7.544

> <Idih>
0.001

> <Tether>
0.000

$$$$
VeraChem MOL file


 25 24  0  0  0  0  0  0  0  0999 V2000     
   18.7585   19.0922   20.2756 C   0  0  0  0  0  0  0  0  0  0  0  0
   19.7764   19.3280   19.6546 O   0  5  0  0  0  0  0  0  0  0  0  0
   18.1293   18.0582   20.1639 O   0  0  0  0  0  0  0  0  0  0  0  0
   18.2083   20.1803   21.1957 C   0  0  0  0  0  0  0  0  0  0  0  0
   17.2432   20.4815   20.7723 H   0  0  0  0  0  0  0  0  0  0  0  0
   18.8626   21.0587   21.1409 H   0  0  0  0  0  0  0  0  0  0  0  0
   17.9997   19.7548   22.6766 C   0  0  0  0  0  0  0  0  0  0  0  0
   17.2725   20.4441   23.1266 H   0  0  0  0  0  0  0  0  0  0  0  0
   17.5374   18.7588   22.7195 H   0  0  0  0  0  0  0  0  0  0  0  0
   19.2785   19.7849   23.5505 C   0  0  0  0  0  0  0  0  0  0  0  0
   18.9718   19.6349   24.5931 H   0  0  0  0  0  0  0  0  0  0  0  0
   19.7348   20.7829   23.5032 H   0  0  0  0  0  0  0  0  0  0  0  0
   20.3288   18.7142   23.1672 C   0  0  0  0  0  0  0  0  0  0  0  0
   19.8615   17.7202   23.1538 H   0  0  0  0  0  0  0  0  0  0  0  0
   20.6841   18.9056   22.1474 H   0  0  0  0  0  0  0  0  0  0  0  0
   21.5631   18.6970   24.1009 C   0  0  0  0  0  0  0  0  0  0  0  0
   22.0103   19.6997   24.1390 H   0  0  0  0  0  0  0  0  0  0  0  0
   22.3213   18.0362   23.6589 H   0  0  0  0  0  0  0  0  0  0  0  0
   21.2511   18.2079   25.5337 C   0  0  0  0  0  0  0  0  0  0  0  0
   20.5568   18.8990   26.0288 H   0  0  0  0  0  0  0  0  0  0  0  0
   20.7535   17.2293   25.4909 H   0  0  0  0  0  0  0  0  0  0  0  0
   22.5330   18.0933   26.3833 C   0  0  0  0  0  0  0  0  0  0  0  0
   23.0375   19.0650   26.4653 H   0  0  0  0  0  0  0  0  0  0  0  0
   22.2950   17.7482   27.3978 H   0  0  0  0  0  0  0  0  0  0  0  0
   23.2369   17.3777   25.9386 H   0  0  0  0  0  0  0  0  0  0  0  0
  1  2  1  0  0  0  0
  1  3  2  0  0  0  0
  1  4  1  0  0  0  0
  4  5  1  0  0  0  0
  4  6  1  0  0  0  0
  4  7  1  0  0  0  0
  7  8  1  0  0  0  0
  7  9  1  0  0  0  0
  7 10  1  0  0  0  0
 10 11  1  0  0  0  0
 10 12  1  0  0  0  0
 10 13  1  0  0  0  0
 13 14  1  0  0  0  0
 13 15  1  0  0  0  0
 13 16  1  0  0  0  0
 16 17  1  0  0  0  0
 16 18  1  0  0  0  0
 16 19  1  0  0  0  0
 19 20  1  0  0  0  0
 19 21  1  0  0  0  0
 19 22  1  0  0  0  0
 22 23  1  0  0  0  0
 22 24  1  0  0  0  0
 22 25  1  0  0  0  0
M  END
> <VConfSearch Rank>
737

> <Conf_Id>
114

> <Delta U+W>
2.758

> <U+W>
-48.871

> <U>
11.422

> <W>
-60.293

> <W(PB)>
-62.719

> <W(SA)>
2.425

> <Valence>
10.135

> <Coulomb>
0.369

> <VdW>
0.918

> <VdW6>
-10.482

> <VdW12>
11.400

> <Bond>
0.245

> <Angle>
3.539

> <Pdih>
6.346

> <Idih>
0.006

> <Tether>
0.000

$$$$
VeraChem MOL file


 25 24  0  0  0  0  0  0  0  0999 V2000     
   22.7077   19.2434   26.2839 C   0  0  0  0  0  0  0  0  0  0  0  0
   23.2085   18.1376   26.3436 O   0  5  0  0  0  0  0  0  0  0  0  0
   23.3390   20.2564   26.0552 O   0  0  0  0  0  0  0  0  0  0  0  0
   21.2070   19.3719   26.5297 C   0  0  0  0  0  0  0  0  0  0  0  0
   21.0568   20.2193   27.2088 H   0  0  0  0  0  0  0  0  0  0  0  0
   20.8611   18.4758   27.0590 H   0  0  0  0  0  0  0  0  0  0  0  0
   20.3744   19.5880   25.2393 C   0  0  0  0  0  0  0  0  0  0  0  0
   19.3331   19.7987   25.5179 H   0  0  0  0  0  0  0  0  0  0  0  0
   20.7509   20.4787   24.7194 H   0  0  0  0  0  0  0  0  0  0  0  0
   20.4133   18.3604   24.2976 C   0  0  0  0  0  0  0  0  0  0  0  0
   20.1225   17.4668   24.8665 H   0  0  0  0  0  0  0  0  0  0  0  0
   21.4419   18.1859   23.9532 H   0  0  0  0  0  0  0  0  0  0  0  0
   19.4747   18.4887   23.0740 C   0  0  0  0  0  0  0  0  0  0  0  0
   19.4616   17.5221   22.5545 H   0  0  0  0  0  0  0  0  0  0  0  0
   18.4471   18.6726   23.4157 H   0  0  0  0  0  0  0  0  0  0  0  0
   19.9028   19.5987   22.0825 C   0  0  0  0  0  0  0  0  0  0  0  0
   20.9318   19.4163   21.7439 H   0  0  0  0  0  0  0  0  0  0  0  0
   19.9121   20.5666   22.5994 H   0  0  0  0  0  0  0  0  0  0  0  0
   18.9685   19.7209   20.8559 C   0  0  0  0  0  0  0  0  0  0  0  0
   17.9362   19.8919   21.1912 H   0  0  0  0  0  0  0  0  0  0  0  0
   19.2587   20.6108   20.2806 H   0  0  0  0  0  0  0  0  0  0  0  0
   19.0157   18.4915   19.9225 C   0  0  0  0  0  0  0  0  0  0  0  0
   18.4118   18.6694   19.0233 H   0  0  0  0  0  0  0  0  0  0  0  0
   20.0443   18.2807   19.6021 H   0  0  0  0  0  0  0  0  0  0  0  0
   18.6181   17.5964   20.4165 H   0  0  0  0  0  0  0  0  0  0  0  0
  1  2  1  0  0  0  0
  1  3  2  0  0  0  0
  1  4  1  0  0  0  0
  4  5  1  0  0  0  0
  4  6  1  0  0  0  0
  4  7  1  0  0  0  0
  7  8  1  0  0  0  0
  7  9  1  0  0  0  0
  7 10  1  0  0  0  0
 10 11  1  0  0  0  0
 10 12  1  0  0  0  0
 10 13  1  0  0  0  0
 13 14  1  0  0  0  0
 13 15  1  0  0  0  0
 13 16  1  0  0  0  0
 16 17  1  0  0  0  0
 16 18  1  0  0  0  0
 16 19  1  0  0  0  0
 19 20  1  0  0  0  0
 19 21  1  0  0  0  0
 19 22  1  0  0  0  0
 22 23  1  0  0  0  0
 22 24  1  0  0  0  0
 22 25  1  0  0  0  0
M  END
> <VConfSearch Rank>
738

> <Conf_Id>
87

> <Delta U+W>
1.453

> <U+W>
-50.176

> <U>
9.763

> <W>
-59.940

> <W(PB)>
-62.392

> <W(SA)>
2.452

> <Valence>
8.883

> <Coulomb>
-0.122

> <VdW>
1.003

> <VdW6>
-9.782

> <VdW12>
10.785

> <Bond>
0.212

> <Angle>
2.940

> <Pdih>
5.730

> <Idih>
0.001

> <Tether>
0.000

$$$$
VeraChem MOL file


 25 24  0  0  0  0  0  0  0  0999 V2000     
   16.2200   18.1840   23.1012 C   0  0  0  0  0  0  0  0  0  0  0  0
   16.1951   17.4551   22.1292 O   0  5  0  0  0  0  0  0  0  0  0  0
   15.4674   18.0692   24.0483 O   0  0  0  0  0  0  0  0  0  0  0  0
   17.2654   19.2929   23.1429 C   0  0  0  0  0  0  0  0  0  0  0  0
   16.8401   20.1414   23.6921 H   0  0  0  0  0  0  0  0  0  0  0  0
   17.4466   19.6293   22.1150 H   0  0  0  0  0  0  0  0  0  0  0  0
   18.5939   18.8424   23.7988 C   0  0  0  0  0  0  0  0  0  0  0  0
   18.3957   18.5004   24.8240 H   0  0  0  0  0  0  0  0  0  0  0  0
   18.9893   17.9810   23.2444 H   0  0  0  0  0  0  0  0  0  0  0  0
   19.6379   19.9826   23.8219 C   0  0  0  0  0  0  0  0  0  0  0  0
   19.1994   20.8585   24.3189 H   0  0  0  0  0  0  0  0  0  0  0  0
   19.8666   20.2979   22.7954 H   0  0  0  0  0  0  0  0  0  0  0  0
   20.9460   19.6060   24.5616 C   0  0  0  0  0  0  0  0  0  0  0  0
   21.6055   20.4835   24.5847 H   0  0  0  0  0  0  0  0  0  0  0  0
   20.7084   19.3858   25.6112 H   0  0  0  0  0  0  0  0  0  0  0  0
   21.7205   18.4003   23.9664 C   0  0  0  0  0  0  0  0  0  0  0  0
   21.1243   17.4872   24.0929 H   0  0  0  0  0  0  0  0  0  0  0  0
   22.6319   18.2432   24.5590 H   0  0  0  0  0  0  0  0  0  0  0  0
   22.1137   18.5403   22.4752 C   0  0  0  0  0  0  0  0  0  0  0  0
   22.6303   17.6229   22.1615 H   0  0  0  0  0  0  0  0  0  0  0  0
   21.2124   18.6096   21.8517 H   0  0  0  0  0  0  0  0  0  0  0  0
   23.0340   19.7487   22.1977 C   0  0  0  0  0  0  0  0  0  0  0  0
   23.9350   19.7080   22.8234 H   0  0  0  0  0  0  0  0  0  0  0  0
   23.3513   19.7569   21.1470 H   0  0  0  0  0  0  0  0  0  0  0  0
   22.5183   20.6964   22.3973 H   0  0  0  0  0  0  0  0  0  0  0  0
  1  2  1  0  0  0  0
  1  3  2  0  0  0  0
  1  4  1  0  0  0  0
  4  5  1  0  0  0  0
  4  6  1  0  0  0  0
  4  7  1  0  0  0  0
  7  8  1  0  0  0  0
  7  9  1  0  0  0  0
  7 10  1  0  0  0  0
 10 11  1  0  0  0  0
 10 12  1  0  0  0  0
 10 13  1  0  0  0  0
 13 14  1  0  0  0  0
 13 15  1  0  0  0  0
 13 16  1  0  0  0  0
 16 17  1  0  0  0  0
 16 18  1  0  0  0  0
 16 19  1  0  0  0  0
 19 20  1  0  0  0  0
 19 21  1  0  0  0  0
 19 22  1  0  0  0  0
 22 23  1  0  0  0  0
 22 24  1  0  0  0  0
 22 25  1  0  0  0  0
M  END
> <VConfSearch Rank>
739

> <Conf_Id>
29

> <Delta U+W>
0.850

> <U+W>
-50.780

> <U>
8.646

> <W>
-59.426

> <W(PB)>
-61.868

> <W(SA)>
2.442

> <Valence>
8.924

> <Coulomb>
-1.171

> <VdW>
0.894

> <VdW6>
-10.223

> <VdW12>
11.117

> <Bond>
0.231

> <Angle>
3.232

> <Pdih>
5.461

> <Idih>
0.001

> <Tether>
0.000

$$$$
VeraChem MOL file


 25 24  0  0  0  0  0  0  0  0999 V2000     
   21.1056   22.9414   22.8151 C   0  0  0  0  0  0  0  0  0  0  0  0
   20.3726   23.2969   21.9134 O   0  5  0  0  0  0  0  0  0  0  0  0
   22.2325   23.3675   22.9744 O   0  0  0  0  0  0  0  0  0  0  0  0
   20.5899   21.8884   23.7894 C   0  0  0  0  0  0  0  0  0  0  0  0
   19.5060   22.0205   23.8916 H   0  0  0  0  0  0  0  0  0  0  0  0
   21.0350   22.0863   24.7718 H   0  0  0  0  0  0  0  0  0  0  0  0
   20.9109   20.4425   23.3376 C   0  0  0  0  0  0  0  0  0  0  0  0
   20.4725   20.2751   22.3448 H   0  0  0  0  0  0  0  0  0  0  0  0
   21.9984   20.3276   23.2315 H   0  0  0  0  0  0  0  0  0  0  0  0
   20.3709   19.3953   24.3388 C   0  0  0  0  0  0  0  0  0  0  0  0
   19.2791   19.4828   24.4154 H   0  0  0  0  0  0  0  0  0  0  0  0
   20.7653   19.6206   25.3390 H   0  0  0  0  0  0  0  0  0  0  0  0
   20.7592   17.9395   23.9779 C   0  0  0  0  0  0  0  0  0  0  0  0
   21.8536   17.8493   23.9998 H   0  0  0  0  0  0  0  0  0  0  0  0
   20.3906   17.2688   24.7651 H   0  0  0  0  0  0  0  0  0  0  0  0
   20.2490   17.4396   22.6004 C   0  0  0  0  0  0  0  0  0  0  0  0
   20.5675   16.3969   22.4670 H   0  0  0  0  0  0  0  0  0  0  0  0
   20.7461   18.0053   21.8016 H   0  0  0  0  0  0  0  0  0  0  0  0
   18.7163   17.5226   22.3950 C   0  0  0  0  0  0  0  0  0  0  0  0
   18.3859   18.5690   22.4356 H   0  0  0  0  0  0  0  0  0  0  0  0
   18.4789   17.1681   21.3827 H   0  0  0  0  0  0  0  0  0  0  0  0
   17.9176   16.6834   23.4157 C   0  0  0  0  0  0  0  0  0  0  0  0
   18.0420   17.0712   24.4346 H   0  0  0  0  0  0  0  0  0  0  0  0
   16.8462   16.7077   23.1786 H   0  0  0  0  0  0  0  0  0  0  0  0
   18.2438   15.6354   23.4034 H   0  0  0  0  0  0  0  0  0  0  0  0
  1  2  1  0  0  0  0
  1  3  2  0  0  0  0
  1  4  1  0  0  0  0
  4  5  1  0  0  0  0
  4  6  1  0  0  0  0
  4  7  1  0  0  0  0
  7  8  1  0  0  0  0
  7  9  1  0  0  0  0
  7 10  1  0  0  0  0
 10 11  1  0  0  0  0
 10 12  1  0  0  0  0
 10 13  1  0  0  0  0
 13 14  1  0  0  0  0
 13 15  1  0  0  0  0
 13 16  1  0  0  0  0
 16 17  1  0  0  0  0
 16 18  1  0  0  0  0
 16 19  1  0  0  0  0
 19 20  1  0  0  0  0
 19 21  1  0  0  0  0
 19 22  1  0  0  0  0
 22 23  1  0  0  0  0
 22 24  1  0  0  0  0
 22 25  1  0  0  0  0
M  END
> <VConfSearch Rank>
740

> <Conf_Id>
30

> <Delta U+W>
0.843

> <U+W>
-50.787

> <U>
8.647

> <W>
-59.434

> <W(PB)>
-61.861

> <W(SA)>
2.428

> <Valence>
8.924

> <Coulomb>
-1.170

> <VdW>
0.894

> <VdW6>
-10.224

> <VdW12>
11.118

> <Bond>
0.231

> <Angle>
3.232

> <Pdih>
5.460

> <Idih>
0.000

> <Tether>
0.000

$$$$
VeraChem MOL file


 25 24  0  0  0  0  0  0  0  0999 V2000     
   22.4157   23.0362   21.8153 C   0  0  0  0  0  0  0  0  0  0  0  0
   21.6561   23.2786   20.8972 O   0  5  0  0  0  0  0  0  0  0  0  0
   23.3786   23.7281   22.0805 O   0  0  0  0  0  0  0  0  0  0  0  0
   22.1742   21.8092   22.6960 C   0  0  0  0  0  0  0  0  0  0  0  0
   22.0812   22.1621   23.7298 H   0  0  0  0  0  0  0  0  0  0  0  0
   23.0774   21.1897   22.6482 H   0  0  0  0  0  0  0  0  0  0  0  0
   20.9330   20.9574   22.3188 C   0  0  0  0  0  0  0  0  0  0  0  0
   20.0327   21.5858   22.3624 H   0  0  0  0  0  0  0  0  0  0  0  0
   21.0298   20.6125   21.2799 H   0  0  0  0  0  0  0  0  0  0  0  0
   20.7642   19.7418   23.2561 C   0  0  0  0  0  0  0  0  0  0  0  0
   20.6678   20.0890   24.2941 H   0  0  0  0  0  0  0  0  0  0  0  0
   21.6655   19.1151   23.2108 H   0  0  0  0  0  0  0  0  0  0  0  0
   19.5291   18.8959   22.8791 C   0  0  0  0  0  0  0  0  0  0  0  0
   18.6276   19.5223   22.9243 H   0  0  0  0  0  0  0  0  0  0  0  0
   19.6252   18.5485   21.8412 H   0  0  0  0  0  0  0  0  0  0  0  0
   19.3597   17.6803   23.8160 C   0  0  0  0  0  0  0  0  0  0  0  0
   19.2634   18.0275   24.8539 H   0  0  0  0  0  0  0  0  0  0  0  0
   20.2610   17.0537   23.7708 H   0  0  0  0  0  0  0  0  0  0  0  0
   18.1250   16.8347   23.4392 C   0  0  0  0  0  0  0  0  0  0  0  0
   17.2211   17.4579   23.4851 H   0  0  0  0  0  0  0  0  0  0  0  0
   18.2187   16.4840   22.4020 H   0  0  0  0  0  0  0  0  0  0  0  0
   17.9594   15.6220   24.3770 C   0  0  0  0  0  0  0  0  0  0  0  0
   17.8319   15.9453   25.4184 H   0  0  0  0  0  0  0  0  0  0  0  0
   17.0774   15.0323   24.0949 H   0  0  0  0  0  0  0  0  0  0  0  0
   18.8369   14.9641   24.3272 H   0  0  0  0  0  0  0  0  0  0  0  0
  1  2  1  0  0  0  0
  1  3  2  0  0  0  0
  1  4  1  0  0  0  0
  4  5  1  0  0  0  0
  4  6  1  0  0  0  0
  4  7  1  0  0  0  0
  7  8  1  0  0  0  0
  7  9  1  0  0  0  0
  7 10  1  0  0  0  0
 10 11  1  0  0  0  0
 10 12  1  0  0  0  0
 10 13  1  0  0  0  0
 13 14  1  0  0  0  0
 13 15  1  0  0  0  0
 13 16  1  0  0  0  0
 16 17  1  0  0  0  0
 16 18  1  0  0  0  0
 16 19  1  0  0  0  0
 19 20  1  0  0  0  0
 19 21  1  0  0  0  0
 19 22  1  0  0  0  0
 22 23  1  0  0  0  0
 22 24  1  0  0  0  0
 22 25  1  0  0  0  0
M  END
> <VConfSearch Rank>
741

> <Conf_Id>
0

> <Delta U+W>
0.000

> <U+W>
-51.629

> <U>
6.586

> <W>
-58.216

> <W(PB)>
-60.757

> <W(SA)>
2.541

> <Valence>
8.027

> <Coulomb>
-2.892

> <VdW>
1.451

> <VdW6>
-7.931

> <VdW12>
9.383

> <Bond>
0.149

> <Angle>
2.726

> <Pdih>
5.152

> <Idih>
0.000

> <Tether>
0.000

$$$$
VeraChem MOL file


 25 24  0  0  0  0  0  0  0  0999 V2000     
   19.7459   21.4760   27.1745 C   0  0  0  0  0  0  0  0  0  0  0  0
   19.5833   22.6738   27.0500 O   0  5  0  0  0  0  0  0  0  0  0  0
   19.2813   20.8247   28.0892 O   0  0  0  0  0  0  0  0  0  0  0  0
   20.5589   20.7458   26.1115 C   0  0  0  0  0  0  0  0  0  0  0  0
   21.0783   19.9095   26.5947 H   0  0  0  0  0  0  0  0  0  0  0  0
   21.3278   21.4333   25.7388 H   0  0  0  0  0  0  0  0  0  0  0  0
   19.6894   20.2294   24.9388 C   0  0  0  0  0  0  0  0  0  0  0  0
   18.9167   19.5531   25.3303 H   0  0  0  0  0  0  0  0  0  0  0  0
   19.1660   21.0768   24.4745 H   0  0  0  0  0  0  0  0  0  0  0  0
   20.5349   19.4943   23.8764 C   0  0  0  0  0  0  0  0  0  0  0  0
   21.0576   18.6485   24.3439 H   0  0  0  0  0  0  0  0  0  0  0  0
   21.3071   20.1726   23.4880 H   0  0  0  0  0  0  0  0  0  0  0  0
   19.6654   18.9809   22.7085 C   0  0  0  0  0  0  0  0  0  0  0  0
   18.8932   18.3026   23.0966 H   0  0  0  0  0  0  0  0  0  0  0  0
   19.1427   19.8266   22.2409 H   0  0  0  0  0  0  0  0  0  0  0  0
   20.5103   18.2458   21.6456 C   0  0  0  0  0  0  0  0  0  0  0  0
   21.0331   17.4000   22.1129 H   0  0  0  0  0  0  0  0  0  0  0  0
   21.2826   18.9239   21.2573 H   0  0  0  0  0  0  0  0  0  0  0  0
   19.6414   17.7326   20.4782 C   0  0  0  0  0  0  0  0  0  0  0  0
   18.8687   17.0524   20.8626 H   0  0  0  0  0  0  0  0  0  0  0  0
   19.1182   18.5762   20.0069 H   0  0  0  0  0  0  0  0  0  0  0  0
   20.4886   16.9991   19.4190 C   0  0  0  0  0  0  0  0  0  0  0  0
   19.8553   16.6412   18.5969 H   0  0  0  0  0  0  0  0  0  0  0  0
   21.2502   17.6663   18.9944 H   0  0  0  0  0  0  0  0  0  0  0  0
   20.9988   16.1309   19.8564 H   0  0  0  0  0  0  0  0  0  0  0  0
  1  2  1  0  0  0  0
  1  3  2  0  0  0  0
  1  4  1  0  0  0  0
  4  5  1  0  0  0  0
  4  6  1  0  0  0  0
  4  7  1  0  0  0  0
  7  8  1  0  0  0  0
  7  9  1  0  0  0  0
  7 10  1  0  0  0  0
 10 11  1  0  0  0  0
 10 12  1  0  0  0  0
 10 13  1  0  0  0  0
 13 14  1  0  0  0  0
 13 15  1  0  0  0  0
 13 16  1  0  0  0  0
 16 17  1  0  0  0  0
 16 18  1  0  0  0  0
 16 19  1  0  0  0  0
 19 20  1  0  0  0  0
 19 21  1  0  0  0  0
 19 22  1  0  0  0  0
 22 23  1  0  0  0  0
 22 24  1  0  0  0  0
 22 25  1  0  0  0  0
M  END
> <VConfSearch Rank>
742

> <Conf_Id>
27

> <Delta U+W>
-1.297

> <U+W>
-52.926

> <U>
5.617

> <W>
-58.543

> <W(PB)>
-61.065

> <W(SA)>
2.522

> <Valence>
7.531

> <Coulomb>
-2.818

> <VdW>
0.904

> <VdW6>
-7.640

> <VdW12>
8.544

> <Bond>
0.115

> <Angle>
2.271

> <Pdih>
5.144

> <Idih>
0.001

> <Tether>
0.000

$$$$
VeraChem MOL file


 25 24  0  0  0  0  0  0  0  0999 V2000     
   22.9559   20.6547   20.8256 C   0  0  0  0  0  0  0  0  0  0  0  0
   23.7918   19.8539   20.4554 O   0  5  0  0  0  0  0  0  0  0  0  0
   22.1331   21.1584   20.0865 O   0  0  0  0  0  0  0  0  0  0  0  0
   22.9519   21.0613   22.2965 C   0  0  0  0  0  0  0  0  0  0  0  0
   22.4022   22.0050   22.3973 H   0  0  0  0  0  0  0  0  0  0  0  0
   23.9901   21.2666   22.5827 H   0  0  0  0  0  0  0  0  0  0  0  0
   22.3550   19.9896   23.2451 C   0  0  0  0  0  0  0  0  0  0  0  0
   22.8979   19.0433   23.1125 H   0  0  0  0  0  0  0  0  0  0  0  0
   22.5173   20.3039   24.2850 H   0  0  0  0  0  0  0  0  0  0  0  0
   20.8444   19.7637   23.0110 C   0  0  0  0  0  0  0  0  0  0  0  0
   20.6756   19.4318   21.9771 H   0  0  0  0  0  0  0  0  0  0  0  0
   20.3081   20.7149   23.1314 H   0  0  0  0  0  0  0  0  0  0  0  0
   20.2648   18.7169   23.9867 C   0  0  0  0  0  0  0  0  0  0  0  0
   20.8018   17.7661   23.8655 H   0  0  0  0  0  0  0  0  0  0  0  0
   20.4298   19.0481   25.0211 H   0  0  0  0  0  0  0  0  0  0  0  0
   18.7556   18.4901   23.7527 C   0  0  0  0  0  0  0  0  0  0  0  0
   18.5904   18.1589   22.7182 H   0  0  0  0  0  0  0  0  0  0  0  0
   18.2185   19.4409   23.8735 H   0  0  0  0  0  0  0  0  0  0  0  0
   18.1759   17.4435   24.7274 C   0  0  0  0  0  0  0  0  0  0  0  0
   18.7097   16.4904   24.6080 H   0  0  0  0  0  0  0  0  0  0  0  0
   18.3377   17.7724   25.7633 H   0  0  0  0  0  0  0  0  0  0  0  0
   16.6688   17.2198   24.4903 C   0  0  0  0  0  0  0  0  0  0  0  0
   16.4808   16.8598   23.4703 H   0  0  0  0  0  0  0  0  0  0  0  0
   16.2735   16.4733   25.1914 H   0  0  0  0  0  0  0  0  0  0  0  0
   16.1060   18.1514   24.6342 H   0  0  0  0  0  0  0  0  0  0  0  0
  1  2  1  0  0  0  0
  1  3  2  0  0  0  0
  1  4  1  0  0  0  0
  4  5  1  0  0  0  0
  4  6  1  0  0  0  0
  4  7  1  0  0  0  0
  7  8  1  0  0  0  0
  7  9  1  0  0  0  0
  7 10  1  0  0  0  0
 10 11  1  0  0  0  0
 10 12  1  0  0  0  0
 10 13  1  0  0  0  0
 13 14  1  0  0  0  0
 13 15  1  0  0  0  0
 13 16  1  0  0  0  0
 16 17  1  0  0  0  0
 16 18  1  0  0  0  0
 16 19  1  0  0  0  0
 19 20  1  0  0  0  0
 19 21  1  0  0  0  0
 19 22  1  0  0  0  0
 22 23  1  0  0  0  0
 22 24  1  0  0  0  0
 22 25  1  0  0  0  0
M  END
> <VConfSearch Rank>
743

> <Conf_Id>
37

> <Delta U+W>
-0.230

> <U+W>
-51.860

> <U>
7.816

> <W>
-59.675

> <W(PB)>
-62.180

> <W(SA)>
2.505

> <Valence>
7.785

> <Coulomb>
-0.713

> <VdW>
0.744

> <VdW6>
-8.514

> <VdW12>
9.259

> <Bond>
0.136

> <Angle>
2.433

> <Pdih>
5.216

> <Idih>
0.000

> <Tether>
0.000

$$$$
VeraChem MOL file


 25 24  0  0  0  0  0  0  0  0999 V2000     
   16.6171   20.9521   24.8314 C   0  0  0  0  0  0  0  0  0  0  0  0
   15.9880   21.6031   24.0205 O   0  5  0  0  0  0  0  0  0  0  0  0
   17.1620   21.4347   25.8046 O   0  0  0  0  0  0  0  0  0  0  0  0
   16.7130   19.4434   24.6227 C   0  0  0  0  0  0  0  0  0  0  0  0
   15.7078   19.0820   24.3758 H   0  0  0  0  0  0  0  0  0  0  0  0
   16.9938   18.9755   25.5741 H   0  0  0  0  0  0  0  0  0  0  0  0
   17.7037   19.0232   23.5060 C   0  0  0  0  0  0  0  0  0  0  0  0
   17.6069   17.9430   23.3317 H   0  0  0  0  0  0  0  0  0  0  0  0
   17.4258   19.5213   22.5667 H   0  0  0  0  0  0  0  0  0  0  0  0
   19.1715   19.3528   23.8590 C   0  0  0  0  0  0  0  0  0  0  0  0
   19.4402   18.8636   24.8053 H   0  0  0  0  0  0  0  0  0  0  0  0
   19.2801   20.4346   24.0180 H   0  0  0  0  0  0  0  0  0  0  0  0
   20.1426   18.8976   22.7484 C   0  0  0  0  0  0  0  0  0  0  0  0
   20.0379   17.8156   22.5897 H   0  0  0  0  0  0  0  0  0  0  0  0
   19.8732   19.3874   21.8026 H   0  0  0  0  0  0  0  0  0  0  0  0
   21.6095   19.2273   23.1000 C   0  0  0  0  0  0  0  0  0  0  0  0
   21.8790   18.7378   24.0460 H   0  0  0  0  0  0  0  0  0  0  0  0
   21.7144   20.3093   23.2589 H   0  0  0  0  0  0  0  0  0  0  0  0
   22.5805   18.7731   21.9900 C   0  0  0  0  0  0  0  0  0  0  0  0
   22.4795   17.6907   21.8296 H   0  0  0  0  0  0  0  0  0  0  0  0
   22.3150   19.2623   21.0426 H   0  0  0  0  0  0  0  0  0  0  0  0
   24.0440   19.1041   22.3450 C   0  0  0  0  0  0  0  0  0  0  0  0
   24.3464   18.6015   23.2731 H   0  0  0  0  0  0  0  0  0  0  0  0
   24.7202   18.7745   21.5454 H   0  0  0  0  0  0  0  0  0  0  0  0
   24.1806   20.1850   22.4802 H   0  0  0  0  0  0  0  0  0  0  0  0
  1  2  1  0  0  0  0
  1  3  2  0  0  0  0
  1  4  1  0  0  0  0
  4  5  1  0  0  0  0
  4  6  1  0  0  0  0
  4  7  1  0  0  0  0
  7  8  1  0  0  0  0
  7  9  1  0  0  0  0
  7 10  1  0  0  0  0
 10 11  1  0  0  0  0
 10 12  1  0  0  0  0
 10 13  1  0  0  0  0
 13 14  1  0  0  0  0
 13 15  1  0  0  0  0
 13 16  1  0  0  0  0
 16 17  1  0  0  0  0
 16 18  1  0  0  0  0
 16 19  1  0  0  0  0
 19 20  1  0  0  0  0
 19 21  1  0  0  0  0
 19 22  1  0  0  0  0
 22 23  1  0  0  0  0
 22 24  1  0  0  0  0
 22 25  1  0  0  0  0
M  END
> <VConfSearch Rank>
744

> <Conf_Id>
54

> <Delta U+W>
-0.224

> <U+W>
-51.854

> <U>
7.816

> <W>
-59.670

> <W(PB)>
-62.157

> <W(SA)>
2.487

> <Valence>
7.785

> <Coulomb>
-0.713

> <VdW>
0.744

> <VdW6>
-8.515

> <VdW12>
9.259

> <Bond>
0.136

> <Angle>
2.433

> <Pdih>
5.215

> <Idih>
0.000

> <Tether>
0.000

$$$$
VeraChem MOL file


 25 24  0  0  0  0  0  0  0  0999 V2000     
   20.7062   22.5319   21.1940 C   0  0  0  0  0  0  0  0  0  0  0  0
   19.6991   22.6544   20.5248 O   0  5  0  0  0  0  0  0  0  0  0  0
   21.1703   23.4214   21.8799 O   0  0  0  0  0  0  0  0  0  0  0  0
   21.4404   21.1944   21.1579 C   0  0  0  0  0  0  0  0  0  0  0  0
   22.5070   21.4107   21.0251 H   0  0  0  0  0  0  0  0  0  0  0  0
   21.1158   20.6402   20.2689 H   0  0  0  0  0  0  0  0  0  0  0  0
   21.2421   20.3296   22.4300 C   0  0  0  0  0  0  0  0  0  0  0  0
   21.9254   19.4729   22.3765 H   0  0  0  0  0  0  0  0  0  0  0  0
   21.5324   20.9127   23.3150 H   0  0  0  0  0  0  0  0  0  0  0  0
   19.7860   19.8284   22.5862 C   0  0  0  0  0  0  0  0  0  0  0  0
   19.5121   19.2076   21.7222 H   0  0  0  0  0  0  0  0  0  0  0  0
   19.1060   20.6912   22.5740 H   0  0  0  0  0  0  0  0  0  0  0  0
   19.5398   19.0365   23.8928 C   0  0  0  0  0  0  0  0  0  0  0  0
   19.8315   19.6508   24.7555 H   0  0  0  0  0  0  0  0  0  0  0  0
   18.4601   18.8639   23.9850 H   0  0  0  0  0  0  0  0  0  0  0  0
   20.2823   17.6782   23.9423 C   0  0  0  0  0  0  0  0  0  0  0  0
   21.3629   17.8486   23.8578 H   0  0  0  0  0  0  0  0  0  0  0  0
   19.9940   17.0664   23.0767 H   0  0  0  0  0  0  0  0  0  0  0  0
   20.0250   16.8847   25.2449 C   0  0  0  0  0  0  0  0  0  0  0  0
   20.6896   16.0098   25.2602 H   0  0  0  0  0  0  0  0  0  0  0  0
   20.3006   17.4982   26.1138 H   0  0  0  0  0  0  0  0  0  0  0  0
   18.5661   16.3999   25.3914 C   0  0  0  0  0  0  0  0  0  0  0  0
   17.8722   17.2421   25.5039 H   0  0  0  0  0  0  0  0  0  0  0  0
   18.2573   15.8129   24.5166 H   0  0  0  0  0  0  0  0  0  0  0  0
   18.4610   15.7633   26.2794 H   0  0  0  0  0  0  0  0  0  0  0  0
  1  2  1  0  0  0  0
  1  3  2  0  0  0  0
  1  4  1  0  0  0  0
  4  5  1  0  0  0  0
  4  6  1  0  0  0  0
  4  7  1  0  0  0  0
  7  8  1  0  0  0  0
  7  9  1  0  0  0  0
  7 10  1  0  0  0  0
 10 11  1  0  0  0  0
 10 12  1  0  0  0  0
 10 13  1  0  0  0  0
 13 14  1  0  0  0  0
 13 15  1  0  0  0  0
 13 16  1  0  0  0  0
 16 17  1  0  0  0  0
 16 18  1  0  0  0  0
 16 19  1  0  0  0  0
 19 20  1  0  0  0  0
 19 21  1  0  0  0  0
 19 22  1  0  0  0  0
 22 23  1  0  0  0  0
 22 24  1  0  0  0  0
 22 25  1  0  0  0  0
M  END
> <VConfSearch Rank>
745

> <Conf_Id>
101

> <Delta U+W>
1.534

> <U+W>
-50.095

> <U>
9.416

> <W>
-59.512

> <W(PB)>
-61.988

> <W(SA)>
2.476

> <Valence>
8.939

> <Coulomb>
-0.615

> <VdW>
1.092

> <VdW6>
-9.710

> <VdW12>
10.802

> <Bond>
0.216

> <Angle>
2.979

> <Pdih>
5.743

> <Idih>
0.000

> <Tether>
0.000

$$$$
VeraChem MOL file


 25 24  0  0  0  0  0  0  0  0999 V2000     
   23.1756   16.3632   23.1020 C   0  0  0  0  0  0  0  0  0  0  0  0
   23.8429   16.6096   22.1167 O   0  5  0  0  0  0  0  0  0  0  0  0
   23.5801   15.7081   24.0422 O   0  0  0  0  0  0  0  0  0  0  0  0
   21.7605   16.9259   23.1726 C   0  0  0  0  0  0  0  0  0  0  0  0
   21.1443   16.2249   23.7481 H   0  0  0  0  0  0  0  0  0  0  0  0
   21.3610   16.9494   22.1526 H   0  0  0  0  0  0  0  0  0  0  0  0
   21.7081   18.3366   23.8151 C   0  0  0  0  0  0  0  0  0  0  0  0
   22.2047   18.2948   24.7943 H   0  0  0  0  0  0  0  0  0  0  0  0
   22.2883   19.0412   23.2034 H   0  0  0  0  0  0  0  0  0  0  0  0
   20.2712   18.8761   24.0128 C   0  0  0  0  0  0  0  0  0  0  0  0
   20.3352   19.8030   24.5971 H   0  0  0  0  0  0  0  0  0  0  0  0
   19.6902   18.1656   24.6163 H   0  0  0  0  0  0  0  0  0  0  0  0
   19.5317   19.1600   22.6823 C   0  0  0  0  0  0  0  0  0  0  0  0
   20.1119   19.8707   22.0795 H   0  0  0  0  0  0  0  0  0  0  0  0
   19.4738   18.2368   22.0924 H   0  0  0  0  0  0  0  0  0  0  0  0
   18.0874   19.6874   22.8777 C   0  0  0  0  0  0  0  0  0  0  0  0
   17.4993   18.9252   23.4067 H   0  0  0  0  0  0  0  0  0  0  0  0
   17.6188   19.7994   21.8905 H   0  0  0  0  0  0  0  0  0  0  0  0
   17.9651   21.0299   23.6408 C   0  0  0  0  0  0  0  0  0  0  0  0
   16.9010   21.2922   23.7168 H   0  0  0  0  0  0  0  0  0  0  0  0
   18.3217   20.9141   24.6727 H   0  0  0  0  0  0  0  0  0  0  0  0
   18.7153   22.1936   22.9576 C   0  0  0  0  0  0  0  0  0  0  0  0
   18.3912   22.3121   21.9155 H   0  0  0  0  0  0  0  0  0  0  0  0
   18.5200   23.1376   23.4825 H   0  0  0  0  0  0  0  0  0  0  0  0
   19.7999   22.0274   22.9650 H   0  0  0  0  0  0  0  0  0  0  0  0
  1  2  1  0  0  0  0
  1  3  2  0  0  0  0
  1  4  1  0  0  0  0
  4  5  1  0  0  0  0
  4  6  1  0  0  0  0
  4  7  1  0  0  0  0
  7  8  1  0  0  0  0
  7  9  1  0  0  0  0
  7 10  1  0  0  0  0
 10 11  1  0  0  0  0
 10 12  1  0  0  0  0
 10 13  1  0  0  0  0
 13 14  1  0  0  0  0
 13 15  1  0  0  0  0
 13 16  1  0  0  0  0
 16 17  1  0  0  0  0
 16 18  1  0  0  0  0
 16 19  1  0  0  0  0
 19 20  1  0  0  0  0
 19 21  1  0  0  0  0
 19 22  1  0  0  0  0
 22 23  1  0  0  0  0
 22 24  1  0  0  0  0
 22 25  1  0  0  0  0
M  END
> <VConfSearch Rank>
746

> <Conf_Id>
75

> <Delta U+W>
1.014

> <U+W>
-50.615

> <U>
8.474

> <W>
-59.089

> <W(PB)>
-61.530

> <W(SA)>
2.441

> <Valence>
9.080

> <Coulomb>
-1.772

> <VdW>
1.165

> <VdW6>
-9.830

> <VdW12>
10.996

> <Bond>
0.240

> <Angle>
3.225

> <Pdih>
5.615

> <Idih>
0.001

> <Tether>
0.000

$$$$
VeraChem MOL file


 25 24  0  0  0  0  0  0  0  0999 V2000     
   16.7827   17.3877   21.3325 C   0  0  0  0  0  0  0  0  0  0  0  0
   16.8964   17.5793   20.1379 O   0  5  0  0  0  0  0  0  0  0  0  0
   16.1665   16.4551   21.8092 O   0  0  0  0  0  0  0  0  0  0  0  0
   17.4691   18.3593   22.2859 C   0  0  0  0  0  0  0  0  0  0  0  0
   16.8634   18.4274   23.1975 H   0  0  0  0  0  0  0  0  0  0  0  0
   17.4670   19.3522   21.8202 H   0  0  0  0  0  0  0  0  0  0  0  0
   18.9170   17.9364   22.6363 C   0  0  0  0  0  0  0  0  0  0  0  0
   18.9032   16.9355   23.0896 H   0  0  0  0  0  0  0  0  0  0  0  0
   19.5063   17.8602   21.7120 H   0  0  0  0  0  0  0  0  0  0  0  0
   19.5905   18.9364   23.6010 C   0  0  0  0  0  0  0  0  0  0  0  0
   18.9978   19.0097   24.5230 H   0  0  0  0  0  0  0  0  0  0  0  0
   19.5901   19.9344   23.1468 H   0  0  0  0  0  0  0  0  0  0  0  0
   21.0342   18.5064   23.9526 C   0  0  0  0  0  0  0  0  0  0  0  0
   20.9895   17.5192   24.4325 H   0  0  0  0  0  0  0  0  0  0  0  0
   21.6279   18.3754   23.0377 H   0  0  0  0  0  0  0  0  0  0  0  0
   21.7505   19.4881   24.9147 C   0  0  0  0  0  0  0  0  0  0  0  0
   22.3856   18.9003   25.5914 H   0  0  0  0  0  0  0  0  0  0  0  0
   21.0177   19.9942   25.5580 H   0  0  0  0  0  0  0  0  0  0  0  0
   22.6563   20.5325   24.2164 C   0  0  0  0  0  0  0  0  0  0  0  0
   23.1733   21.1176   24.9893 H   0  0  0  0  0  0  0  0  0  0  0  0
   23.4408   20.0165   23.6458 H   0  0  0  0  0  0  0  0  0  0  0  0
   21.9007   21.5030   23.2849 C   0  0  0  0  0  0  0  0  0  0  0  0
   21.0667   21.9853   23.8110 H   0  0  0  0  0  0  0  0  0  0  0  0
   22.5743   22.2907   22.9235 H   0  0  0  0  0  0  0  0  0  0  0  0
   21.5037   20.9794   22.4064 H   0  0  0  0  0  0  0  0  0  0  0  0
  1  2  1  0  0  0  0
  1  3  2  0  0  0  0
  1  4  1  0  0  0  0
  4  5  1  0  0  0  0
  4  6  1  0  0  0  0
  4  7  1  0  0  0  0
  7  8  1  0  0  0  0
  7  9  1  0  0  0  0
  7 10  1  0  0  0  0
 10 11  1  0  0  0  0
 10 12  1  0  0  0  0
 10 13  1  0  0  0  0
 13 14  1  0  0  0  0
 13 15  1  0  0  0  0
 13 16  1  0  0  0  0
 16 17  1  0  0  0  0
 16 18  1  0  0  0  0
 16 19  1  0  0  0  0
 19 20  1  0  0  0  0
 19 21  1  0  0  0  0
 19 22  1  0  0  0  0
 22 23  1  0  0  0  0
 22 24  1  0  0  0  0
 22 25  1  0  0  0  0
M  END
> <VConfSearch Rank>
747

> <Conf_Id>
125

> <Delta U+W>
2.314

> <U+W>
-49.315

> <U>
9.740

> <W>
-59.054

> <W(PB)>
-61.488

> <W(SA)>
2.433

> <Valence>
10.506

> <Coulomb>
-1.761

> <VdW>
0.994

> <VdW6>
-9.209

> <VdW12>
10.203

> <Bond>
0.193

> <Angle>
2.979

> <Pdih>
7.334

> <Idih>
0.001

> <Tether>
0.000

$$$$
VeraChem MOL file


 25 24  0  0  0  0  0  0  0  0999 V2000     
   16.2462   18.0481   22.5030 C   0  0  0  0  0  0  0  0  0  0  0  0
   15.6547   18.1626   23.5583 O   0  5  0  0  0  0  0  0  0  0  0  0
   15.7550   17.5570   21.5059 O   0  0  0  0  0  0  0  0  0  0  0  0
   17.6925   18.5250   22.4327 C   0  0  0  0  0  0  0  0  0  0  0  0
   17.7905   19.3897   23.0986 H   0  0  0  0  0  0  0  0  0  0  0  0
   17.8856   18.8761   21.4120 H   0  0  0  0  0  0  0  0  0  0  0  0
   18.7081   17.4186   22.8193 C   0  0  0  0  0  0  0  0  0  0  0  0
   18.5346   17.1084   23.8591 H   0  0  0  0  0  0  0  0  0  0  0  0
   18.5192   16.5334   22.1962 H   0  0  0  0  0  0  0  0  0  0  0  0
   20.1848   17.8446   22.6402 C   0  0  0  0  0  0  0  0  0  0  0  0
   20.3573   18.1449   21.5976 H   0  0  0  0  0  0  0  0  0  0  0  0
   20.8237   16.9695   22.8215 H   0  0  0  0  0  0  0  0  0  0  0  0
   20.6147   18.9874   23.5891 C   0  0  0  0  0  0  0  0  0  0  0  0
   20.0282   19.8876   23.3693 H   0  0  0  0  0  0  0  0  0  0  0  0
   20.3952   18.7044   24.6275 H   0  0  0  0  0  0  0  0  0  0  0  0
   22.1211   19.3075   23.4490 C   0  0  0  0  0  0  0  0  0  0  0  0
   22.3354   19.6362   22.4229 H   0  0  0  0  0  0  0  0  0  0  0  0
   22.6989   18.3868   23.6078 H   0  0  0  0  0  0  0  0  0  0  0  0
   22.6185   20.3770   24.4493 C   0  0  0  0  0  0  0  0  0  0  0  0
   22.4105   20.0489   25.4771 H   0  0  0  0  0  0  0  0  0  0  0  0
   23.7110   20.4574   24.3646 H   0  0  0  0  0  0  0  0  0  0  0  0
   21.9980   21.7712   24.2134 C   0  0  0  0  0  0  0  0  0  0  0  0
   20.9173   21.7663   24.4027 H   0  0  0  0  0  0  0  0  0  0  0  0
   22.4494   22.5111   24.8870 H   0  0  0  0  0  0  0  0  0  0  0  0
   22.1659   22.1067   23.1817 H   0  0  0  0  0  0  0  0  0  0  0  0
  1  2  1  0  0  0  0
  1  3  2  0  0  0  0
  1  4  1  0  0  0  0
  4  5  1  0  0  0  0
  4  6  1  0  0  0  0
  4  7  1  0  0  0  0
  7  8  1  0  0  0  0
  7  9  1  0  0  0  0
  7 10  1  0  0  0  0
 10 11  1  0  0  0  0
 10 12  1  0  0  0  0
 10 13  1  0  0  0  0
 13 14  1  0  0  0  0
 13 15  1  0  0  0  0
 13 16  1  0  0  0  0
 16 17  1  0  0  0  0
 16 18  1  0  0  0  0
 16 19  1  0  0  0  0
 19 20  1  0  0  0  0
 19 21  1  0  0  0  0
 19 22  1  0  0  0  0
 22 23  1  0  0  0  0
 22 24  1  0  0  0  0
 22 25  1  0  0  0  0
M  END
> <VConfSearch Rank>
748

> <Conf_Id>
4

> <Delta U+W>
0.189

> <U+W>
-51.441

> <U>
7.701

> <W>
-59.141

> <W(PB)>
-61.609

> <W(SA)>
2.467

> <Valence>
8.550

> <Coulomb>
-1.988

> <VdW>
1.139

> <VdW6>
-8.988

> <VdW12>
10.127

> <Bond>
0.191

> <Angle>
2.738

> <Pdih>
5.621

> <Idih>
0.001

> <Tether>
0.000

$$$$
VeraChem MOL file


 25 24  0  0  0  0  0  0  0  0999 V2000     
   19.3431   23.2410   23.2155 C   0  0  0  0  0  0  0  0  0  0  0  0
   20.0661   23.7098   24.0723 O   0  5  0  0  0  0  0  0  0  0  0  0
   18.6968   23.9147   22.4377 O   0  0  0  0  0  0  0  0  0  0  0  0
   19.2604   21.7236   23.0941 C   0  0  0  0  0  0  0  0  0  0  0  0
   18.2554   21.4650   22.7400 H   0  0  0  0  0  0  0  0  0  0  0  0
   19.3697   21.3029   24.1000 H   0  0  0  0  0  0  0  0  0  0  0  0
   20.3320   21.1394   22.1372 C   0  0  0  0  0  0  0  0  0  0  0  0
   20.2548   21.6506   21.1675 H   0  0  0  0  0  0  0  0  0  0  0  0
   21.3342   21.3646   22.5274 H   0  0  0  0  0  0  0  0  0  0  0  0
   20.1906   19.6159   21.9067 C   0  0  0  0  0  0  0  0  0  0  0  0
   20.9086   19.3132   21.1323 H   0  0  0  0  0  0  0  0  0  0  0  0
   19.1912   19.3952   21.5074 H   0  0  0  0  0  0  0  0  0  0  0  0
   20.4395   18.7754   23.1806 C   0  0  0  0  0  0  0  0  0  0  0  0
   21.4186   19.0344   23.6057 H   0  0  0  0  0  0  0  0  0  0  0  0
   19.6843   19.0219   23.9366 H   0  0  0  0  0  0  0  0  0  0  0  0
   20.3919   17.2592   22.8806 C   0  0  0  0  0  0  0  0  0  0  0  0
   21.1061   17.0305   22.0778 H   0  0  0  0  0  0  0  0  0  0  0  0
   19.3978   16.9887   22.4990 H   0  0  0  0  0  0  0  0  0  0  0  0
   20.7329   16.3786   24.1054 C   0  0  0  0  0  0  0  0  0  0  0  0
   20.7934   15.3309   23.7801 H   0  0  0  0  0  0  0  0  0  0  0  0
   21.7290   16.6430   24.4866 H   0  0  0  0  0  0  0  0  0  0  0  0
   19.6956   16.4860   25.2443 C   0  0  0  0  0  0  0  0  0  0  0  0
   18.6860   16.2567   24.8792 H   0  0  0  0  0  0  0  0  0  0  0  0
   19.9333   15.7772   26.0480 H   0  0  0  0  0  0  0  0  0  0  0  0
   19.6836   17.4919   25.6821 H   0  0  0  0  0  0  0  0  0  0  0  0
  1  2  1  0  0  0  0
  1  3  2  0  0  0  0
  1  4  1  0  0  0  0
  4  5  1  0  0  0  0
  4  6  1  0  0  0  0
  4  7  1  0  0  0  0
  7  8  1  0  0  0  0
  7  9  1  0  0  0  0
  7 10  1  0  0  0  0
 10 11  1  0  0  0  0
 10 12  1  0  0  0  0
 10 13  1  0  0  0  0
 13 14  1  0  0  0  0
 13 15  1  0  0  0  0
 13 16  1  0  0  0  0
 16 17  1  0  0  0  0
 16 18  1  0  0  0  0
 16 19  1  0  0  0  0
 19 20  1  0  0  0  0
 19 21  1  0  0  0  0
 19 22  1  0  0  0  0
 22 23  1  0  0  0  0
 22 24  1  0  0  0  0
 22 25  1  0  0  0  0
M  END
> <VConfSearch Rank>
749

> <Conf_Id>
17

> <Delta U+W>
0.219

> <U+W>
-51.411

> <U>
7.701

> <W>
-59.111

> <W(PB)>
-61.599

> <W(SA)>
2.488

> <Valence>
8.550

> <Coulomb>
-1.988

> <VdW>
1.139

> <VdW6>
-8.988

> <VdW12>
10.127

> <Bond>
0.191

> <Angle>
2.738

> <Pdih>
5.621

> <Idih>
0.001

> <Tether>
0.000

$$$$
VeraChem MOL file


 25 24  0  0  0  0  0  0  0  0999 V2000     
   22.7904   19.7528   20.8916 C   0  0  0  0  0  0  0  0  0  0  0  0
   23.6955   20.4035   21.3757 O   0  5  0  0  0  0  0  0  0  0  0  0
   22.1269   20.1244   19.9436 O   0  0  0  0  0  0  0  0  0  0  0  0
   22.4810   18.3849   21.4933 C   0  0  0  0  0  0  0  0  0  0  0  0
   23.3542   18.0486   22.0654 H   0  0  0  0  0  0  0  0  0  0  0  0
   22.3562   17.6811   20.6620 H   0  0  0  0  0  0  0  0  0  0  0  0
   21.2133   18.3625   22.3861 C   0  0  0  0  0  0  0  0  0  0  0  0
   20.3581   18.7208   21.7979 H   0  0  0  0  0  0  0  0  0  0  0  0
   20.9931   17.3239   22.6673 H   0  0  0  0  0  0  0  0  0  0  0  0
   21.3765   19.2151   23.6672 C   0  0  0  0  0  0  0  0  0  0  0  0
   21.5269   20.2695   23.3972 H   0  0  0  0  0  0  0  0  0  0  0  0
   22.2872   18.8980   24.1934 H   0  0  0  0  0  0  0  0  0  0  0  0
   20.1803   19.0984   24.6415 C   0  0  0  0  0  0  0  0  0  0  0  0
   20.0334   18.0459   24.9199 H   0  0  0  0  0  0  0  0  0  0  0  0
   20.4330   19.6324   25.5677 H   0  0  0  0  0  0  0  0  0  0  0  0
   18.8637   19.6760   24.0721 C   0  0  0  0  0  0  0  0  0  0  0  0
   18.5554   19.1043   23.1872 H   0  0  0  0  0  0  0  0  0  0  0  0
   19.0288   20.7114   23.7440 H   0  0  0  0  0  0  0  0  0  0  0  0
   17.7274   19.6415   25.1159 C   0  0  0  0  0  0  0  0  0  0  0  0
   17.5610   18.6072   25.4476 H   0  0  0  0  0  0  0  0  0  0  0  0
   18.0215   20.2182   26.0037 H   0  0  0  0  0  0  0  0  0  0  0  0
   16.4143   20.2143   24.5455 C   0  0  0  0  0  0  0  0  0  0  0  0
   16.0790   19.6359   23.6746 H   0  0  0  0  0  0  0  0  0  0  0  0
   15.6180   20.1824   25.3005 H   0  0  0  0  0  0  0  0  0  0  0  0
   16.5442   21.2589   24.2338 H   0  0  0  0  0  0  0  0  0  0  0  0
  1  2  1  0  0  0  0
  1  3  2  0  0  0  0
  1  4  1  0  0  0  0
  4  5  1  0  0  0  0
  4  6  1  0  0  0  0
  4  7  1  0  0  0  0
  7  8  1  0  0  0  0
  7  9  1  0  0  0  0
  7 10  1  0  0  0  0
 10 11  1  0  0  0  0
 10 12  1  0  0  0  0
 10 13  1  0  0  0  0
 13 14  1  0  0  0  0
 13 15  1  0  0  0  0
 13 16  1  0  0  0  0
 16 17  1  0  0  0  0
 16 18  1  0  0  0  0
 16 19  1  0  0  0  0
 19 20  1  0  0  0  0
 19 21  1  0  0  0  0
 19 22  1  0  0  0  0
 22 23  1  0  0  0  0
 22 24  1  0  0  0  0
 22 25  1  0  0  0  0
M  END
> <VConfSearch Rank>
750

> <Conf_Id>
142

> <Delta U+W>
0.593

> <U+W>
-51.037

> <U>
8.903

> <W>
-59.940

> <W(PB)>
-62.418

> <W(SA)>
2.478

> <Valence>
8.305

> <Coulomb>
-0.223

> <VdW>
0.821

> <VdW6>
-9.236

> <VdW12>
10.057

> <Bond>
0.173

> <Angle>
2.663

> <Pdih>
5.469

> <Idih>
0.001

> <Tether>
0.000

$$$$
VeraChem MOL file


 25 24  0  0  0  0  0  0  0  0999 V2000     
   18.1440   17.4807   21.1585 C   0  0  0  0  0  0  0  0  0  0  0  0
   17.2722   16.6338   21.1725 O   0  5  0  0  0  0  0  0  0  0  0  0
   18.0892   18.4905   20.4844 O   0  0  0  0  0  0  0  0  0  0  0  0
   19.3861   17.2473   22.0138 C   0  0  0  0  0  0  0  0  0  0  0  0
   20.1736   17.9350   21.6849 H   0  0  0  0  0  0  0  0  0  0  0  0
   19.7468   16.2353   21.7961 H   0  0  0  0  0  0  0  0  0  0  0  0
   19.1400   17.3882   23.5408 C   0  0  0  0  0  0  0  0  0  0  0  0
   18.3970   16.6394   23.8481 H   0  0  0  0  0  0  0  0  0  0  0  0
   20.0619   17.1356   24.0805 H   0  0  0  0  0  0  0  0  0  0  0  0
   18.6435   18.7891   23.9831 C   0  0  0  0  0  0  0  0  0  0  0  0
   18.4945   18.7830   25.0714 H   0  0  0  0  0  0  0  0  0  0  0  0
   17.6530   18.9722   23.5445 H   0  0  0  0  0  0  0  0  0  0  0  0
   19.5752   19.9696   23.6109 C   0  0  0  0  0  0  0  0  0  0  0  0
   19.6456   20.0597   22.5186 H   0  0  0  0  0  0  0  0  0  0  0  0
   19.1095   20.9005   23.9618 H   0  0  0  0  0  0  0  0  0  0  0  0
   20.9916   19.8554   24.2204 C   0  0  0  0  0  0  0  0  0  0  0  0
   21.4986   18.9667   23.8224 H   0  0  0  0  0  0  0  0  0  0  0  0
   20.9135   19.7213   25.3079 H   0  0  0  0  0  0  0  0  0  0  0  0
   21.8466   21.1030   23.9142 C   0  0  0  0  0  0  0  0  0  0  0  0
   21.9237   21.2404   22.8267 H   0  0  0  0  0  0  0  0  0  0  0  0
   21.3525   21.9988   24.3151 H   0  0  0  0  0  0  0  0  0  0  0  0
   23.2607   20.9849   24.5176 C   0  0  0  0  0  0  0  0  0  0  0  0
   23.7904   20.1142   24.1093 H   0  0  0  0  0  0  0  0  0  0  0  0
   23.8543   21.8799   24.2905 H   0  0  0  0  0  0  0  0  0  0  0  0
   23.2141   20.8769   25.6092 H   0  0  0  0  0  0  0  0  0  0  0  0
  1  2  1  0  0  0  0
  1  3  2  0  0  0  0
  1  4  1  0  0  0  0
  4  5  1  0  0  0  0
  4  6  1  0  0  0  0
  4  7  1  0  0  0  0
  7  8  1  0  0  0  0
  7  9  1  0  0  0  0
  7 10  1  0  0  0  0
 10 11  1  0  0  0  0
 10 12  1  0  0  0  0
 10 13  1  0  0  0  0
 13 14  1  0  0  0  0
 13 15  1  0  0  0  0
 13 16  1  0  0  0  0
 16 17  1  0  0  0  0
 16 18  1  0  0  0  0
 16 19  1  0  0  0  0
 19 20  1  0  0  0  0
 19 21  1  0  0  0  0
 19 22  1  0  0  0  0
 22 23  1  0  0  0  0
 22 24  1  0  0  0  0
 22 25  1  0  0  0  0
M  END
> <VConfSearch Rank>
751

> <Conf_Id>
135

> <Delta U+W>
1.314

> <U+W>
-50.316

> <U>
9.773

> <W>
-60.088

> <W(PB)>
-62.535

> <W(SA)>
2.447

> <Valence>
8.741

> <Coulomb>
0.479

> <VdW>
0.552

> <VdW6>
-10.627

> <VdW12>
11.179

> <Bond>
0.227

> <Angle>
3.155

> <Pdih>
5.358

> <Idih>
0.001

> <Tether>
0.000

$$$$
VeraChem MOL file


 25 24  0  0  0  0  0  0  0  0999 V2000     
   16.0472   18.1272   23.7507 C   0  0  0  0  0  0  0  0  0  0  0  0
   15.2928   19.0794   23.7833 O   0  5  0  0  0  0  0  0  0  0  0  0
   15.6883   16.9922   23.5065 O   0  0  0  0  0  0  0  0  0  0  0  0
   17.5295   18.3738   24.0079 C   0  0  0  0  0  0  0  0  0  0  0  0
   17.9453   17.4776   24.4837 H   0  0  0  0  0  0  0  0  0  0  0  0
   17.6093   19.1929   24.7309 H   0  0  0  0  0  0  0  0  0  0  0  0
   18.3153   18.7052   22.7124 C   0  0  0  0  0  0  0  0  0  0  0  0
   18.1316   17.9085   21.9782 H   0  0  0  0  0  0  0  0  0  0  0  0
   17.9224   19.6308   22.2696 H   0  0  0  0  0  0  0  0  0  0  0  0
   19.8424   18.8345   22.9277 C   0  0  0  0  0  0  0  0  0  0  0  0
   20.3158   18.9118   21.9408 H   0  0  0  0  0  0  0  0  0  0  0  0
   20.2290   17.9178   23.3935 H   0  0  0  0  0  0  0  0  0  0  0  0
   20.2436   20.0647   23.7762 C   0  0  0  0  0  0  0  0  0  0  0  0
   19.9046   20.9804   23.2731 H   0  0  0  0  0  0  0  0  0  0  0  0
   19.7218   20.0316   24.7406 H   0  0  0  0  0  0  0  0  0  0  0  0
   21.7626   20.1688   24.0648 C   0  0  0  0  0  0  0  0  0  0  0  0
   22.0944   19.3006   24.6506 H   0  0  0  0  0  0  0  0  0  0  0  0
   21.9159   21.0419   24.7138 H   0  0  0  0  0  0  0  0  0  0  0  0
   22.6527   20.3406   22.8085 C   0  0  0  0  0  0  0  0  0  0  0  0
   22.0823   20.8165   21.9990 H   0  0  0  0  0  0  0  0  0  0  0  0
   23.4728   21.0308   23.0502 H   0  0  0  0  0  0  0  0  0  0  0  0
   23.2742   19.0137   22.3183 C   0  0  0  0  0  0  0  0  0  0  0  0
   22.5073   18.2782   22.0502 H   0  0  0  0  0  0  0  0  0  0  0  0
   23.8982   19.1862   21.4319 H   0  0  0  0  0  0  0  0  0  0  0  0
   23.9104   18.5706   23.0955 H   0  0  0  0  0  0  0  0  0  0  0  0
  1  2  1  0  0  0  0
  1  3  2  0  0  0  0
  1  4  1  0  0  0  0
  4  5  1  0  0  0  0
  4  6  1  0  0  0  0
  4  7  1  0  0  0  0
  7  8  1  0  0  0  0
  7  9  1  0  0  0  0
  7 10  1  0  0  0  0
 10 11  1  0  0  0  0
 10 12  1  0  0  0  0
 10 13  1  0  0  0  0
 13 14  1  0  0  0  0
 13 15  1  0  0  0  0
 13 16  1  0  0  0  0
 16 17  1  0  0  0  0
 16 18  1  0  0  0  0
 16 19  1  0  0  0  0
 19 20  1  0  0  0  0
 19 21  1  0  0  0  0
 19 22  1  0  0  0  0
 22 23  1  0  0  0  0
 22 24  1  0  0  0  0
 22 25  1  0  0  0  0
M  END
> <VConfSearch Rank>
752

> <Conf_Id>
19

> <Delta U+W>
3.222

> <U+W>
-48.407

> <U>
10.617

> <W>
-59.025

> <W(PB)>
-61.462

> <W(SA)>
2.437

> <Valence>
11.188

> <Coulomb>
-1.778

> <VdW>
1.208

> <VdW6>
-9.786

> <VdW12>
10.993

> <Bond>
0.241

> <Angle>
3.294

> <Pdih>
7.653

> <Idih>
0.001

> <Tether>
0.000

$$$$
VeraChem MOL file


 25 24  0  0  0  0  0  0  0  0999 V2000     
   22.4953   20.0464   26.6152 C   0  0  0  0  0  0  0  0  0  0  0  0
   22.9101   19.0534   27.1797 O   0  5  0  0  0  0  0  0  0  0  0  0
   22.4406   21.1431   27.1359 O   0  0  0  0  0  0  0  0  0  0  0  0
   21.9941   19.9040   25.1825 C   0  0  0  0  0  0  0  0  0  0  0  0
   22.5975   19.1304   24.6950 H   0  0  0  0  0  0  0  0  0  0  0  0
   22.1892   20.8475   24.6590 H   0  0  0  0  0  0  0  0  0  0  0  0
   20.4852   19.5528   25.1078 C   0  0  0  0  0  0  0  0  0  0  0  0
   20.3080   18.5829   25.5929 H   0  0  0  0  0  0  0  0  0  0  0  0
   19.9235   20.2970   25.6894 H   0  0  0  0  0  0  0  0  0  0  0  0
   19.9235   19.5279   23.6660 C   0  0  0  0  0  0  0  0  0  0  0  0
   20.1240   20.4895   23.1745 H   0  0  0  0  0  0  0  0  0  0  0  0
   18.8328   19.4274   23.7316 H   0  0  0  0  0  0  0  0  0  0  0  0
   20.4847   18.3707   22.8055 C   0  0  0  0  0  0  0  0  0  0  0  0
   21.5804   18.4231   22.7893 H   0  0  0  0  0  0  0  0  0  0  0  0
   20.2284   17.4108   23.2740 H   0  0  0  0  0  0  0  0  0  0  0  0
   19.9905   18.3742   21.3367 C   0  0  0  0  0  0  0  0  0  0  0  0
   20.4941   17.5476   20.8172 H   0  0  0  0  0  0  0  0  0  0  0  0
   20.3231   19.2906   20.8303 H   0  0  0  0  0  0  0  0  0  0  0  0
   18.4618   18.1907   21.1649 C   0  0  0  0  0  0  0  0  0  0  0  0
   18.2799   17.5652   20.2801 H   0  0  0  0  0  0  0  0  0  0  0  0
   18.0453   17.6391   22.0190 H   0  0  0  0  0  0  0  0  0  0  0  0
   17.7080   19.5252   20.9693 C   0  0  0  0  0  0  0  0  0  0  0  0
   18.0644   20.0463   20.0712 H   0  0  0  0  0  0  0  0  0  0  0  0
   16.6322   19.3444   20.8476 H   0  0  0  0  0  0  0  0  0  0  0  0
   17.8401   20.1978   21.8244 H   0  0  0  0  0  0  0  0  0  0  0  0
  1  2  1  0  0  0  0
  1  3  2  0  0  0  0
  1  4  1  0  0  0  0
  4  5  1  0  0  0  0
  4  6  1  0  0  0  0
  4  7  1  0  0  0  0
  7  8  1  0  0  0  0
  7  9  1  0  0  0  0
  7 10  1  0  0  0  0
 10 11  1  0  0  0  0
 10 12  1  0  0  0  0
 10 13  1  0  0  0  0
 13 14  1  0  0  0  0
 13 15  1  0  0  0  0
 13 16  1  0  0  0  0
 16 17  1  0  0  0  0
 16 18  1  0  0  0  0
 16 19  1  0  0  0  0
 19 20  1  0  0  0  0
 19 21  1  0  0  0  0
 19 22  1  0  0  0  0
 22 23  1  0  0  0  0
 22 24  1  0  0  0  0
 22 25  1  0  0  0  0
M  END
> <VConfSearch Rank>
753

> <Conf_Id>
20

> <Delta U+W>
3.224

> <U+W>
-48.406

> <U>
10.617

> <W>
-59.023

> <W(PB)>
-61.467

> <W(SA)>
2.444

> <Valence>
11.188

> <Coulomb>
-1.778

> <VdW>
1.208

> <VdW6>
-9.786

> <VdW12>
10.993

> <Bond>
0.241

> <Angle>
3.294

> <Pdih>
7.653

> <Idih>
0.001

> <Tether>
0.000

$$$$
VeraChem MOL file


 25 24  0  0  0  0  0  0  0  0999 V2000     
   18.8719   22.1197   24.6180 C   0  0  0  0  0  0  0  0  0  0  0  0
   17.9485   22.4379   23.8942 O   0  5  0  0  0  0  0  0  0  0  0  0
   19.9921   22.5804   24.5178 O   0  0  0  0  0  0  0  0  0  0  0  0
   18.5962   21.1388   25.7561 C   0  0  0  0  0  0  0  0  0  0  0  0
   17.8762   21.6315   26.4197 H   0  0  0  0  0  0  0  0  0  0  0  0
   19.5155   21.0004   26.3380 H   0  0  0  0  0  0  0  0  0  0  0  0
   18.0221   19.7613   25.3203 C   0  0  0  0  0  0  0  0  0  0  0  0
   17.5335   19.3064   26.1924 H   0  0  0  0  0  0  0  0  0  0  0  0
   17.2305   19.9054   24.5718 H   0  0  0  0  0  0  0  0  0  0  0  0
   19.0755   18.7561   24.7922 C   0  0  0  0  0  0  0  0  0  0  0  0
   18.5837   17.7824   24.6618 H   0  0  0  0  0  0  0  0  0  0  0  0
   19.8573   18.6079   25.5496 H   0  0  0  0  0  0  0  0  0  0  0  0
   19.7234   19.1686   23.4510 C   0  0  0  0  0  0  0  0  0  0  0  0
   18.9388   19.4180   22.7236 H   0  0  0  0  0  0  0  0  0  0  0  0
   20.3300   20.0720   23.5923 H   0  0  0  0  0  0  0  0  0  0  0  0
   20.6201   18.0479   22.8813 C   0  0  0  0  0  0  0  0  0  0  0  0
   20.0212   17.1398   22.7275 H   0  0  0  0  0  0  0  0  0  0  0  0
   21.4011   17.7965   23.6120 H   0  0  0  0  0  0  0  0  0  0  0  0
   21.2765   18.4631   21.5478 C   0  0  0  0  0  0  0  0  0  0  0  0
   20.4979   18.7145   20.8144 H   0  0  0  0  0  0  0  0  0  0  0  0
   21.8780   19.3704   21.6981 H   0  0  0  0  0  0  0  0  0  0  0  0
   22.1717   17.3424   20.9816 C   0  0  0  0  0  0  0  0  0  0  0  0
   21.5883   16.4318   20.7921 H   0  0  0  0  0  0  0  0  0  0  0  0
   22.6299   17.6547   20.0342 H   0  0  0  0  0  0  0  0  0  0  0  0
   22.9790   17.0927   21.6826 H   0  0  0  0  0  0  0  0  0  0  0  0
  1  2  1  0  0  0  0
  1  3  2  0  0  0  0
  1  4  1  0  0  0  0
  4  5  1  0  0  0  0
  4  6  1  0  0  0  0
  4  7  1  0  0  0  0
  7  8  1  0  0  0  0
  7  9  1  0  0  0  0
  7 10  1  0  0  0  0
 10 11  1  0  0  0  0
 10 12  1  0  0  0  0
 10 13  1  0  0  0  0
 13 14  1  0  0  0  0
 13 15  1  0  0  0  0
 13 16  1  0  0  0  0
 16 17  1  0  0  0  0
 16 18  1  0  0  0  0
 16 19  1  0  0  0  0
 19 20  1  0  0  0  0
 19 21  1  0  0  0  0
 19 22  1  0  0  0  0
 22 23  1  0  0  0  0
 22 24  1  0  0  0  0
 22 25  1  0  0  0  0
M  END
> <VConfSearch Rank>
754

> <Conf_Id>
24

> <Delta U+W>
1.784

> <U+W>
-49.846

> <U>
10.904

> <W>
-60.749

> <W(PB)>
-63.220

> <W(SA)>
2.471

> <Valence>
9.445

> <Coulomb>
0.780

> <VdW>
0.679

> <VdW6>
-10.008

> <VdW12>
10.687

> <Bond>
0.201

> <Angle>
3.198

> <Pdih>
6.039

> <Idih>
0.006

> <Tether>
0.000

$$$$
VeraChem MOL file


 25 24  0  0  0  0  0  0  0  0999 V2000     
   22.1301   18.9668   21.0558 C   0  0  0  0  0  0  0  0  0  0  0  0
   21.4588   19.2842   20.0934 O   0  5  0  0  0  0  0  0  0  0  0  0
   22.8944   19.7251   21.6198 O   0  0  0  0  0  0  0  0  0  0  0  0
   22.0611   17.5206   21.5427 C   0  0  0  0  0  0  0  0  0  0  0  0
   22.7597   17.3920   22.3783 H   0  0  0  0  0  0  0  0  0  0  0  0
   22.4374   16.9007   20.7209 H   0  0  0  0  0  0  0  0  0  0  0  0
   20.6440   17.0227   21.9441 C   0  0  0  0  0  0  0  0  0  0  0  0
   19.9084   17.3407   21.1921 H   0  0  0  0  0  0  0  0  0  0  0  0
   20.6496   15.9248   21.9153 H   0  0  0  0  0  0  0  0  0  0  0  0
   20.1795   17.4550   23.3571 C   0  0  0  0  0  0  0  0  0  0  0  0
   20.9130   17.1237   24.1048 H   0  0  0  0  0  0  0  0  0  0  0  0
   19.2446   16.9256   23.5864 H   0  0  0  0  0  0  0  0  0  0  0  0
   19.9386   18.9745   23.5039 C   0  0  0  0  0  0  0  0  0  0  0  0
   20.8895   19.5136   23.4083 H   0  0  0  0  0  0  0  0  0  0  0  0
   19.2867   19.3249   22.6918 H   0  0  0  0  0  0  0  0  0  0  0  0
   19.3007   19.3227   24.8664 C   0  0  0  0  0  0  0  0  0  0  0  0
   19.9515   18.9673   25.6771 H   0  0  0  0  0  0  0  0  0  0  0  0
   18.3428   18.7947   24.9700 H   0  0  0  0  0  0  0  0  0  0  0  0
   19.0703   20.8410   25.0187 C   0  0  0  0  0  0  0  0  0  0  0  0
   20.0267   21.3725   24.9174 H   0  0  0  0  0  0  0  0  0  0  0  0
   18.4190   21.1995   24.2095 H   0  0  0  0  0  0  0  0  0  0  0  0
   18.4337   21.1857   26.3801 C   0  0  0  0  0  0  0  0  0  0  0  0
   19.0799   20.8659   27.2081 H   0  0  0  0  0  0  0  0  0  0  0  0
   18.2772   22.2684   26.4710 H   0  0  0  0  0  0  0  0  0  0  0  0
   17.4599   20.6917   26.4948 H   0  0  0  0  0  0  0  0  0  0  0  0
  1  2  1  0  0  0  0
  1  3  2  0  0  0  0
  1  4  1  0  0  0  0
  4  5  1  0  0  0  0
  4  6  1  0  0  0  0
  4  7  1  0  0  0  0
  7  8  1  0  0  0  0
  7  9  1  0  0  0  0
  7 10  1  0  0  0  0
 10 11  1  0  0  0  0
 10 12  1  0  0  0  0
 10 13  1  0  0  0  0
 13 14  1  0  0  0  0
 13 15  1  0  0  0  0
 13 16  1  0  0  0  0
 16 17  1  0  0  0  0
 16 18  1  0  0  0  0
 16 19  1  0  0  0  0
 19 20  1  0  0  0  0
 19 21  1  0  0  0  0
 19 22  1  0  0  0  0
 22 23  1  0  0  0  0
 22 24  1  0  0  0  0
 22 25  1  0  0  0  0
M  END
> <VConfSearch Rank>
755

> <Conf_Id>
9

> <Delta U+W>
1.764

> <U+W>
-49.865

> <U>
10.902

> <W>
-60.768

> <W(PB)>
-63.223

> <W(SA)>
2.456

> <Valence>
9.445

> <Coulomb>
0.778

> <VdW>
0.679

> <VdW6>
-10.007

> <VdW12>
10.687

> <Bond>
0.201

> <Angle>
3.198

> <Pdih>
6.040

> <Idih>
0.006

> <Tether>
0.000

$$$$
VeraChem MOL file


 25 24  0  0  0  0  0  0  0  0999 V2000     
   20.6287   22.7994   23.3286 C   0  0  0  0  0  0  0  0  0  0  0  0
   20.8969   22.8121   24.5137 O   0  5  0  0  0  0  0  0  0  0  0  0
   20.9003   23.7068   22.5671 O   0  0  0  0  0  0  0  0  0  0  0  0
   19.9312   21.5685   22.7611 C   0  0  0  0  0  0  0  0  0  0  0  0
   19.2762   21.8973   21.9455 H   0  0  0  0  0  0  0  0  0  0  0  0
   19.2850   21.1596   23.5439 H   0  0  0  0  0  0  0  0  0  0  0  0
   20.9292   20.4992   22.2434 C   0  0  0  0  0  0  0  0  0  0  0  0
   21.5432   20.9625   21.4587 H   0  0  0  0  0  0  0  0  0  0  0  0
   21.6240   20.2108   23.0444 H   0  0  0  0  0  0  0  0  0  0  0  0
   20.2385   19.2429   21.6544 C   0  0  0  0  0  0  0  0  0  0  0  0
   20.8445   18.8840   20.8114 H   0  0  0  0  0  0  0  0  0  0  0  0
   19.2620   19.5093   21.2274 H   0  0  0  0  0  0  0  0  0  0  0  0
   20.0821   18.0650   22.6489 C   0  0  0  0  0  0  0  0  0  0  0  0
   19.6619   17.2081   22.1051 H   0  0  0  0  0  0  0  0  0  0  0  0
   21.0767   17.7542   22.9948 H   0  0  0  0  0  0  0  0  0  0  0  0
   19.1807   18.3772   23.8667 C   0  0  0  0  0  0  0  0  0  0  0  0
   18.2452   18.8322   23.5143 H   0  0  0  0  0  0  0  0  0  0  0  0
   19.6719   19.1172   24.5121 H   0  0  0  0  0  0  0  0  0  0  0  0
   18.8344   17.1267   24.7080 C   0  0  0  0  0  0  0  0  0  0  0  0
   18.1171   17.4143   25.4890 H   0  0  0  0  0  0  0  0  0  0  0  0
   18.3256   16.3843   24.0778 H   0  0  0  0  0  0  0  0  0  0  0  0
   20.0677   16.4819   25.3771 C   0  0  0  0  0  0  0  0  0  0  0  0
   20.6073   17.2129   25.9932 H   0  0  0  0  0  0  0  0  0  0  0  0
   19.7621   15.6518   26.0271 H   0  0  0  0  0  0  0  0  0  0  0  0
   20.7638   16.0805   24.6300 H   0  0  0  0  0  0  0  0  0  0  0  0
  1  2  1  0  0  0  0
  1  3  2  0  0  0  0
  1  4  1  0  0  0  0
  4  5  1  0  0  0  0
  4  6  1  0  0  0  0
  4  7  1  0  0  0  0
  7  8  1  0  0  0  0
  7  9  1  0  0  0  0
  7 10  1  0  0  0  0
 10 11  1  0  0  0  0
 10 12  1  0  0  0  0
 10 13  1  0  0  0  0
 13 14  1  0  0  0  0
 13 15  1  0  0  0  0
 13 16  1  0  0  0  0
 16 17  1  0  0  0  0
 16 18  1  0  0  0  0
 16 19  1  0  0  0  0
 19 20  1  0  0  0  0
 19 21  1  0  0  0  0
 19 22  1  0  0  0  0
 22 23  1  0  0  0  0
 22 24  1  0  0  0  0
 22 25  1  0  0  0  0
M  END
> <VConfSearch Rank>
756

> <Conf_Id>
89

> <Delta U+W>
2.903

> <U+W>
-48.726

> <U>
10.996

> <W>
-59.723

> <W(PB)>
-62.151

> <W(SA)>
2.428

> <Valence>
10.985

> <Coulomb>
-0.995

> <VdW>
1.006

> <VdW6>
-10.062

> <VdW12>
11.069

> <Bond>
0.238

> <Angle>
3.202

> <Pdih>
7.544

> <Idih>
0.001

> <Tether>
0.000

$$$$
VeraChem MOL file


 25 24  0  0  0  0  0  0  0  0999 V2000     
   19.0541   15.7737   24.0797 C   0  0  0  0  0  0  0  0  0  0  0  0
   20.1059   15.3134   24.4786 O   0  5  0  0  0  0  0  0  0  0  0  0
   18.0592   15.8701   24.7715 O   0  0  0  0  0  0  0  0  0  0  0  0
   18.9615   16.1925   22.6137 C   0  0  0  0  0  0  0  0  0  0  0  0
   18.2285   15.5231   22.1487 H   0  0  0  0  0  0  0  0  0  0  0  0
   19.9225   15.9934   22.1242 H   0  0  0  0  0  0  0  0  0  0  0  0
   18.5268   17.6653   22.3699 C   0  0  0  0  0  0  0  0  0  0  0  0
   18.1301   17.7354   21.3481 H   0  0  0  0  0  0  0  0  0  0  0  0
   17.6922   17.9255   23.0357 H   0  0  0  0  0  0  0  0  0  0  0  0
   19.6612   18.7115   22.5062 C   0  0  0  0  0  0  0  0  0  0  0  0
   19.2718   19.6722   22.1471 H   0  0  0  0  0  0  0  0  0  0  0  0
   20.4914   18.4453   21.8380 H   0  0  0  0  0  0  0  0  0  0  0  0
   20.1907   18.8820   23.9508 C   0  0  0  0  0  0  0  0  0  0  0  0
   19.3550   19.0882   24.6333 H   0  0  0  0  0  0  0  0  0  0  0  0
   20.6404   17.9389   24.2844 H   0  0  0  0  0  0  0  0  0  0  0  0
   21.2622   19.9901   24.0897 C   0  0  0  0  0  0  0  0  0  0  0  0
   22.0821   19.8005   23.3836 H   0  0  0  0  0  0  0  0  0  0  0  0
   21.6985   19.9245   25.0958 H   0  0  0  0  0  0  0  0  0  0  0  0
   20.7095   21.4183   23.8792 C   0  0  0  0  0  0  0  0  0  0  0  0
   20.3414   21.5361   22.8519 H   0  0  0  0  0  0  0  0  0  0  0  0
   19.8540   21.5866   24.5477 H   0  0  0  0  0  0  0  0  0  0  0  0
   21.7879   22.4870   24.1493 C   0  0  0  0  0  0  0  0  0  0  0  0
   22.6450   22.3586   23.4752 H   0  0  0  0  0  0  0  0  0  0  0  0
   21.3816   23.4947   23.9929 H   0  0  0  0  0  0  0  0  0  0  0  0
   22.1524   22.4256   25.1831 H   0  0  0  0  0  0  0  0  0  0  0  0
  1  2  1  0  0  0  0
  1  3  2  0  0  0  0
  1  4  1  0  0  0  0
  4  5  1  0  0  0  0
  4  6  1  0  0  0  0
  4  7  1  0  0  0  0
  7  8  1  0  0  0  0
  7  9  1  0  0  0  0
  7 10  1  0  0  0  0
 10 11  1  0  0  0  0
 10 12  1  0  0  0  0
 10 13  1  0  0  0  0
 13 14  1  0  0  0  0
 13 15  1  0  0  0  0
 13 16  1  0  0  0  0
 16 17  1  0  0  0  0
 16 18  1  0  0  0  0
 16 19  1  0  0  0  0
 19 20  1  0  0  0  0
 19 21  1  0  0  0  0
 19 22  1  0  0  0  0
 22 23  1  0  0  0  0
 22 24  1  0  0  0  0
 22 25  1  0  0  0  0
M  END
> <VConfSearch Rank>
757

> <Conf_Id>
114

> <Delta U+W>
2.758

> <U+W>
-48.871

> <U>
11.422

> <W>
-60.293

> <W(PB)>
-62.719

> <W(SA)>
2.425

> <Valence>
10.135

> <Coulomb>
0.369

> <VdW>
0.918

> <VdW6>
-10.482

> <VdW12>
11.400

> <Bond>
0.245

> <Angle>
3.539

> <Pdih>
6.346

> <Idih>
0.006

> <Tether>
0.000

$$$$
VeraChem MOL file


 25 24  0  0  0  0  0  0  0  0999 V2000     
   18.4290   15.8069   22.5438 C   0  0  0  0  0  0  0  0  0  0  0  0
   18.4567   15.1466   23.5638 O   0  5  0  0  0  0  0  0  0  0  0  0
   17.4020   16.1743   22.0079 O   0  0  0  0  0  0  0  0  0  0  0  0
   19.7554   16.1788   21.8870 C   0  0  0  0  0  0  0  0  0  0  0  0
   19.6550   15.9863   20.8124 H   0  0  0  0  0  0  0  0  0  0  0  0
   20.5327   15.5008   22.2596 H   0  0  0  0  0  0  0  0  0  0  0  0
   20.1770   17.6542   22.1121 C   0  0  0  0  0  0  0  0  0  0  0  0
   21.0656   17.8680   21.5031 H   0  0  0  0  0  0  0  0  0  0  0  0
   19.3763   18.3112   21.7480 H   0  0  0  0  0  0  0  0  0  0  0  0
   20.4890   17.9603   23.5967 C   0  0  0  0  0  0  0  0  0  0  0  0
   21.2233   17.2301   23.9635 H   0  0  0  0  0  0  0  0  0  0  0  0
   19.5848   17.8211   24.2052 H   0  0  0  0  0  0  0  0  0  0  0  0
   21.0537   19.3820   23.8303 C   0  0  0  0  0  0  0  0  0  0  0  0
   21.3777   19.4499   24.8766 H   0  0  0  0  0  0  0  0  0  0  0  0
   21.9525   19.5269   23.2158 H   0  0  0  0  0  0  0  0  0  0  0  0
   20.0314   20.5074   23.5353 C   0  0  0  0  0  0  0  0  0  0  0  0
   19.1312   20.3600   24.1475 H   0  0  0  0  0  0  0  0  0  0  0  0
   19.7098   20.4436   22.4882 H   0  0  0  0  0  0  0  0  0  0  0  0
   20.5943   21.9277   23.7766 C   0  0  0  0  0  0  0  0  0  0  0  0
   21.5016   22.0746   23.1745 H   0  0  0  0  0  0  0  0  0  0  0  0
   19.8609   22.6621   23.4159 H   0  0  0  0  0  0  0  0  0  0  0  0
   20.9011   22.2232   25.2610 C   0  0  0  0  0  0  0  0  0  0  0  0
   21.2046   23.2703   25.3887 H   0  0  0  0  0  0  0  0  0  0  0  0
   20.0164   22.0493   25.8873 H   0  0  0  0  0  0  0  0  0  0  0  0
   21.7178   21.5938   25.6356 H   0  0  0  0  0  0  0  0  0  0  0  0
  1  2  1  0  0  0  0
  1  3  2  0  0  0  0
  1  4  1  0  0  0  0
  4  5  1  0  0  0  0
  4  6  1  0  0  0  0
  4  7  1  0  0  0  0
  7  8  1  0  0  0  0
  7  9  1  0  0  0  0
  7 10  1  0  0  0  0
 10 11  1  0  0  0  0
 10 12  1  0  0  0  0
 10 13  1  0  0  0  0
 13 14  1  0  0  0  0
 13 15  1  0  0  0  0
 13 16  1  0  0  0  0
 16 17  1  0  0  0  0
 16 18  1  0  0  0  0
 16 19  1  0  0  0  0
 19 20  1  0  0  0  0
 19 21  1  0  0  0  0
 19 22  1  0  0  0  0
 22 23  1  0  0  0  0
 22 24  1  0  0  0  0
 22 25  1  0  0  0  0
M  END
> <VConfSearch Rank>
758

> <Conf_Id>
87

> <Delta U+W>
1.453

> <U+W>
-50.176

> <U>
9.763

> <W>
-59.940

> <W(PB)>
-62.392

> <W(SA)>
2.452

> <Valence>
8.883

> <Coulomb>
-0.122

> <VdW>
1.003

> <VdW6>
-9.782

> <VdW12>
10.785

> <Bond>
0.212

> <Angle>
2.940

> <Pdih>
5.730

> <Idih>
0.001

> <Tether>
0.000

$$$$
VeraChem MOL file


 25 24  0  0  0  0  0  0  0  0999 V2000     
   16.7456   19.1569   21.1796 C   0  0  0  0  0  0  0  0  0  0  0  0
   16.1986   18.1311   21.5335 O   0  5  0  0  0  0  0  0  0  0  0  0
   16.1453   20.1586   20.8434 O   0  0  0  0  0  0  0  0  0  0  0  0
   18.2696   19.1954   21.1746 C   0  0  0  0  0  0  0  0  0  0  0  0
   18.5910   19.8562   20.3606 H   0  0  0  0  0  0  0  0  0  0  0  0
   18.6352   18.1887   20.9389 H   0  0  0  0  0  0  0  0  0  0  0  0
   18.8634   19.6770   22.5212 C   0  0  0  0  0  0  0  0  0  0  0  0
   18.4822   20.6822   22.7481 H   0  0  0  0  0  0  0  0  0  0  0  0
   18.5122   19.0127   23.3219 H   0  0  0  0  0  0  0  0  0  0  0  0
   20.4091   19.6998   22.4912 C   0  0  0  0  0  0  0  0  0  0  0  0
   20.7410   20.3127   21.6422 H   0  0  0  0  0  0  0  0  0  0  0  0
   20.7922   18.6880   22.3043 H   0  0  0  0  0  0  0  0  0  0  0  0
   21.0425   20.2731   23.7837 C   0  0  0  0  0  0  0  0  0  0  0  0
   22.1326   20.3098   23.6581 H   0  0  0  0  0  0  0  0  0  0  0  0
   20.7221   21.3170   23.9021 H   0  0  0  0  0  0  0  0  0  0  0  0
   20.7040   19.5011   25.0865 C   0  0  0  0  0  0  0  0  0  0  0  0
   19.6323   19.6032   25.3014 H   0  0  0  0  0  0  0  0  0  0  0  0
   21.2217   19.9863   25.9250 H   0  0  0  0  0  0  0  0  0  0  0  0
   21.0727   17.9970   25.0765 C   0  0  0  0  0  0  0  0  0  0  0  0
   20.7653   17.5547   26.0339 H   0  0  0  0  0  0  0  0  0  0  0  0
   20.4985   17.4724   24.3013 H   0  0  0  0  0  0  0  0  0  0  0  0
   22.5814   17.7400   24.8717 C   0  0  0  0  0  0  0  0  0  0  0  0
   23.1761   18.2694   25.6274 H   0  0  0  0  0  0  0  0  0  0  0  0
   22.8035   16.6684   24.9555 H   0  0  0  0  0  0  0  0  0  0  0  0
   22.9110   18.0718   23.8792 H   0  0  0  0  0  0  0  0  0  0  0  0
  1  2  1  0  0  0  0
  1  3  2  0  0  0  0
  1  4  1  0  0  0  0
  4  5  1  0  0  0  0
  4  6  1  0  0  0  0
  4  7  1  0  0  0  0
  7  8  1  0  0  0  0
  7  9  1  0  0  0  0
  7 10  1  0  0  0  0
 10 11  1  0  0  0  0
 10 12  1  0  0  0  0
 10 13  1  0  0  0  0
 13 14  1  0  0  0  0
 13 15  1  0  0  0  0
 13 16  1  0  0  0  0
 16 17  1  0  0  0  0
 16 18  1  0  0  0  0
 16 19  1  0  0  0  0
 19 20  1  0  0  0  0
 19 21  1  0  0  0  0
 19 22  1  0  0  0  0
 22 23  1  0  0  0  0
 22 24  1  0  0  0  0
 22 25  1  0  0  0  0
M  END
> <VConfSearch Rank>
759

> <Conf_Id>
29

> <Delta U+W>
0.850

> <U+W>
-50.780

> <U>
8.646

> <W>
-59.426

> <W(PB)>
-61.868

> <W(SA)>
2.442

> <Valence>
8.924

> <Coulomb>
-1.171

> <VdW>
0.894

> <VdW6>
-10.223

> <VdW12>
11.117

> <Bond>
0.231

> <Angle>
3.232

> <Pdih>
5.461

> <Idih>
0.001

> <Tether>
0.000

$$$$
VeraChem MOL file


 25 24  0  0  0  0  0  0  0  0999 V2000     
   18.5561   15.6722   24.4960 C   0  0  0  0  0  0  0  0  0  0  0  0
   17.8057   15.9941   25.3959 O   0  5  0  0  0  0  0  0  0  0  0  0
   19.1668   14.6218   24.4718 O   0  0  0  0  0  0  0  0  0  0  0  0
   18.7572   16.6484   23.3424 C   0  0  0  0  0  0  0  0  0  0  0  0
   17.8215   17.2014   23.1969 H   0  0  0  0  0  0  0  0  0  0  0  0
   18.9353   16.0660   22.4305 H   0  0  0  0  0  0  0  0  0  0  0  0
   19.9270   17.6336   23.5854 C   0  0  0  0  0  0  0  0  0  0  0  0
   19.7359   18.1898   24.5127 H   0  0  0  0  0  0  0  0  0  0  0  0
   20.8552   17.0657   23.7376 H   0  0  0  0  0  0  0  0  0  0  0  0
   20.1042   18.6161   22.4048 C   0  0  0  0  0  0  0  0  0  0  0  0
   19.1912   19.2124   22.2772 H   0  0  0  0  0  0  0  0  0  0  0  0
   20.2246   18.0412   21.4765 H   0  0  0  0  0  0  0  0  0  0  0  0
   21.3283   19.5529   22.5606 C   0  0  0  0  0  0  0  0  0  0  0  0
   22.2404   18.9416   22.5908 H   0  0  0  0  0  0  0  0  0  0  0  0
   21.4169   20.1733   21.6591 H   0  0  0  0  0  0  0  0  0  0  0  0
   21.3059   20.4701   23.8120 C   0  0  0  0  0  0  0  0  0  0  0  0
   22.2082   21.0965   23.8026 H   0  0  0  0  0  0  0  0  0  0  0  0
   21.3836   19.8528   24.7165 H   0  0  0  0  0  0  0  0  0  0  0  0
   20.0641   21.3871   23.9354 C   0  0  0  0  0  0  0  0  0  0  0  0
   19.1547   20.7799   24.0362 H   0  0  0  0  0  0  0  0  0  0  0  0
   20.1473   21.9661   24.8653 H   0  0  0  0  0  0  0  0  0  0  0  0
   19.9088   22.3666   22.7520 C   0  0  0  0  0  0  0  0  0  0  0  0
   19.7162   21.8308   21.8140 H   0  0  0  0  0  0  0  0  0  0  0  0
   19.0662   23.0483   22.9253 H   0  0  0  0  0  0  0  0  0  0  0  0
   20.8145   22.9732   22.6229 H   0  0  0  0  0  0  0  0  0  0  0  0
  1  2  1  0  0  0  0
  1  3  2  0  0  0  0
  1  4  1  0  0  0  0
  4  5  1  0  0  0  0
  4  6  1  0  0  0  0
  4  7  1  0  0  0  0
  7  8  1  0  0  0  0
  7  9  1  0  0  0  0
  7 10  1  0  0  0  0
 10 11  1  0  0  0  0
 10 12  1  0  0  0  0
 10 13  1  0  0  0  0
 13 14  1  0  0  0  0
 13 15  1  0  0  0  0
 13 16  1  0  0  0  0
 16 17  1  0  0  0  0
 16 18  1  0  0  0  0
 16 19  1  0  0  0  0
 19 20  1  0  0  0  0
 19 21  1  0  0  0  0
 19 22  1  0  0  0  0
 22 23  1  0  0  0  0
 22 24  1  0  0  0  0
 22 25  1  0  0  0  0
M  END
> <VConfSearch Rank>
760

> <Conf_Id>
30

> <Delta U+W>
0.843

> <U+W>
-50.787

> <U>
8.647

> <W>
-59.434

> <W(PB)>
-61.861

> <W(SA)>
2.428

> <Valence>
8.924

> <Coulomb>
-1.170

> <VdW>
0.894

> <VdW6>
-10.224

> <VdW12>
11.118

> <Bond>
0.231

> <Angle>
3.232

> <Pdih>
5.460

> <Idih>
0.000

> <Tether>
0.000

$$$$
VeraChem MOL file


 25 24  0  0  0  0  0  0  0  0999 V2000     
   19.5762   16.4549   26.9340 C   0  0  0  0  0  0  0  0  0  0  0  0
   18.4237   16.7944   27.1214 O   0  5  0  0  0  0  0  0  0  0  0  0
   20.1589   15.6621   27.6467 O   0  0  0  0  0  0  0  0  0  0  0  0
   20.3559   17.0364   25.7536 C   0  0  0  0  0  0  0  0  0  0  0  0
   20.6962   16.1941   25.1399 H   0  0  0  0  0  0  0  0  0  0  0  0
   21.2519   17.5200   26.1602 H   0  0  0  0  0  0  0  0  0  0  0  0
   19.5700   18.0437   24.8727 C   0  0  0  0  0  0  0  0  0  0  0  0
   18.6704   17.5547   24.4739 H   0  0  0  0  0  0  0  0  0  0  0  0
   19.2267   18.8818   25.4951 H   0  0  0  0  0  0  0  0  0  0  0  0
   20.4296   18.5801   23.7073 C   0  0  0  0  0  0  0  0  0  0  0  0
   20.7717   17.7407   23.0865 H   0  0  0  0  0  0  0  0  0  0  0  0
   21.3283   19.0686   24.1083 H   0  0  0  0  0  0  0  0  0  0  0  0
   19.6458   19.5819   22.8323 C   0  0  0  0  0  0  0  0  0  0  0  0
   18.7470   19.0937   22.4311 H   0  0  0  0  0  0  0  0  0  0  0  0
   19.3036   20.4216   23.4528 H   0  0  0  0  0  0  0  0  0  0  0  0
   20.5047   20.1186   21.6669 C   0  0  0  0  0  0  0  0  0  0  0  0
   20.8470   19.2792   21.0462 H   0  0  0  0  0  0  0  0  0  0  0  0
   21.4035   20.6070   22.0679 H   0  0  0  0  0  0  0  0  0  0  0  0
   19.7214   21.1200   20.7922 C   0  0  0  0  0  0  0  0  0  0  0  0
   18.8224   20.6344   20.3877 H   0  0  0  0  0  0  0  0  0  0  0  0
   19.3790   21.9622   21.4093 H   0  0  0  0  0  0  0  0  0  0  0  0
   20.5824   21.6536   19.6296 C   0  0  0  0  0  0  0  0  0  0  0  0
   20.9128   20.8345   18.9774 H   0  0  0  0  0  0  0  0  0  0  0  0
   20.0101   22.3636   19.0185 H   0  0  0  0  0  0  0  0  0  0  0  0
   21.4735   22.1723   20.0067 H   0  0  0  0  0  0  0  0  0  0  0  0
  1  2  1  0  0  0  0
  1  3  2  0  0  0  0
  1  4  1  0  0  0  0
  4  5  1  0  0  0  0
  4  6  1  0  0  0  0
  4  7  1  0  0  0  0
  7  8  1  0  0  0  0
  7  9  1  0  0  0  0
  7 10  1  0  0  0  0
 10 11  1  0  0  0  0
 10 12  1  0  0  0  0
 10 13  1  0  0  0  0
 13 14  1  0  0  0  0
 13 15  1  0  0  0  0
 13 16  1  0  0  0  0
 16 17  1  0  0  0  0
 16 18  1  0  0  0  0
 16 19  1  0  0  0  0
 19 20  1  0  0  0  0
 19 21  1  0  0  0  0
 19 22  1  0  0  0  0
 22 23  1  0  0  0  0
 22 24  1  0  0  0  0
 22 25  1  0  0  0  0
M  END
> <VConfSearch Rank>
761

> <Conf_Id>
0

> <Delta U+W>
0.000

> <U+W>
-51.629

> <U>
6.586

> <W>
-58.216

> <W(PB)>
-60.757

> <W(SA)>
2.541

> <Valence>
8.027

> <Coulomb>
-2.892

> <VdW>
1.451

> <VdW6>
-7.931

> <VdW12>
9.383

> <Bond>
0.149

> <Angle>
2.726

> <Pdih>
5.152

> <Idih>
0.000

> <Tether>
0.000

$$$$
VeraChem MOL file


 25 24  0  0  0  0  0  0  0  0999 V2000     
   16.7115   22.1059   24.3541 C   0  0  0  0  0  0  0  0  0  0  0  0
   16.6583   22.3495   25.5435 O   0  5  0  0  0  0  0  0  0  0  0  0
   16.4055   22.9027   23.4892 O   0  0  0  0  0  0  0  0  0  0  0  0
   17.2119   20.7321   23.9225 C   0  0  0  0  0  0  0  0  0  0  0  0
   16.7002   20.4602   22.9915 H   0  0  0  0  0  0  0  0  0  0  0  0
   16.9079   20.0041   24.6842 H   0  0  0  0  0  0  0  0  0  0  0  0
   18.7467   20.6869   23.7220 C   0  0  0  0  0  0  0  0  0  0  0  0
   19.0361   21.4304   22.9663 H   0  0  0  0  0  0  0  0  0  0  0  0
   19.2437   20.9744   24.6590 H   0  0  0  0  0  0  0  0  0  0  0  0
   19.2285   19.2863   23.2857 C   0  0  0  0  0  0  0  0  0  0  0  0
   18.7291   19.0014   22.3494 H   0  0  0  0  0  0  0  0  0  0  0  0
   18.9366   18.5453   24.0425 H   0  0  0  0  0  0  0  0  0  0  0  0
   20.7589   19.2443   23.0868 C   0  0  0  0  0  0  0  0  0  0  0  0
   21.0511   19.9852   22.3300 H   0  0  0  0  0  0  0  0  0  0  0  0
   21.2586   19.5291   24.0229 H   0  0  0  0  0  0  0  0  0  0  0  0
   21.2415   17.8440   22.6505 C   0  0  0  0  0  0  0  0  0  0  0  0
   20.7421   17.5589   21.7143 H   0  0  0  0  0  0  0  0  0  0  0  0
   20.9494   17.1029   23.4071 H   0  0  0  0  0  0  0  0  0  0  0  0
   22.7712   17.8017   22.4517 C   0  0  0  0  0  0  0  0  0  0  0  0
   23.0669   18.5406   21.6940 H   0  0  0  0  0  0  0  0  0  0  0  0
   23.2742   18.0846   23.3868 H   0  0  0  0  0  0  0  0  0  0  0  0
   23.2490   16.4019   22.0161 C   0  0  0  0  0  0  0  0  0  0  0  0
   24.3382   16.3901   21.8794 H   0  0  0  0  0  0  0  0  0  0  0  0
   22.9940   15.6471   22.7714 H   0  0  0  0  0  0  0  0  0  0  0  0
   22.7851   16.1066   21.0659 H   0  0  0  0  0  0  0  0  0  0  0  0
  1  2  1  0  0  0  0
  1  3  2  0  0  0  0
  1  4  1  0  0  0  0
  4  5  1  0  0  0  0
  4  6  1  0  0  0  0
  4  7  1  0  0  0  0
  7  8  1  0  0  0  0
  7  9  1  0  0  0  0
  7 10  1  0  0  0  0
 10 11  1  0  0  0  0
 10 12  1  0  0  0  0
 10 13  1  0  0  0  0
 13 14  1  0  0  0  0
 13 15  1  0  0  0  0
 13 16  1  0  0  0  0
 16 17  1  0  0  0  0
 16 18  1  0  0  0  0
 16 19  1  0  0  0  0
 19 20  1  0  0  0  0
 19 21  1  0  0  0  0
 19 22  1  0  0  0  0
 22 23  1  0  0  0  0
 22 24  1  0  0  0  0
 22 25  1  0  0  0  0
M  END
> <VConfSearch Rank>
762

> <Conf_Id>
27

> <Delta U+W>
-1.297

> <U+W>
-52.926

> <U>
5.617

> <W>
-58.543

> <W(PB)>
-61.065

> <W(SA)>
2.522

> <Valence>
7.531

> <Coulomb>
-2.818

> <VdW>
0.904

> <VdW6>
-7.640

> <VdW12>
8.544

> <Bond>
0.115

> <Angle>
2.271

> <Pdih>
5.144

> <Idih>
0.001

> <Tether>
0.000

$$$$
VeraChem MOL file


 25 24  0  0  0  0  0  0  0  0999 V2000     
   20.6414   19.5695   19.3626 C   0  0  0  0  0  0  0  0  0  0  0  0
   21.5125   20.3595   19.0557 O   0  5  0  0  0  0  0  0  0  0  0  0
   20.6986   18.3791   19.1250 O   0  0  0  0  0  0  0  0  0  0  0  0
   19.4008   20.1070   20.0704 C   0  0  0  0  0  0  0  0  0  0  0  0
   18.5932   19.3721   19.9677 H   0  0  0  0  0  0  0  0  0  0  0  0
   19.0809   21.0074   19.5328 H   0  0  0  0  0  0  0  0  0  0  0  0
   19.6269   20.4493   21.5659 C   0  0  0  0  0  0  0  0  0  0  0  0
   20.4564   21.1647   21.6542 H   0  0  0  0  0  0  0  0  0  0  0  0
   18.7320   20.9532   21.9555 H   0  0  0  0  0  0  0  0  0  0  0  0
   19.9212   19.1983   22.4239 C   0  0  0  0  0  0  0  0  0  0  0  0
   20.8257   18.6980   22.0511 H   0  0  0  0  0  0  0  0  0  0  0  0
   19.0956   18.4806   22.3217 H   0  0  0  0  0  0  0  0  0  0  0  0
   20.1111   19.5581   23.9132 C   0  0  0  0  0  0  0  0  0  0  0  0
   20.9368   20.2757   24.0145 H   0  0  0  0  0  0  0  0  0  0  0  0
   19.2066   20.0558   24.2891 H   0  0  0  0  0  0  0  0  0  0  0  0
   20.4060   18.3087   24.7710 C   0  0  0  0  0  0  0  0  0  0  0  0
   21.3105   17.8108   24.3952 H   0  0  0  0  0  0  0  0  0  0  0  0
   19.5806   17.5907   24.6697 H   0  0  0  0  0  0  0  0  0  0  0  0
   20.5965   18.6679   26.2597 C   0  0  0  0  0  0  0  0  0  0  0  0
   21.4227   19.3846   26.3650 H   0  0  0  0  0  0  0  0  0  0  0  0
   19.6928   19.1644   26.6395 H   0  0  0  0  0  0  0  0  0  0  0  0
   20.8909   17.4176   27.1127 C   0  0  0  0  0  0  0  0  0  0  0  0
   21.8083   16.9183   26.7742 H   0  0  0  0  0  0  0  0  0  0  0  0
   21.0234   17.6912   28.1675 H   0  0  0  0  0  0  0  0  0  0  0  0
   20.0654   16.6964   27.0507 H   0  0  0  0  0  0  0  0  0  0  0  0
  1  2  1  0  0  0  0
  1  3  2  0  0  0  0
  1  4  1  0  0  0  0
  4  5  1  0  0  0  0
  4  6  1  0  0  0  0
  4  7  1  0  0  0  0
  7  8  1  0  0  0  0
  7  9  1  0  0  0  0
  7 10  1  0  0  0  0
 10 11  1  0  0  0  0
 10 12  1  0  0  0  0
 10 13  1  0  0  0  0
 13 14  1  0  0  0  0
 13 15  1  0  0  0  0
 13 16  1  0  0  0  0
 16 17  1  0  0  0  0
 16 18  1  0  0  0  0
 16 19  1  0  0  0  0
 19 20  1  0  0  0  0
 19 21  1  0  0  0  0
 19 22  1  0  0  0  0
 22 23  1  0  0  0  0
 22 24  1  0  0  0  0
 22 25  1  0  0  0  0
M  END
> <VConfSearch Rank>
763

> <Conf_Id>
37

> <Delta U+W>
-0.230

> <U+W>
-51.860

> <U>
7.816

> <W>
-59.675

> <W(PB)>
-62.180

> <W(SA)>
2.505

> <Valence>
7.785

> <Coulomb>
-0.713

> <VdW>
0.744

> <VdW6>
-8.514

> <VdW12>
9.259

> <Bond>
0.136

> <Angle>
2.433

> <Pdih>
5.216

> <Idih>
0.000

> <Tether>
0.000

$$$$
VeraChem MOL file


 25 24  0  0  0  0  0  0  0  0999 V2000     
   16.0189   19.3220   22.6563 C   0  0  0  0  0  0  0  0  0  0  0  0
   15.7131   19.7170   21.5484 O   0  5  0  0  0  0  0  0  0  0  0  0
   15.7412   19.9126   23.6815 O   0  0  0  0  0  0  0  0  0  0  0  0
   16.7793   18.0033   22.7647 C   0  0  0  0  0  0  0  0  0  0  0  0
   16.2808   17.2823   22.1061 H   0  0  0  0  0  0  0  0  0  0  0  0
   16.6761   17.6227   23.7881 H   0  0  0  0  0  0  0  0  0  0  0  0
   18.2781   18.1064   22.3800 C   0  0  0  0  0  0  0  0  0  0  0  0
   18.7094   17.0966   22.3531 H   0  0  0  0  0  0  0  0  0  0  0  0
   18.3656   18.5149   21.3635 H   0  0  0  0  0  0  0  0  0  0  0  0
   19.0860   18.9794   23.3663 C   0  0  0  0  0  0  0  0  0  0  0  0
   18.9844   18.5748   24.3826 H   0  0  0  0  0  0  0  0  0  0  0  0
   18.6711   19.9967   23.3858 H   0  0  0  0  0  0  0  0  0  0  0  0
   20.5801   19.0423   22.9825 C   0  0  0  0  0  0  0  0  0  0  0  0
   20.9980   18.0264   22.9652 H   0  0  0  0  0  0  0  0  0  0  0  0
   20.6807   19.4471   21.9661 H   0  0  0  0  0  0  0  0  0  0  0  0
   21.3880   19.9151   23.9672 C   0  0  0  0  0  0  0  0  0  0  0  0
   21.2873   19.5106   24.9837 H   0  0  0  0  0  0  0  0  0  0  0  0
   20.9702   20.9311   23.9847 H   0  0  0  0  0  0  0  0  0  0  0  0
   22.8813   19.9787   23.5836 C   0  0  0  0  0  0  0  0  0  0  0  0
   23.3031   18.9642   23.5668 H   0  0  0  0  0  0  0  0  0  0  0  0
   22.9859   20.3847   22.5679 H   0  0  0  0  0  0  0  0  0  0  0  0
   23.6844   20.8511   24.5693 C   0  0  0  0  0  0  0  0  0  0  0  0
   23.6231   20.4495   25.5892 H   0  0  0  0  0  0  0  0  0  0  0  0
   24.7432   20.8853   24.2817 H   0  0  0  0  0  0  0  0  0  0  0  0
   23.3035   21.8807   24.5828 H   0  0  0  0  0  0  0  0  0  0  0  0
  1  2  1  0  0  0  0
  1  3  2  0  0  0  0
  1  4  1  0  0  0  0
  4  5  1  0  0  0  0
  4  6  1  0  0  0  0
  4  7  1  0  0  0  0
  7  8  1  0  0  0  0
  7  9  1  0  0  0  0
  7 10  1  0  0  0  0
 10 11  1  0  0  0  0
 10 12  1  0  0  0  0
 10 13  1  0  0  0  0
 13 14  1  0  0  0  0
 13 15  1  0  0  0  0
 13 16  1  0  0  0  0
 16 17  1  0  0  0  0
 16 18  1  0  0  0  0
 16 19  1  0  0  0  0
 19 20  1  0  0  0  0
 19 21  1  0  0  0  0
 19 22  1  0  0  0  0
 22 23  1  0  0  0  0
 22 24  1  0  0  0  0
 22 25  1  0  0  0  0
M  END
> <VConfSearch Rank>
764

> <Conf_Id>
54

> <Delta U+W>
-0.224

> <U+W>
-51.854

> <U>
7.816

> <W>
-59.670

> <W(PB)>
-62.157

> <W(SA)>
2.487

> <Valence>
7.785

> <Coulomb>
-0.713

> <VdW>
0.744

> <VdW6>
-8.515

> <VdW12>
9.259

> <Bond>
0.136

> <Angle>
2.433

> <Pdih>
5.215

> <Idih>
0.000

> <Tether>
0.000

$$$$
VeraChem MOL file


 25 24  0  0  0  0  0  0  0  0999 V2000     
   19.7367   22.7390   21.5232 C   0  0  0  0  0  0  0  0  0  0  0  0
   20.0808   22.5556   20.3721 O   0  5  0  0  0  0  0  0  0  0  0  0
   18.6987   23.2888   21.8354 O   0  0  0  0  0  0  0  0  0  0  0  0
   20.6661   22.2705   22.6394 C   0  0  0  0  0  0  0  0  0  0  0  0
   20.7433   23.0886   23.3651 H   0  0  0  0  0  0  0  0  0  0  0  0
   21.6689   22.1215   22.2211 H   0  0  0  0  0  0  0  0  0  0  0  0
   20.1897   20.9825   23.3602 C   0  0  0  0  0  0  0  0  0  0  0  0
   20.8303   20.8184   24.2357 H   0  0  0  0  0  0  0  0  0  0  0  0
   19.1687   21.1333   23.7373 H   0  0  0  0  0  0  0  0  0  0  0  0
   20.2312   19.7378   22.4410 C   0  0  0  0  0  0  0  0  0  0  0  0
   21.2608   19.5611   22.1012 H   0  0  0  0  0  0  0  0  0  0  0  0
   19.6385   19.9384   21.5380 H   0  0  0  0  0  0  0  0  0  0  0  0
   19.6780   18.4557   23.1083 C   0  0  0  0  0  0  0  0  0  0  0  0
   18.6552   18.6388   23.4647 H   0  0  0  0  0  0  0  0  0  0  0  0
   19.6041   17.6784   22.3372 H   0  0  0  0  0  0  0  0  0  0  0  0
   20.5544   17.9383   24.2757 C   0  0  0  0  0  0  0  0  0  0  0  0
   20.6239   18.7111   25.0515 H   0  0  0  0  0  0  0  0  0  0  0  0
   21.5783   17.7602   23.9198 H   0  0  0  0  0  0  0  0  0  0  0  0
   20.0043   16.6507   24.9329 C   0  0  0  0  0  0  0  0  0  0  0  0
   20.6005   16.4317   25.8295 H   0  0  0  0  0  0  0  0  0  0  0  0
   18.9754   16.8210   25.2791 H   0  0  0  0  0  0  0  0  0  0  0  0
   20.0429   15.4200   24.0007 C   0  0  0  0  0  0  0  0  0  0  0  0
   19.3643   15.5408   23.1473 H   0  0  0  0  0  0  0  0  0  0  0  0
   21.0565   15.2512   23.6145 H   0  0  0  0  0  0  0  0  0  0  0  0
   19.7341   14.5177   24.5442 H   0  0  0  0  0  0  0  0  0  0  0  0
  1  2  1  0  0  0  0
  1  3  2  0  0  0  0
  1  4  1  0  0  0  0
  4  5  1  0  0  0  0
  4  6  1  0  0  0  0
  4  7  1  0  0  0  0
  7  8  1  0  0  0  0
  7  9  1  0  0  0  0
  7 10  1  0  0  0  0
 10 11  1  0  0  0  0
 10 12  1  0  0  0  0
 10 13  1  0  0  0  0
 13 14  1  0  0  0  0
 13 15  1  0  0  0  0
 13 16  1  0  0  0  0
 16 17  1  0  0  0  0
 16 18  1  0  0  0  0
 16 19  1  0  0  0  0
 19 20  1  0  0  0  0
 19 21  1  0  0  0  0
 19 22  1  0  0  0  0
 22 23  1  0  0  0  0
 22 24  1  0  0  0  0
 22 25  1  0  0  0  0
M  END
> <VConfSearch Rank>
765

> <Conf_Id>
101

> <Delta U+W>
1.534

> <U+W>
-50.095

> <U>
9.416

> <W>
-59.512

> <W(PB)>
-61.988

> <W(SA)>
2.476

> <Valence>
8.939

> <Coulomb>
-0.615

> <VdW>
1.092

> <VdW6>
-9.710

> <VdW12>
10.802

> <Bond>
0.216

> <Angle>
2.979

> <Pdih>
5.743

> <Idih>
0.000

> <Tether>
0.000

$$$$
VeraChem MOL file


 25 24  0  0  0  0  0  0  0  0999 V2000     
   16.1221   18.3353   22.2413 C   0  0  0  0  0  0  0  0  0  0  0  0
   16.1369   17.7959   21.1525 O   0  5  0  0  0  0  0  0  0  0  0  0
   15.1968   18.2461   23.0241 O   0  0  0  0  0  0  0  0  0  0  0  0
   17.3412   19.1505   22.6578 C   0  0  0  0  0  0  0  0  0  0  0  0
   16.9993   19.9660   23.3061 H   0  0  0  0  0  0  0  0  0  0  0  0
   17.7604   19.6066   21.7541 H   0  0  0  0  0  0  0  0  0  0  0  0
   18.4107   18.2979   23.3890 C   0  0  0  0  0  0  0  0  0  0  0  0
   17.9309   17.7793   24.2305 H   0  0  0  0  0  0  0  0  0  0  0  0
   18.7815   17.5146   22.7135 H   0  0  0  0  0  0  0  0  0  0  0  0
   19.5999   19.1257   23.9324 C   0  0  0  0  0  0  0  0  0  0  0  0
   20.2200   18.4626   24.5491 H   0  0  0  0  0  0  0  0  0  0  0  0
   19.2261   19.9141   24.5997 H   0  0  0  0  0  0  0  0  0  0  0  0
   20.4733   19.7533   22.8183 C   0  0  0  0  0  0  0  0  0  0  0  0
   20.8475   18.9653   22.1520 H   0  0  0  0  0  0  0  0  0  0  0  0
   19.8537   20.4102   22.1951 H   0  0  0  0  0  0  0  0  0  0  0  0
   21.6570   20.5944   23.3603 C   0  0  0  0  0  0  0  0  0  0  0  0
   21.2580   21.4286   23.9532 H   0  0  0  0  0  0  0  0  0  0  0  0
   22.1805   21.0514   22.5096 H   0  0  0  0  0  0  0  0  0  0  0  0
   22.6870   19.8199   24.2197 C   0  0  0  0  0  0  0  0  0  0  0  0
   23.4679   20.5212   24.5444 H   0  0  0  0  0  0  0  0  0  0  0  0
   22.2135   19.4493   25.1383 H   0  0  0  0  0  0  0  0  0  0  0  0
   23.3544   18.6479   23.4680 C   0  0  0  0  0  0  0  0  0  0  0  0
   23.8143   18.9920   22.5326 H   0  0  0  0  0  0  0  0  0  0  0  0
   24.1403   18.1935   24.0849 H   0  0  0  0  0  0  0  0  0  0  0  0
   22.6262   17.8634   23.2264 H   0  0  0  0  0  0  0  0  0  0  0  0
  1  2  1  0  0  0  0
  1  3  2  0  0  0  0
  1  4  1  0  0  0  0
  4  5  1  0  0  0  0
  4  6  1  0  0  0  0
  4  7  1  0  0  0  0
  7  8  1  0  0  0  0
  7  9  1  0  0  0  0
  7 10  1  0  0  0  0
 10 11  1  0  0  0  0
 10 12  1  0  0  0  0
 10 13  1  0  0  0  0
 13 14  1  0  0  0  0
 13 15  1  0  0  0  0
 13 16  1  0  0  0  0
 16 17  1  0  0  0  0
 16 18  1  0  0  0  0
 16 19  1  0  0  0  0
 19 20  1  0  0  0  0
 19 21  1  0  0  0  0
 19 22  1  0  0  0  0
 22 23  1  0  0  0  0
 22 24  1  0  0  0  0
 22 25  1  0  0  0  0
M  END
> <VConfSearch Rank>
766

> <Conf_Id>
75

> <Delta U+W>
1.014

> <U+W>
-50.615

> <U>
8.474

> <W>
-59.089

> <W(PB)>
-61.530

> <W(SA)>
2.441

> <Valence>
9.080

> <Coulomb>
-1.772

> <VdW>
1.165

> <VdW6>
-9.830

> <VdW12>
10.996

> <Bond>
0.240

> <Angle>
3.225

> <Pdih>
5.615

> <Idih>
0.001

> <Tether>
0.000

$$$$
VeraChem MOL file


 25 24  0  0  0  0  0  0  0  0999 V2000     
   18.7798   15.6552   21.3248 C   0  0  0  0  0  0  0  0  0  0  0  0
   17.5648   15.6428   21.3382 O   0  5  0  0  0  0  0  0  0  0  0  0
   19.4499   15.0820   20.4888 O   0  0  0  0  0  0  0  0  0  0  0  0
   19.5034   16.4519   22.4046 C   0  0  0  0  0  0  0  0  0  0  0  0
   20.4531   15.9481   22.6209 H   0  0  0  0  0  0  0  0  0  0  0  0
   18.8996   16.4125   23.3192 H   0  0  0  0  0  0  0  0  0  0  0  0
   19.7597   17.9235   21.9964 C   0  0  0  0  0  0  0  0  0  0  0  0
   20.3540   17.9458   21.0724 H   0  0  0  0  0  0  0  0  0  0  0  0
   18.8003   18.4096   21.7706 H   0  0  0  0  0  0  0  0  0  0  0  0
   20.4915   18.7090   23.1062 C   0  0  0  0  0  0  0  0  0  0  0  0
   21.4494   18.2193   23.3288 H   0  0  0  0  0  0  0  0  0  0  0  0
   19.8982   18.6725   24.0275 H   0  0  0  0  0  0  0  0  0  0  0  0
   20.7504   20.1765   22.6912 C   0  0  0  0  0  0  0  0  0  0  0  0
   21.3722   20.1710   21.7856 H   0  0  0  0  0  0  0  0  0  0  0  0
   19.8079   20.6672   22.4125 H   0  0  0  0  0  0  0  0  0  0  0  0
   21.4780   21.0039   23.7814 C   0  0  0  0  0  0  0  0  0  0  0  0
   22.1640   21.7004   23.2802 H   0  0  0  0  0  0  0  0  0  0  0  0
   22.1126   20.3506   24.3957 H   0  0  0  0  0  0  0  0  0  0  0  0
   20.5433   21.8428   24.6878 C   0  0  0  0  0  0  0  0  0  0  0  0
   21.1639   22.4469   25.3640 H   0  0  0  0  0  0  0  0  0  0  0  0
   19.9763   22.5552   24.0728 H   0  0  0  0  0  0  0  0  0  0  0  0
   19.5631   21.0041   25.5341 C   0  0  0  0  0  0  0  0  0  0  0  0
   20.0965   20.2373   26.1107 H   0  0  0  0  0  0  0  0  0  0  0  0
   19.0217   21.6450   26.2419 H   0  0  0  0  0  0  0  0  0  0  0  0
   18.8172   20.5088   24.9001 H   0  0  0  0  0  0  0  0  0  0  0  0
  1  2  1  0  0  0  0
  1  3  2  0  0  0  0
  1  4  1  0  0  0  0
  4  5  1  0  0  0  0
  4  6  1  0  0  0  0
  4  7  1  0  0  0  0
  7  8  1  0  0  0  0
  7  9  1  0  0  0  0
  7 10  1  0  0  0  0
 10 11  1  0  0  0  0
 10 12  1  0  0  0  0
 10 13  1  0  0  0  0
 13 14  1  0  0  0  0
 13 15  1  0  0  0  0
 13 16  1  0  0  0  0
 16 17  1  0  0  0  0
 16 18  1  0  0  0  0
 16 19  1  0  0  0  0
 19 20  1  0  0  0  0
 19 21  1  0  0  0  0
 19 22  1  0  0  0  0
 22 23  1  0  0  0  0
 22 24  1  0  0  0  0
 22 25  1  0  0  0  0
M  END
> <VConfSearch Rank>
767

> <Conf_Id>
125

> <Delta U+W>
2.314

> <U+W>
-49.315

> <U>
9.740

> <W>
-59.054

> <W(PB)>
-61.488

> <W(SA)>
2.433

> <Valence>
10.506

> <Coulomb>
-1.761

> <VdW>
0.994

> <VdW6>
-9.209

> <VdW12>
10.203

> <Bond>
0.193

> <Angle>
2.979

> <Pdih>
7.334

> <Idih>
0.001

> <Tether>
0.000

$$$$
VeraChem MOL file


 25 24  0  0  0  0  0  0  0  0999 V2000     
   17.8798   22.1210   24.9983 C   0  0  0  0  0  0  0  0  0  0  0  0
   18.0002   23.0758   24.2564 O   0  5  0  0  0  0  0  0  0  0  0  0
   17.3238   22.1731   26.0776 O   0  0  0  0  0  0  0  0  0  0  0  0
   18.4804   20.7895   24.5619 C   0  0  0  0  0  0  0  0  0  0  0  0
   18.4011   20.7304   23.4706 H   0  0  0  0  0  0  0  0  0  0  0  0
   17.8623   19.9850   24.9777 H   0  0  0  0  0  0  0  0  0  0  0  0
   19.9544   20.6200   25.0135 C   0  0  0  0  0  0  0  0  0  0  0  0
   20.5716   21.4039   24.5531 H   0  0  0  0  0  0  0  0  0  0  0  0
   20.0108   20.7788   26.0993 H   0  0  0  0  0  0  0  0  0  0  0  0
   20.5457   19.2284   24.6849 C   0  0  0  0  0  0  0  0  0  0  0  0
   19.9320   18.4475   25.1546 H   0  0  0  0  0  0  0  0  0  0  0  0
   21.5423   19.1572   25.1417 H   0  0  0  0  0  0  0  0  0  0  0  0
   20.6662   18.9538   23.1679 C   0  0  0  0  0  0  0  0  0  0  0  0
   19.6679   18.9553   22.7139 H   0  0  0  0  0  0  0  0  0  0  0  0
   21.2383   19.7623   22.6929 H   0  0  0  0  0  0  0  0  0  0  0  0
   21.3571   17.5991   22.8876 C   0  0  0  0  0  0  0  0  0  0  0  0
   20.7622   16.7837   23.3215 H   0  0  0  0  0  0  0  0  0  0  0  0
   22.3294   17.5807   23.3987 H   0  0  0  0  0  0  0  0  0  0  0  0
   21.5890   17.3264   21.3831 C   0  0  0  0  0  0  0  0  0  0  0  0
   22.1885   18.1374   20.9471 H   0  0  0  0  0  0  0  0  0  0  0  0
   22.1856   16.4095   21.2792 H   0  0  0  0  0  0  0  0  0  0  0  0
   20.2792   17.1601   20.5822 C   0  0  0  0  0  0  0  0  0  0  0  0
   19.7023   18.0930   20.5591 H   0  0  0  0  0  0  0  0  0  0  0  0
   20.4975   16.8792   19.5438 H   0  0  0  0  0  0  0  0  0  0  0  0
   19.6484   16.3752   21.0192 H   0  0  0  0  0  0  0  0  0  0  0  0
  1  2  1  0  0  0  0
  1  3  2  0  0  0  0
  1  4  1  0  0  0  0
  4  5  1  0  0  0  0
  4  6  1  0  0  0  0
  4  7  1  0  0  0  0
  7  8  1  0  0  0  0
  7  9  1  0  0  0  0
  7 10  1  0  0  0  0
 10 11  1  0  0  0  0
 10 12  1  0  0  0  0
 10 13  1  0  0  0  0
 13 14  1  0  0  0  0
 13 15  1  0  0  0  0
 13 16  1  0  0  0  0
 16 17  1  0  0  0  0
 16 18  1  0  0  0  0
 16 19  1  0  0  0  0
 19 20  1  0  0  0  0
 19 21  1  0  0  0  0
 19 22  1  0  0  0  0
 22 23  1  0  0  0  0
 22 24  1  0  0  0  0
 22 25  1  0  0  0  0
M  END
> <VConfSearch Rank>
768

> <Conf_Id>
4

> <Delta U+W>
0.189

> <U+W>
-51.441

> <U>
7.701

> <W>
-59.141

> <W(PB)>
-61.609

> <W(SA)>
2.467

> <Valence>
8.550

> <Coulomb>
-1.988

> <VdW>
1.139

> <VdW6>
-8.988

> <VdW12>
10.127

> <Bond>
0.191

> <Angle>
2.738

> <Pdih>
5.621

> <Idih>
0.001

> <Tether>
0.000

$$$$
VeraChem MOL file


 25 24  0  0  0  0  0  0  0  0999 V2000     
   20.0086   15.6106   21.3633 C   0  0  0  0  0  0  0  0  0  0  0  0
   21.1578   15.2171   21.3988 O   0  5  0  0  0  0  0  0  0  0  0  0
   19.0802   14.9408   20.9557 O   0  0  0  0  0  0  0  0  0  0  0  0
   19.7115   17.0134   21.8807 C   0  0  0  0  0  0  0  0  0  0  0  0
   18.8642   17.4136   21.3111 H   0  0  0  0  0  0  0  0  0  0  0  0
   20.5806   17.6419   21.6564 H   0  0  0  0  0  0  0  0  0  0  0  0
   19.3953   17.0381   23.3988 C   0  0  0  0  0  0  0  0  0  0  0  0
   18.5826   16.3268   23.6012 H   0  0  0  0  0  0  0  0  0  0  0  0
   20.2684   16.6793   23.9612 H   0  0  0  0  0  0  0  0  0  0  0  0
   18.9745   18.4327   23.9203 C   0  0  0  0  0  0  0  0  0  0  0  0
   18.6584   18.3317   24.9676 H   0  0  0  0  0  0  0  0  0  0  0  0
   18.0955   18.7843   23.3628 H   0  0  0  0  0  0  0  0  0  0  0  0
   20.1018   19.4877   23.8340 C   0  0  0  0  0  0  0  0  0  0  0  0
   20.9960   19.1123   24.3498 H   0  0  0  0  0  0  0  0  0  0  0  0
   20.3775   19.6457   22.7844 H   0  0  0  0  0  0  0  0  0  0  0  0
   19.6712   20.8338   24.4614 C   0  0  0  0  0  0  0  0  0  0  0  0
   19.3364   20.6572   25.4927 H   0  0  0  0  0  0  0  0  0  0  0  0
   18.8051   21.2351   23.9176 H   0  0  0  0  0  0  0  0  0  0  0  0
   20.8006   21.8900   24.4869 C   0  0  0  0  0  0  0  0  0  0  0  0
   20.4511   22.7658   25.0509 H   0  0  0  0  0  0  0  0  0  0  0  0
   21.6668   21.4939   25.0348 H   0  0  0  0  0  0  0  0  0  0  0  0
   21.2414   22.3488   23.0799 C   0  0  0  0  0  0  0  0  0  0  0  0
   20.3854   22.7199   22.5014 H   0  0  0  0  0  0  0  0  0  0  0  0
   21.9767   23.1605   23.1538 H   0  0  0  0  0  0  0  0  0  0  0  0
   21.7074   21.5293   22.5187 H   0  0  0  0  0  0  0  0  0  0  0  0
  1  2  1  0  0  0  0
  1  3  2  0  0  0  0
  1  4  1  0  0  0  0
  4  5  1  0  0  0  0
  4  6  1  0  0  0  0
  4  7  1  0  0  0  0
  7  8  1  0  0  0  0
  7  9  1  0  0  0  0
  7 10  1  0  0  0  0
 10 11  1  0  0  0  0
 10 12  1  0  0  0  0
 10 13  1  0  0  0  0
 13 14  1  0  0  0  0
 13 15  1  0  0  0  0
 13 16  1  0  0  0  0
 16 17  1  0  0  0  0
 16 18  1  0  0  0  0
 16 19  1  0  0  0  0
 19 20  1  0  0  0  0
 19 21  1  0  0  0  0
 19 22  1  0  0  0  0
 22 23  1  0  0  0  0
 22 24  1  0  0  0  0
 22 25  1  0  0  0  0
M  END
> <VConfSearch Rank>
769

> <Conf_Id>
17

> <Delta U+W>
0.219

> <U+W>
-51.411

> <U>
7.701

> <W>
-59.111

> <W(PB)>
-61.599

> <W(SA)>
2.488

> <Valence>
8.550

> <Coulomb>
-1.988

> <VdW>
1.139

> <VdW6>
-8.988

> <VdW12>
10.127

> <Bond>
0.191

> <Angle>
2.738

> <Pdih>
5.621

> <Idih>
0.001

> <Tether>
0.000

$$$$
VeraChem MOL file


 25 24  0  0  0  0  0  0  0  0999 V2000     
   18.5649   18.4570   26.8009 C   0  0  0  0  0  0  0  0  0  0  0  0
   18.6992   17.2698   27.0235 O   0  5  0  0  0  0  0  0  0  0  0  0
   17.4847   19.0024   26.6877 O   0  0  0  0  0  0  0  0  0  0  0  0
   19.8202   19.3158   26.6753 C   0  0  0  0  0  0  0  0  0  0  0  0
   20.6566   18.7838   27.1446 H   0  0  0  0  0  0  0  0  0  0  0  0
   19.6547   20.2271   27.2620 H   0  0  0  0  0  0  0  0  0  0  0  0
   20.1781   19.6971   25.2154 C   0  0  0  0  0  0  0  0  0  0  0  0
   19.3200   20.2104   24.7617 H   0  0  0  0  0  0  0  0  0  0  0  0
   21.0085   20.4159   25.2277 H   0  0  0  0  0  0  0  0  0  0  0  0
   20.5782   18.4685   24.3639 C   0  0  0  0  0  0  0  0  0  0  0  0
   19.7291   17.7754   24.2866 H   0  0  0  0  0  0  0  0  0  0  0  0
   21.3779   17.9209   24.8811 H   0  0  0  0  0  0  0  0  0  0  0  0
   21.0732   18.8370   22.9451 C   0  0  0  0  0  0  0  0  0  0  0  0
   21.9279   19.5231   23.0200 H   0  0  0  0  0  0  0  0  0  0  0  0
   21.4481   17.9254   22.4601 H   0  0  0  0  0  0  0  0  0  0  0  0
   19.9766   19.4652   22.0541 C   0  0  0  0  0  0  0  0  0  0  0  0
   19.6429   20.4176   22.4858 H   0  0  0  0  0  0  0  0  0  0  0  0
   19.1016   18.8014   22.0261 H   0  0  0  0  0  0  0  0  0  0  0  0
   20.4817   19.7124   20.6169 C   0  0  0  0  0  0  0  0  0  0  0  0
   21.3582   20.3747   20.6416 H   0  0  0  0  0  0  0  0  0  0  0  0
   20.8109   18.7635   20.1710 H   0  0  0  0  0  0  0  0  0  0  0  0
   19.3883   20.3422   19.7307 C   0  0  0  0  0  0  0  0  0  0  0  0
   19.0627   21.3092   20.1360 H   0  0  0  0  0  0  0  0  0  0  0  0
   19.7643   20.5105   18.7132 H   0  0  0  0  0  0  0  0  0  0  0  0
   18.5108   19.6857   19.6636 H   0  0  0  0  0  0  0  0  0  0  0  0
  1  2  1  0  0  0  0
  1  3  2  0  0  0  0
  1  4  1  0  0  0  0
  4  5  1  0  0  0  0
  4  6  1  0  0  0  0
  4  7  1  0  0  0  0
  7  8  1  0  0  0  0
  7  9  1  0  0  0  0
  7 10  1  0  0  0  0
 10 11  1  0  0  0  0
 10 12  1  0  0  0  0
 10 13  1  0  0  0  0
 13 14  1  0  0  0  0
 13 15  1  0  0  0  0
 13 16  1  0  0  0  0
 16 17  1  0  0  0  0
 16 18  1  0  0  0  0
 16 19  1  0  0  0  0
 19 20  1  0  0  0  0
 19 21  1  0  0  0  0
 19 22  1  0  0  0  0
 22 23  1  0  0  0  0
 22 24  1  0  0  0  0
 22 25  1  0  0  0  0
M  END
> <VConfSearch Rank>
770

> <Conf_Id>
142

> <Delta U+W>
0.593

> <U+W>
-51.037

> <U>
8.903

> <W>
-59.940

> <W(PB)>
-62.418

> <W(SA)>
2.478

> <Valence>
8.305

> <Coulomb>
-0.223

> <VdW>
0.821

> <VdW6>
-9.236

> <VdW12>
10.057

> <Bond>
0.173

> <Angle>
2.663

> <Pdih>
5.469

> <Idih>
0.001

> <Tether>
0.000

$$$$
VeraChem MOL file


 25 24  0  0  0  0  0  0  0  0999 V2000     
   18.0649   17.8893   25.8607 C   0  0  0  0  0  0  0  0  0  0  0  0
   18.0074   16.9640   26.6469 O   0  5  0  0  0  0  0  0  0  0  0  0
   17.7375   19.0268   26.1366 O   0  0  0  0  0  0  0  0  0  0  0  0
   18.5486   17.5985   24.4429 C   0  0  0  0  0  0  0  0  0  0  0  0
   18.2821   18.4452   23.8000 H   0  0  0  0  0  0  0  0  0  0  0  0
   17.9794   16.7374   24.0741 H   0  0  0  0  0  0  0  0  0  0  0  0
   20.0679   17.2923   24.3417 C   0  0  0  0  0  0  0  0  0  0  0  0
   20.2875   16.3987   24.9422 H   0  0  0  0  0  0  0  0  0  0  0  0
   20.3149   17.0261   23.3059 H   0  0  0  0  0  0  0  0  0  0  0  0
   20.9872   18.4469   24.8174 C   0  0  0  0  0  0  0  0  0  0  0  0
   22.0338   18.1304   24.7124 H   0  0  0  0  0  0  0  0  0  0  0  0
   20.8284   18.6107   25.8921 H   0  0  0  0  0  0  0  0  0  0  0  0
   20.7940   19.7945   24.0777 C   0  0  0  0  0  0  0  0  0  0  0  0
   19.7838   20.1820   24.2655 H   0  0  0  0  0  0  0  0  0  0  0  0
   21.4855   20.5288   24.5125 H   0  0  0  0  0  0  0  0  0  0  0  0
   21.0474   19.7058   22.5550 C   0  0  0  0  0  0  0  0  0  0  0  0
   20.3158   19.0297   22.0937 H   0  0  0  0  0  0  0  0  0  0  0  0
   22.0420   19.2765   22.3727 H   0  0  0  0  0  0  0  0  0  0  0  0
   20.9508   21.0898   21.8792 C   0  0  0  0  0  0  0  0  0  0  0  0
   19.9574   21.5222   22.0627 H   0  0  0  0  0  0  0  0  0  0  0  0
   21.6846   21.7736   22.3279 H   0  0  0  0  0  0  0  0  0  0  0  0
   21.1977   20.9988   20.3599 C   0  0  0  0  0  0  0  0  0  0  0  0
   20.4571   20.3456   19.8801 H   0  0  0  0  0  0  0  0  0  0  0  0
   21.1254   21.9911   19.8960 H   0  0  0  0  0  0  0  0  0  0  0  0
   22.1973   20.5974   20.1478 H   0  0  0  0  0  0  0  0  0  0  0  0
  1  2  1  0  0  0  0
  1  3  2  0  0  0  0
  1  4  1  0  0  0  0
  4  5  1  0  0  0  0
  4  6  1  0  0  0  0
  4  7  1  0  0  0  0
  7  8  1  0  0  0  0
  7  9  1  0  0  0  0
  7 10  1  0  0  0  0
 10 11  1  0  0  0  0
 10 12  1  0  0  0  0
 10 13  1  0  0  0  0
 13 14  1  0  0  0  0
 13 15  1  0  0  0  0
 13 16  1  0  0  0  0
 16 17  1  0  0  0  0
 16 18  1  0  0  0  0
 16 19  1  0  0  0  0
 19 20  1  0  0  0  0
 19 21  1  0  0  0  0
 19 22  1  0  0  0  0
 22 23  1  0  0  0  0
 22 24  1  0  0  0  0
 22 25  1  0  0  0  0
M  END
> <VConfSearch Rank>
771

> <Conf_Id>
135

> <Delta U+W>
1.314

> <U+W>
-50.316

> <U>
9.773

> <W>
-60.088

> <W(PB)>
-62.535

> <W(SA)>
2.447

> <Valence>
8.741

> <Coulomb>
0.479

> <VdW>
0.552

> <VdW6>
-10.627

> <VdW12>
11.179

> <Bond>
0.227

> <Angle>
3.155

> <Pdih>
5.358

> <Idih>
0.001

> <Tether>
0.000

$$$$
VeraChem MOL file


 25 24  0  0  0  0  0  0  0  0999 V2000     
   16.6378   21.5267   22.6241 C   0  0  0  0  0  0  0  0  0  0  0  0
   15.6429   20.8674   22.3955 O   0  5  0  0  0  0  0  0  0  0  0  0
   16.6079   22.6807   23.0040 O   0  0  0  0  0  0  0  0  0  0  0  0
   17.9985   20.8625   22.4462 C   0  0  0  0  0  0  0  0  0  0  0  0
   18.7153   21.6335   22.1395 H   0  0  0  0  0  0  0  0  0  0  0  0
   17.9141   20.1491   21.6191 H   0  0  0  0  0  0  0  0  0  0  0  0
   18.4926   20.1548   23.7349 C   0  0  0  0  0  0  0  0  0  0  0  0
   18.4704   20.8781   24.5618 H   0  0  0  0  0  0  0  0  0  0  0  0
   17.7924   19.3527   24.0063 H   0  0  0  0  0  0  0  0  0  0  0  0
   19.9257   19.5824   23.6189 C   0  0  0  0  0  0  0  0  0  0  0  0
   20.2358   19.2474   24.6167 H   0  0  0  0  0  0  0  0  0  0  0  0
   20.6198   20.3806   23.3229 H   0  0  0  0  0  0  0  0  0  0  0  0
   20.0379   18.3957   22.6322 C   0  0  0  0  0  0  0  0  0  0  0  0
   19.3847   17.5791   22.9687 H   0  0  0  0  0  0  0  0  0  0  0  0
   19.6662   18.7014   21.6464 H   0  0  0  0  0  0  0  0  0  0  0  0
   21.4794   17.8580   22.4470 C   0  0  0  0  0  0  0  0  0  0  0  0
   22.1212   18.6416   22.0214 H   0  0  0  0  0  0  0  0  0  0  0  0
   21.4401   17.0623   21.6906 H   0  0  0  0  0  0  0  0  0  0  0  0
   22.1246   17.2729   23.7282 C   0  0  0  0  0  0  0  0  0  0  0  0
   21.3476   16.9076   24.4139 H   0  0  0  0  0  0  0  0  0  0  0  0
   22.7237   16.3947   23.4507 H   0  0  0  0  0  0  0  0  0  0  0  0
   23.0519   18.2739   24.4530 C   0  0  0  0  0  0  0  0  0  0  0  0
   22.5135   19.1753   24.7672 H   0  0  0  0  0  0  0  0  0  0  0  0
   23.4880   17.8140   25.3491 H   0  0  0  0  0  0  0  0  0  0  0  0
   23.8776   18.5840   23.7994 H   0  0  0  0  0  0  0  0  0  0  0  0
  1  2  1  0  0  0  0
  1  3  2  0  0  0  0
  1  4  1  0  0  0  0
  4  5  1  0  0  0  0
  4  6  1  0  0  0  0
  4  7  1  0  0  0  0
  7  8  1  0  0  0  0
  7  9  1  0  0  0  0
  7 10  1  0  0  0  0
 10 11  1  0  0  0  0
 10 12  1  0  0  0  0
 10 13  1  0  0  0  0
 13 14  1  0  0  0  0
 13 15  1  0  0  0  0
 13 16  1  0  0  0  0
 16 17  1  0  0  0  0
 16 18  1  0  0  0  0
 16 19  1  0  0  0  0
 19 20  1  0  0  0  0
 19 21  1  0  0  0  0
 19 22  1  0  0  0  0
 22 23  1  0  0  0  0
 22 24  1  0  0  0  0
 22 25  1  0  0  0  0
M  END
> <VConfSearch Rank>
772

> <Conf_Id>
19

> <Delta U+W>
3.222

> <U+W>
-48.407

> <U>
10.617

> <W>
-59.025

> <W(PB)>
-61.462

> <W(SA)>
2.437

> <Valence>
11.188

> <Coulomb>
-1.778

> <VdW>
1.208

> <VdW6>
-9.786

> <VdW12>
10.993

> <Bond>
0.241

> <Angle>
3.294

> <Pdih>
7.653

> <Idih>
0.001

> <Tether>
0.000

$$$$
VeraChem MOL file


 25 24  0  0  0  0  0  0  0  0999 V2000     
   23.2314   16.8762   24.8479 C   0  0  0  0  0  0  0  0  0  0  0  0
   24.1128   17.5369   25.3609 O   0  5  0  0  0  0  0  0  0  0  0  0
   23.3779   15.7264   24.4827 O   0  0  0  0  0  0  0  0  0  0  0  0
   21.8733   17.5334   24.6289 C   0  0  0  0  0  0  0  0  0  0  0  0
   21.7094   18.2387   25.4510 H   0  0  0  0  0  0  0  0  0  0  0  0
   21.1034   16.7567   24.7076 H   0  0  0  0  0  0  0  0  0  0  0  0
   21.7698   18.2525   23.2585 C   0  0  0  0  0  0  0  0  0  0  0  0
   22.5133   19.0600   23.2089 H   0  0  0  0  0  0  0  0  0  0  0  0
   22.0358   17.5378   22.4673 H   0  0  0  0  0  0  0  0  0  0  0  0
   20.3610   18.8182   22.9584 C   0  0  0  0  0  0  0  0  0  0  0  0
   19.6161   18.0143   23.0332 H   0  0  0  0  0  0  0  0  0  0  0  0
   20.3516   19.1622   21.9165 H   0  0  0  0  0  0  0  0  0  0  0  0
   19.9594   19.9943   23.8803 C   0  0  0  0  0  0  0  0  0  0  0  0
   20.0310   19.6799   24.9289 H   0  0  0  0  0  0  0  0  0  0  0  0
   20.6767   20.8167   23.7550 H   0  0  0  0  0  0  0  0  0  0  0  0
   18.5226   20.5246   23.6437 C   0  0  0  0  0  0  0  0  0  0  0  0
   18.3355   21.3127   24.3858 H   0  0  0  0  0  0  0  0  0  0  0  0
   17.7902   19.7343   23.8579 H   0  0  0  0  0  0  0  0  0  0  0  0
   18.2733   21.1202   22.2355 C   0  0  0  0  0  0  0  0  0  0  0  0
   17.6136   21.9933   22.3347 H   0  0  0  0  0  0  0  0  0  0  0  0
   19.2133   21.4953   21.8079 H   0  0  0  0  0  0  0  0  0  0  0  0
   17.6027   20.1230   21.2642 C   0  0  0  0  0  0  0  0  0  0  0  0
   16.6249   19.8033   21.6473 H   0  0  0  0  0  0  0  0  0  0  0  0
   17.4425   20.5903   20.2840 H   0  0  0  0  0  0  0  0  0  0  0  0
   18.2149   19.2269   21.1122 H   0  0  0  0  0  0  0  0  0  0  0  0
  1  2  1  0  0  0  0
  1  3  2  0  0  0  0
  1  4  1  0  0  0  0
  4  5  1  0  0  0  0
  4  6  1  0  0  0  0
  4  7  1  0  0  0  0
  7  8  1  0  0  0  0
  7  9  1  0  0  0  0
  7 10  1  0  0  0  0
 10 11  1  0  0  0  0
 10 12  1  0  0  0  0
 10 13  1  0  0  0  0
 13 14  1  0  0  0  0
 13 15  1  0  0  0  0
 13 16  1  0  0  0  0
 16 17  1  0  0  0  0
 16 18  1  0  0  0  0
 16 19  1  0  0  0  0
 19 20  1  0  0  0  0
 19 21  1  0  0  0  0
 19 22  1  0  0  0  0
 22 23  1  0  0  0  0
 22 24  1  0  0  0  0
 22 25  1  0  0  0  0
M  END
> <VConfSearch Rank>
773

> <Conf_Id>
20

> <Delta U+W>
3.224

> <U+W>
-48.406

> <U>
10.617

> <W>
-59.023

> <W(PB)>
-61.467

> <W(SA)>
2.444

> <Valence>
11.188

> <Coulomb>
-1.778

> <VdW>
1.208

> <VdW6>
-9.786

> <VdW12>
10.993

> <Bond>
0.241

> <Angle>
3.294

> <Pdih>
7.653

> <Idih>
0.001

> <Tether>
0.000

$$$$
VeraChem MOL file


 25 24  0  0  0  0  0  0  0  0999 V2000     
   22.4587   20.6264   24.9084 C   0  0  0  0  0  0  0  0  0  0  0  0
   23.4075   20.3072   24.2189 O   0  5  0  0  0  0  0  0  0  0  0  0
   22.2021   20.1083   25.9774 O   0  0  0  0  0  0  0  0  0  0  0  0
   21.5791   21.7842   24.4402 C   0  0  0  0  0  0  0  0  0  0  0  0
   22.2227   22.6713   24.4202 H   0  0  0  0  0  0  0  0  0  0  0  0
   20.8071   21.9736   25.1957 H   0  0  0  0  0  0  0  0  0  0  0  0
   20.9289   21.5994   23.0401 C   0  0  0  0  0  0  0  0  0  0  0  0
   20.6467   22.5919   22.6636 H   0  0  0  0  0  0  0  0  0  0  0  0
   21.6713   21.2074   22.3311 H   0  0  0  0  0  0  0  0  0  0  0  0
   19.6600   20.7112   23.0254 C   0  0  0  0  0  0  0  0  0  0  0  0
   19.2078   20.7776   22.0263 H   0  0  0  0  0  0  0  0  0  0  0  0
   18.9177   21.1152   23.7273 H   0  0  0  0  0  0  0  0  0  0  0  0
   19.9276   19.2244   23.3514 C   0  0  0  0  0  0  0  0  0  0  0  0
   20.7439   18.8492   22.7190 H   0  0  0  0  0  0  0  0  0  0  0  0
   20.2562   19.1246   24.3935 H   0  0  0  0  0  0  0  0  0  0  0  0
   18.6676   18.3572   23.1388 C   0  0  0  0  0  0  0  0  0  0  0  0
   18.3339   18.4426   22.0956 H   0  0  0  0  0  0  0  0  0  0  0  0
   17.8511   18.7369   23.7682 H   0  0  0  0  0  0  0  0  0  0  0  0
   18.9306   16.8743   23.4750 C   0  0  0  0  0  0  0  0  0  0  0  0
   19.7465   16.4912   22.8463 H   0  0  0  0  0  0  0  0  0  0  0  0
   19.2632   16.7847   24.5185 H   0  0  0  0  0  0  0  0  0  0  0  0
   17.6708   16.0110   23.2623 C   0  0  0  0  0  0  0  0  0  0  0  0
   17.3345   16.0574   22.2182 H   0  0  0  0  0  0  0  0  0  0  0  0
   17.8759   14.9605   23.5060 H   0  0  0  0  0  0  0  0  0  0  0  0
   16.8476   16.3531   23.9032 H   0  0  0  0  0  0  0  0  0  0  0  0
  1  2  1  0  0  0  0
  1  3  2  0  0  0  0
  1  4  1  0  0  0  0
  4  5  1  0  0  0  0
  4  6  1  0  0  0  0
  4  7  1  0  0  0  0
  7  8  1  0  0  0  0
  7  9  1  0  0  0  0
  7 10  1  0  0  0  0
 10 11  1  0  0  0  0
 10 12  1  0  0  0  0
 10 13  1  0  0  0  0
 13 14  1  0  0  0  0
 13 15  1  0  0  0  0
 13 16  1  0  0  0  0
 16 17  1  0  0  0  0
 16 18  1  0  0  0  0
 16 19  1  0  0  0  0
 19 20  1  0  0  0  0
 19 21  1  0  0  0  0
 19 22  1  0  0  0  0
 22 23  1  0  0  0  0
 22 24  1  0  0  0  0
 22 25  1  0  0  0  0
M  END
> <VConfSearch Rank>
774

> <Conf_Id>
24

> <Delta U+W>
1.784

> <U+W>
-49.846

> <U>
10.904

> <W>
-60.749

> <W(PB)>
-63.220

> <W(SA)>
2.471

> <Valence>
9.445

> <Coulomb>
0.780

> <VdW>
0.679

> <VdW6>
-10.008

> <VdW12>
10.687

> <Bond>
0.201

> <Angle>
3.198

> <Pdih>
6.039

> <Idih>
0.006

> <Tether>
0.000

$$$$
VeraChem MOL file


 25 24  0  0  0  0  0  0  0  0999 V2000     
   17.5838   20.7554   22.8145 C   0  0  0  0  0  0  0  0  0  0  0  0
   16.6483   20.2672   23.4179 O   0  5  0  0  0  0  0  0  0  0  0  0
   18.1499   21.7725   23.1641 O   0  0  0  0  0  0  0  0  0  0  0  0
   18.0303   20.0947   21.5116 C   0  0  0  0  0  0  0  0  0  0  0  0
   18.8438   20.6852   21.0730 H   0  0  0  0  0  0  0  0  0  0  0  0
   17.1816   20.1691   20.8220 H   0  0  0  0  0  0  0  0  0  0  0  0
   18.4529   18.6036   21.6349 C   0  0  0  0  0  0  0  0  0  0  0  0
   17.7293   18.0596   22.2578 H   0  0  0  0  0  0  0  0  0  0  0  0
   18.3922   18.1504   20.6362 H   0  0  0  0  0  0  0  0  0  0  0  0
   19.8891   18.3774   22.1689 C   0  0  0  0  0  0  0  0  0  0  0  0
   20.6081   18.9140   21.5349 H   0  0  0  0  0  0  0  0  0  0  0  0
   20.1267   17.3094   22.0691 H   0  0  0  0  0  0  0  0  0  0  0  0
   20.0859   18.7940   23.6442 C   0  0  0  0  0  0  0  0  0  0  0  0
   19.9818   19.8820   23.7413 H   0  0  0  0  0  0  0  0  0  0  0  0
   19.3010   18.3389   24.2638 H   0  0  0  0  0  0  0  0  0  0  0  0
   21.4736   18.3745   24.1760 C   0  0  0  0  0  0  0  0  0  0  0  0
   22.2569   18.8266   23.5522 H   0  0  0  0  0  0  0  0  0  0  0  0
   21.5861   17.2850   24.0916 H   0  0  0  0  0  0  0  0  0  0  0  0
   21.6754   18.8002   25.6455 C   0  0  0  0  0  0  0  0  0  0  0  0
   21.5654   19.8900   25.7336 H   0  0  0  0  0  0  0  0  0  0  0  0
   20.8937   18.3490   26.2723 H   0  0  0  0  0  0  0  0  0  0  0  0
   23.0620   18.3805   26.1736 C   0  0  0  0  0  0  0  0  0  0  0  0
   23.8637   18.8434   25.5835 H   0  0  0  0  0  0  0  0  0  0  0  0
   23.1881   18.6910   27.2190 H   0  0  0  0  0  0  0  0  0  0  0  0
   23.1870   17.2907   26.1263 H   0  0  0  0  0  0  0  0  0  0  0  0
  1  2  1  0  0  0  0
  1  3  2  0  0  0  0
  1  4  1  0  0  0  0
  4  5  1  0  0  0  0
  4  6  1  0  0  0  0
  4  7  1  0  0  0  0
  7  8  1  0  0  0  0
  7  9  1  0  0  0  0
  7 10  1  0  0  0  0
 10 11  1  0  0  0  0
 10 12  1  0  0  0  0
 10 13  1  0  0  0  0
 13 14  1  0  0  0  0
 13 15  1  0  0  0  0
 13 16  1  0  0  0  0
 16 17  1  0  0  0  0
 16 18  1  0  0  0  0
 16 19  1  0  0  0  0
 19 20  1  0  0  0  0
 19 21  1  0  0  0  0
 19 22  1  0  0  0  0
 22 23  1  0  0  0  0
 22 24  1  0  0  0  0
 22 25  1  0  0  0  0
M  END
> <VConfSearch Rank>
775

> <Conf_Id>
9

> <Delta U+W>
1.764

> <U+W>
-49.865

> <U>
10.902

> <W>
-60.768

> <W(PB)>
-63.223

> <W(SA)>
2.456

> <Valence>
9.445

> <Coulomb>
0.778

> <VdW>
0.679

> <VdW6>
-10.007

> <VdW12>
10.687

> <Bond>
0.201

> <Angle>
3.198

> <Pdih>
6.040

> <Idih>
0.006

> <Tether>
0.000

$$$$
VeraChem MOL file


 25 24  0  0  0  0  0  0  0  0999 V2000     
   21.4043   22.1049   21.6729 C   0  0  0  0  0  0  0  0  0  0  0  0
   20.3066   22.4433   21.2764 O   0  5  0  0  0  0  0  0  0  0  0  0
   22.3765   22.8341   21.6674 O   0  0  0  0  0  0  0  0  0  0  0  0
   21.5664   20.6941   22.2270 C   0  0  0  0  0  0  0  0  0  0  0  0
   22.5826   20.3544   21.9942 H   0  0  0  0  0  0  0  0  0  0  0  0
   20.8789   20.0397   21.6824 H   0  0  0  0  0  0  0  0  0  0  0  0
   21.3180   20.6186   23.7567 C   0  0  0  0  0  0  0  0  0  0  0  0
   22.0380   21.2869   24.2490 H   0  0  0  0  0  0  0  0  0  0  0  0
   20.3211   21.0129   23.9981 H   0  0  0  0  0  0  0  0  0  0  0  0
   21.4866   19.1928   24.3406 C   0  0  0  0  0  0  0  0  0  0  0  0
   21.9179   19.2850   25.3469 H   0  0  0  0  0  0  0  0  0  0  0  0
   22.2202   18.6242   23.7529 H   0  0  0  0  0  0  0  0  0  0  0  0
   20.1692   18.3879   24.4718 C   0  0  0  0  0  0  0  0  0  0  0  0
   20.3951   17.4356   24.9704 H   0  0  0  0  0  0  0  0  0  0  0  0
   19.4833   18.9297   25.1362 H   0  0  0  0  0  0  0  0  0  0  0  0
   19.4671   18.0947   23.1248 C   0  0  0  0  0  0  0  0  0  0  0  0
   20.2035   17.6934   22.4155 H   0  0  0  0  0  0  0  0  0  0  0  0
   19.0858   19.0296   22.6938 H   0  0  0  0  0  0  0  0  0  0  0  0
   18.3018   17.0858   23.2493 C   0  0  0  0  0  0  0  0  0  0  0  0
   17.9236   16.8575   22.2433 H   0  0  0  0  0  0  0  0  0  0  0  0
   18.6735   16.1383   23.6632 H   0  0  0  0  0  0  0  0  0  0  0  0
   17.1339   17.6075   24.1143 C   0  0  0  0  0  0  0  0  0  0  0  0
   16.7620   18.5677   23.7338 H   0  0  0  0  0  0  0  0  0  0  0  0
   16.2999   16.8939   24.1045 H   0  0  0  0  0  0  0  0  0  0  0  0
   17.4406   17.7464   25.1585 H   0  0  0  0  0  0  0  0  0  0  0  0
  1  2  1  0  0  0  0
  1  3  2  0  0  0  0
  1  4  1  0  0  0  0
  4  5  1  0  0  0  0
  4  6  1  0  0  0  0
  4  7  1  0  0  0  0
  7  8  1  0  0  0  0
  7  9  1  0  0  0  0
  7 10  1  0  0  0  0
 10 11  1  0  0  0  0
 10 12  1  0  0  0  0
 10 13  1  0  0  0  0
 13 14  1  0  0  0  0
 13 15  1  0  0  0  0
 13 16  1  0  0  0  0
 16 17  1  0  0  0  0
 16 18  1  0  0  0  0
 16 19  1  0  0  0  0
 19 20  1  0  0  0  0
 19 21  1  0  0  0  0
 19 22  1  0  0  0  0
 22 23  1  0  0  0  0
 22 24  1  0  0  0  0
 22 25  1  0  0  0  0
M  END
> <VConfSearch Rank>
776

> <Conf_Id>
89

> <Delta U+W>
2.903

> <U+W>
-48.726

> <U>
10.996

> <W>
-59.723

> <W(PB)>
-62.151

> <W(SA)>
2.428

> <Valence>
10.985

> <Coulomb>
-0.995

> <VdW>
1.006

> <VdW6>
-10.062

> <VdW12>
11.069

> <Bond>
0.238

> <Angle>
3.202

> <Pdih>
7.544

> <Idih>
0.001

> <Tether>
0.000

$$$$
VeraChem MOL file


 25 24  0  0  0  0  0  0  0  0999 V2000     
   17.5940   16.6218   23.3645 C   0  0  0  0  0  0  0  0  0  0  0  0
   17.5191   16.3726   24.5517 O   0  5  0  0  0  0  0  0  0  0  0  0
   16.6882   17.1209   22.7257 O   0  0  0  0  0  0  0  0  0  0  0  0
   18.8709   16.2266   22.6252 C   0  0  0  0  0  0  0  0  0  0  0  0
   18.5804   15.4581   21.8996 H   0  0  0  0  0  0  0  0  0  0  0  0
   19.5585   15.7464   23.3319 H   0  0  0  0  0  0  0  0  0  0  0  0
   19.5894   17.3838   21.8754 C   0  0  0  0  0  0  0  0  0  0  0  0
   20.2279   16.9387   21.1004 H   0  0  0  0  0  0  0  0  0  0  0  0
   18.8525   17.9998   21.3416 H   0  0  0  0  0  0  0  0  0  0  0  0
   20.4864   18.2802   22.7653 C   0  0  0  0  0  0  0  0  0  0  0  0
   21.0612   18.9378   22.1014 H   0  0  0  0  0  0  0  0  0  0  0  0
   21.2204   17.6581   23.2952 H   0  0  0  0  0  0  0  0  0  0  0  0
   19.7021   19.1415   23.7848 C   0  0  0  0  0  0  0  0  0  0  0  0
   18.9256   19.7201   23.2662 H   0  0  0  0  0  0  0  0  0  0  0  0
   19.1813   18.4822   24.4896 H   0  0  0  0  0  0  0  0  0  0  0  0
   20.6003   20.0959   24.6081 C   0  0  0  0  0  0  0  0  0  0  0  0
   21.3961   19.5201   25.1001 H   0  0  0  0  0  0  0  0  0  0  0  0
   19.9930   20.5343   25.4117 H   0  0  0  0  0  0  0  0  0  0  0  0
   21.2209   21.2392   23.7731 C   0  0  0  0  0  0  0  0  0  0  0  0
   21.8992   20.8303   23.0132 H   0  0  0  0  0  0  0  0  0  0  0  0
   20.4279   21.7795   23.2378 H   0  0  0  0  0  0  0  0  0  0  0  0
   22.0033   22.2274   24.6616 C   0  0  0  0  0  0  0  0  0  0  0  0
   22.8207   21.7183   25.1889 H   0  0  0  0  0  0  0  0  0  0  0  0
   22.4401   23.0309   24.0545 H   0  0  0  0  0  0  0  0  0  0  0  0
   21.3461   22.6880   25.4108 H   0  0  0  0  0  0  0  0  0  0  0  0
  1  2  1  0  0  0  0
  1  3  2  0  0  0  0
  1  4  1  0  0  0  0
  4  5  1  0  0  0  0
  4  6  1  0  0  0  0
  4  7  1  0  0  0  0
  7  8  1  0  0  0  0
  7  9  1  0  0  0  0
  7 10  1  0  0  0  0
 10 11  1  0  0  0  0
 10 12  1  0  0  0  0
 10 13  1  0  0  0  0
 13 14  1  0  0  0  0
 13 15  1  0  0  0  0
 13 16  1  0  0  0  0
 16 17  1  0  0  0  0
 16 18  1  0  0  0  0
 16 19  1  0  0  0  0
 19 20  1  0  0  0  0
 19 21  1  0  0  0  0
 19 22  1  0  0  0  0
 22 23  1  0  0  0  0
 22 24  1  0  0  0  0
 22 25  1  0  0  0  0
M  END
> <VConfSearch Rank>
777

> <Conf_Id>
114

> <Delta U+W>
2.758

> <U+W>
-48.871

> <U>
11.422

> <W>
-60.293

> <W(PB)>
-62.719

> <W(SA)>
2.425

> <Valence>
10.135

> <Coulomb>
0.369

> <VdW>
0.918

> <VdW6>
-10.482

> <VdW12>
11.400

> <Bond>
0.245

> <Angle>
3.539

> <Pdih>
6.346

> <Idih>
0.006

> <Tether>
0.000

$$$$
VeraChem MOL file


 25 24  0  0  0  0  0  0  0  0999 V2000     
   17.6363   17.9187   25.9734 C   0  0  0  0  0  0  0  0  0  0  0  0
   16.9922   17.0481   25.4219 O   0  5  0  0  0  0  0  0  0  0  0  0
   18.3035   17.7317   26.9719 O   0  0  0  0  0  0  0  0  0  0  0  0
   17.5899   19.3297   25.3939 C   0  0  0  0  0  0  0  0  0  0  0  0
   17.4446   20.0236   26.2302 H   0  0  0  0  0  0  0  0  0  0  0  0
   16.7043   19.4157   24.7527 H   0  0  0  0  0  0  0  0  0  0  0  0
   18.8644   19.7282   24.6053 C   0  0  0  0  0  0  0  0  0  0  0  0
   18.8007   20.7917   24.3385 H   0  0  0  0  0  0  0  0  0  0  0  0
   19.7371   19.6168   25.2621 H   0  0  0  0  0  0  0  0  0  0  0  0
   19.0505   18.8887   23.3185 C   0  0  0  0  0  0  0  0  0  0  0  0
   18.1284   18.9410   22.7236 H   0  0  0  0  0  0  0  0  0  0  0  0
   19.1899   17.8305   23.5794 H   0  0  0  0  0  0  0  0  0  0  0  0
   20.2302   19.3618   22.4357 C   0  0  0  0  0  0  0  0  0  0  0  0
   20.1887   18.8073   21.4897 H   0  0  0  0  0  0  0  0  0  0  0  0
   20.0977   20.4221   22.1814 H   0  0  0  0  0  0  0  0  0  0  0  0
   21.6160   19.1509   23.0942 C   0  0  0  0  0  0  0  0  0  0  0  0
   21.7463   18.0910   23.3517 H   0  0  0  0  0  0  0  0  0  0  0  0
   21.6606   19.7084   24.0383 H   0  0  0  0  0  0  0  0  0  0  0  0
   22.7948   19.6169   22.2079 C   0  0  0  0  0  0  0  0  0  0  0  0
   22.6617   20.6738   21.9388 H   0  0  0  0  0  0  0  0  0  0  0  0
   23.7205   19.5615   22.7971 H   0  0  0  0  0  0  0  0  0  0  0  0
   22.9723   18.7720   20.9274 C   0  0  0  0  0  0  0  0  0  0  0  0
   23.8758   19.0814   20.3862 H   0  0  0  0  0  0  0  0  0  0  0  0
   23.0726   17.7062   21.1706 H   0  0  0  0  0  0  0  0  0  0  0  0
   22.1210   18.8915   20.2459 H   0  0  0  0  0  0  0  0  0  0  0  0
  1  2  1  0  0  0  0
  1  3  2  0  0  0  0
  1  4  1  0  0  0  0
  4  5  1  0  0  0  0
  4  6  1  0  0  0  0
  4  7  1  0  0  0  0
  7  8  1  0  0  0  0
  7  9  1  0  0  0  0
  7 10  1  0  0  0  0
 10 11  1  0  0  0  0
 10 12  1  0  0  0  0
 10 13  1  0  0  0  0
 13 14  1  0  0  0  0
 13 15  1  0  0  0  0
 13 16  1  0  0  0  0
 16 17  1  0  0  0  0
 16 18  1  0  0  0  0
 16 19  1  0  0  0  0
 19 20  1  0  0  0  0
 19 21  1  0  0  0  0
 19 22  1  0  0  0  0
 22 23  1  0  0  0  0
 22 24  1  0  0  0  0
 22 25  1  0  0  0  0
M  END
> <VConfSearch Rank>
778

> <Conf_Id>
87

> <Delta U+W>
1.453

> <U+W>
-50.176

> <U>
9.763

> <W>
-59.940

> <W(PB)>
-62.392

> <W(SA)>
2.452

> <Valence>
8.883

> <Coulomb>
-0.122

> <VdW>
1.003

> <VdW6>
-9.782

> <VdW12>
10.785

> <Bond>
0.212

> <Angle>
2.940

> <Pdih>
5.730

> <Idih>
0.001

> <Tether>
0.000

$$$$
VeraChem MOL file


 25 24  0  0  0  0  0  0  0  0999 V2000     
   21.6900   16.1768   25.4599 C   0  0  0  0  0  0  0  0  0  0  0  0
   22.2398   15.5179   24.5996 O   0  5  0  0  0  0  0  0  0  0  0  0
   22.1080   16.2841   26.5959 O   0  0  0  0  0  0  0  0  0  0  0  0
   20.4148   16.9252   25.0886 C   0  0  0  0  0  0  0  0  0  0  0  0
   19.7712   16.9627   25.9757 H   0  0  0  0  0  0  0  0  0  0  0  0
   19.8851   16.3394   24.3277 H   0  0  0  0  0  0  0  0  0  0  0  0
   20.6886   18.3566   24.5649 C   0  0  0  0  0  0  0  0  0  0  0  0
   21.2265   18.9284   25.3336 H   0  0  0  0  0  0  0  0  0  0  0  0
   21.3497   18.2943   23.6904 H   0  0  0  0  0  0  0  0  0  0  0  0
   19.3803   19.0901   24.1893 C   0  0  0  0  0  0  0  0  0  0  0  0
   18.7044   19.0812   25.0552 H   0  0  0  0  0  0  0  0  0  0  0  0
   18.8616   18.5405   23.3928 H   0  0  0  0  0  0  0  0  0  0  0  0
   19.6005   20.5616   23.7575 C   0  0  0  0  0  0  0  0  0  0  0  0
   18.6237   21.0250   23.5668 H   0  0  0  0  0  0  0  0  0  0  0  0
   20.0328   21.1171   24.6007 H   0  0  0  0  0  0  0  0  0  0  0  0
   20.5108   20.7590   22.5165 C   0  0  0  0  0  0  0  0  0  0  0  0
   21.5337   20.4453   22.7624 H   0  0  0  0  0  0  0  0  0  0  0  0
   20.5752   21.8334   22.2974 H   0  0  0  0  0  0  0  0  0  0  0  0
   20.0521   20.0163   21.2373 C   0  0  0  0  0  0  0  0  0  0  0  0
   20.7822   20.2092   20.4395 H   0  0  0  0  0  0  0  0  0  0  0  0
   20.0654   18.9312   21.4052 H   0  0  0  0  0  0  0  0  0  0  0  0
   18.6539   20.4512   20.7475 C   0  0  0  0  0  0  0  0  0  0  0  0
   18.6134   21.5367   20.5888 H   0  0  0  0  0  0  0  0  0  0  0  0
   18.4099   19.9604   19.7966 H   0  0  0  0  0  0  0  0  0  0  0  0
   17.8756   20.1796   21.4718 H   0  0  0  0  0  0  0  0  0  0  0  0
  1  2  1  0  0  0  0
  1  3  2  0  0  0  0
  1  4  1  0  0  0  0
  4  5  1  0  0  0  0
  4  6  1  0  0  0  0
  4  7  1  0  0  0  0
  7  8  1  0  0  0  0
  7  9  1  0  0  0  0
  7 10  1  0  0  0  0
 10 11  1  0  0  0  0
 10 12  1  0  0  0  0
 10 13  1  0  0  0  0
 13 14  1  0  0  0  0
 13 15  1  0  0  0  0
 13 16  1  0  0  0  0
 16 17  1  0  0  0  0
 16 18  1  0  0  0  0
 16 19  1  0  0  0  0
 19 20  1  0  0  0  0
 19 21  1  0  0  0  0
 19 22  1  0  0  0  0
 22 23  1  0  0  0  0
 22 24  1  0  0  0  0
 22 25  1  0  0  0  0
M  END
> <VConfSearch Rank>
779

> <Conf_Id>
29

> <Delta U+W>
0.850

> <U+W>
-50.780

> <U>
8.646

> <W>
-59.426

> <W(PB)>
-61.868

> <W(SA)>
2.442

> <Valence>
8.924

> <Coulomb>
-1.171

> <VdW>
0.894

> <VdW6>
-10.223

> <VdW12>
11.117

> <Bond>
0.231

> <Angle>
3.232

> <Pdih>
5.461

> <Idih>
0.001

> <Tether>
0.000

$$$$
VeraChem MOL file


 25 24  0  0  0  0  0  0  0  0999 V2000     
   19.6013   21.6619   20.2784 C   0  0  0  0  0  0  0  0  0  0  0  0
   18.4490   21.4689   19.9443 O   0  5  0  0  0  0  0  0  0  0  0  0
   20.4863   21.9619   19.5016 O   0  0  0  0  0  0  0  0  0  0  0  0
   19.9606   21.5003   21.7512 C   0  0  0  0  0  0  0  0  0  0  0  0
   19.0883   21.7915   22.3486 H   0  0  0  0  0  0  0  0  0  0  0  0
   20.7651   22.2078   21.9851 H   0  0  0  0  0  0  0  0  0  0  0  0
   20.3951   20.0578   22.1093 C   0  0  0  0  0  0  0  0  0  0  0  0
   19.5825   19.3670   21.8481 H   0  0  0  0  0  0  0  0  0  0  0  0
   21.2637   19.7772   21.4978 H   0  0  0  0  0  0  0  0  0  0  0  0
   20.7464   19.9201   23.6087 C   0  0  0  0  0  0  0  0  0  0  0  0
   19.8671   20.1616   24.2202 H   0  0  0  0  0  0  0  0  0  0  0  0
   21.5108   20.6657   23.8666 H   0  0  0  0  0  0  0  0  0  0  0  0
   21.2846   18.5181   23.9897 C   0  0  0  0  0  0  0  0  0  0  0  0
   22.2165   18.3346   23.4380 H   0  0  0  0  0  0  0  0  0  0  0  0
   21.5645   18.5223   25.0513 H   0  0  0  0  0  0  0  0  0  0  0  0
   20.3114   17.3395   23.7225 C   0  0  0  0  0  0  0  0  0  0  0  0
   20.7929   16.4076   24.0486 H   0  0  0  0  0  0  0  0  0  0  0  0
   20.1598   17.2314   22.6406 H   0  0  0  0  0  0  0  0  0  0  0  0
   18.9303   17.4550   24.4136 C   0  0  0  0  0  0  0  0  0  0  0  0
   18.3912   18.3340   24.0360 H   0  0  0  0  0  0  0  0  0  0  0  0
   18.3241   16.5830   24.1326 H   0  0  0  0  0  0  0  0  0  0  0  0
   19.0222   17.5213   25.9535 C   0  0  0  0  0  0  0  0  0  0  0  0
   19.5301   18.4363   26.2833 H   0  0  0  0  0  0  0  0  0  0  0  0
   18.0190   17.5181   26.3989 H   0  0  0  0  0  0  0  0  0  0  0  0
   19.5724   16.6589   26.3515 H   0  0  0  0  0  0  0  0  0  0  0  0
  1  2  1  0  0  0  0
  1  3  2  0  0  0  0
  1  4  1  0  0  0  0
  4  5  1  0  0  0  0
  4  6  1  0  0  0  0
  4  7  1  0  0  0  0
  7  8  1  0  0  0  0
  7  9  1  0  0  0  0
  7 10  1  0  0  0  0
 10 11  1  0  0  0  0
 10 12  1  0  0  0  0
 10 13  1  0  0  0  0
 13 14  1  0  0  0  0
 13 15  1  0  0  0  0
 13 16  1  0  0  0  0
 16 17  1  0  0  0  0
 16 18  1  0  0  0  0
 16 19  1  0  0  0  0
 19 20  1  0  0  0  0
 19 21  1  0  0  0  0
 19 22  1  0  0  0  0
 22 23  1  0  0  0  0
 22 24  1  0  0  0  0
 22 25  1  0  0  0  0
M  END
> <VConfSearch Rank>
780

> <Conf_Id>
30

> <Delta U+W>
0.843

> <U+W>
-50.787

> <U>
8.647

> <W>
-59.434

> <W(PB)>
-61.861

> <W(SA)>
2.428

> <Valence>
8.924

> <Coulomb>
-1.170

> <VdW>
0.894

> <VdW6>
-10.224

> <VdW12>
11.118

> <Bond>
0.231

> <Angle>
3.232

> <Pdih>
5.460

> <Idih>
0.000

> <Tether>
0.000

$$$$
VeraChem MOL file


 25 24  0  0  0  0  0  0  0  0999 V2000     
   20.9375   17.9328   27.5823 C   0  0  0  0  0  0  0  0  0  0  0  0
   19.7667   17.9872   27.9060 O   0  5  0  0  0  0  0  0  0  0  0  0
   21.8263   17.6311   28.3537 O   0  0  0  0  0  0  0  0  0  0  0  0
   21.3422   18.2544   26.1427 C   0  0  0  0  0  0  0  0  0  0  0  0
   21.8697   17.3781   25.7480 H   0  0  0  0  0  0  0  0  0  0  0  0
   22.0681   19.0749   26.1828 H   0  0  0  0  0  0  0  0  0  0  0  0
   20.1731   18.6338   25.1953 C   0  0  0  0  0  0  0  0  0  0  0  0
   19.4465   17.8100   25.1649 H   0  0  0  0  0  0  0  0  0  0  0  0
   19.6451   19.5084   25.6000 H   0  0  0  0  0  0  0  0  0  0  0  0
   20.6692   18.9420   23.7657 C   0  0  0  0  0  0  0  0  0  0  0  0
   21.1967   18.0663   23.3632 H   0  0  0  0  0  0  0  0  0  0  0  0
   21.3954   19.7658   23.7986 H   0  0  0  0  0  0  0  0  0  0  0  0
   19.5046   19.3192   22.8250 C   0  0  0  0  0  0  0  0  0  0  0  0
   18.7782   18.4956   22.7919 H   0  0  0  0  0  0  0  0  0  0  0  0
   18.9770   20.1949   23.2272 H   0  0  0  0  0  0  0  0  0  0  0  0
   20.0000   19.6275   21.3955 C   0  0  0  0  0  0  0  0  0  0  0  0
   20.5276   18.7519   20.9930 H   0  0  0  0  0  0  0  0  0  0  0  0
   20.7263   20.4512   21.4283 H   0  0  0  0  0  0  0  0  0  0  0  0
   18.8360   20.0045   20.4550 C   0  0  0  0  0  0  0  0  0  0  0  0
   18.1082   19.1820   20.4181 H   0  0  0  0  0  0  0  0  0  0  0  0
   18.3069   20.8813   20.8534 H   0  0  0  0  0  0  0  0  0  0  0  0
   19.3347   20.3116   19.0286 C   0  0  0  0  0  0  0  0  0  0  0  0
   19.8409   19.4400   18.5933 H   0  0  0  0  0  0  0  0  0  0  0  0
   18.4946   20.5775   18.3739 H   0  0  0  0  0  0  0  0  0  0  0  0
   20.0410   21.1521   19.0319 H   0  0  0  0  0  0  0  0  0  0  0  0
  1  2  1  0  0  0  0
  1  3  2  0  0  0  0
  1  4  1  0  0  0  0
  4  5  1  0  0  0  0
  4  6  1  0  0  0  0
  4  7  1  0  0  0  0
  7  8  1  0  0  0  0
  7  9  1  0  0  0  0
  7 10  1  0  0  0  0
 10 11  1  0  0  0  0
 10 12  1  0  0  0  0
 10 13  1  0  0  0  0
 13 14  1  0  0  0  0
 13 15  1  0  0  0  0
 13 16  1  0  0  0  0
 16 17  1  0  0  0  0
 16 18  1  0  0  0  0
 16 19  1  0  0  0  0
 19 20  1  0  0  0  0
 19 21  1  0  0  0  0
 19 22  1  0  0  0  0
 22 23  1  0  0  0  0
 22 24  1  0  0  0  0
 22 25  1  0  0  0  0
M  END
> <VConfSearch Rank>
781

> <Conf_Id>
0

> <Delta U+W>
0.000

> <U+W>
-51.629

> <U>
6.586

> <W>
-58.216

> <W(PB)>
-60.757

> <W(SA)>
2.541

> <Valence>
8.027

> <Coulomb>
-2.892

> <VdW>
1.451

> <VdW6>
-7.931

> <VdW12>
9.383

> <Bond>
0.149

> <Angle>
2.726

> <Pdih>
5.152

> <Idih>
0.000

> <Tether>
0.000

$$$$
VeraChem MOL file


 25 24  0  0  0  0  0  0  0  0999 V2000     
   22.0419   14.8965   22.8894 C   0  0  0  0  0  0  0  0  0  0  0  0
   21.2532   14.0019   22.6565 O   0  5  0  0  0  0  0  0  0  0  0  0
   23.1984   14.8888   22.5163 O   0  0  0  0  0  0  0  0  0  0  0  0
   21.5468   16.1064   23.6736 C   0  0  0  0  0  0  0  0  0  0  0  0
   22.3845   16.4952   24.2649 H   0  0  0  0  0  0  0  0  0  0  0  0
   20.7819   15.7641   24.3810 H   0  0  0  0  0  0  0  0  0  0  0  0
   20.9730   17.2196   22.7628 C   0  0  0  0  0  0  0  0  0  0  0  0
   21.7468   17.5419   22.0522 H   0  0  0  0  0  0  0  0  0  0  0  0
   20.1443   16.8107   22.1682 H   0  0  0  0  0  0  0  0  0  0  0  0
   20.4785   18.4329   23.5798 C   0  0  0  0  0  0  0  0  0  0  0  0
   21.3089   18.8386   24.1739 H   0  0  0  0  0  0  0  0  0  0  0  0
   19.7061   18.1072   24.2900 H   0  0  0  0  0  0  0  0  0  0  0  0
   19.9069   19.5409   22.6692 C   0  0  0  0  0  0  0  0  0  0  0  0
   20.6791   19.8668   21.9589 H   0  0  0  0  0  0  0  0  0  0  0  0
   19.0765   19.1354   22.0750 H   0  0  0  0  0  0  0  0  0  0  0  0
   19.4122   20.7545   23.4854 C   0  0  0  0  0  0  0  0  0  0  0  0
   20.2424   21.1603   24.0797 H   0  0  0  0  0  0  0  0  0  0  0  0
   18.6399   20.4289   24.1958 H   0  0  0  0  0  0  0  0  0  0  0  0
   18.8407   21.8620   22.5754 C   0  0  0  0  0  0  0  0  0  0  0  0
   19.6111   22.1916   21.8646 H   0  0  0  0  0  0  0  0  0  0  0  0
   18.0086   21.4602   21.9807 H   0  0  0  0  0  0  0  0  0  0  0  0
   18.3478   23.0721   23.3942 C   0  0  0  0  0  0  0  0  0  0  0  0
   17.9450   23.8493   22.7318 H   0  0  0  0  0  0  0  0  0  0  0  0
   17.5535   22.7767   24.0923 H   0  0  0  0  0  0  0  0  0  0  0  0
   19.1681   23.5137   23.9752 H   0  0  0  0  0  0  0  0  0  0  0  0
  1  2  1  0  0  0  0
  1  3  2  0  0  0  0
  1  4  1  0  0  0  0
  4  5  1  0  0  0  0
  4  6  1  0  0  0  0
  4  7  1  0  0  0  0
  7  8  1  0  0  0  0
  7  9  1  0  0  0  0
  7 10  1  0  0  0  0
 10 11  1  0  0  0  0
 10 12  1  0  0  0  0
 10 13  1  0  0  0  0
 13 14  1  0  0  0  0
 13 15  1  0  0  0  0
 13 16  1  0  0  0  0
 16 17  1  0  0  0  0
 16 18  1  0  0  0  0
 16 19  1  0  0  0  0
 19 20  1  0  0  0  0
 19 21  1  0  0  0  0
 19 22  1  0  0  0  0
 22 23  1  0  0  0  0
 22 24  1  0  0  0  0
 22 25  1  0  0  0  0
M  END
> <VConfSearch Rank>
782

> <Conf_Id>
27

> <Delta U+W>
-1.297

> <U+W>
-52.926

> <U>
5.617

> <W>
-58.543

> <W(PB)>
-61.065

> <W(SA)>
2.522

> <Valence>
7.531

> <Coulomb>
-2.818

> <VdW>
0.904

> <VdW6>
-7.640

> <VdW12>
8.544

> <Bond>
0.115

> <Angle>
2.271

> <Pdih>
5.144

> <Idih>
0.001

> <Tether>
0.000

$$$$
VeraChem MOL file


 25 24  0  0  0  0  0  0  0  0999 V2000     
   17.7557   21.2064   25.7173 C   0  0  0  0  0  0  0  0  0  0  0  0
   16.9548   21.8858   25.1057 O   0  5  0  0  0  0  0  0  0  0  0  0
   17.4436   20.2558   26.4070 O   0  0  0  0  0  0  0  0  0  0  0  0
   19.2326   21.5800   25.6261 C   0  0  0  0  0  0  0  0  0  0  0  0
   19.7627   21.1199   26.4689 H   0  0  0  0  0  0  0  0  0  0  0  0
   19.3050   22.6657   25.7601 H   0  0  0  0  0  0  0  0  0  0  0  0
   19.9032   21.1771   24.2871 C   0  0  0  0  0  0  0  0  0  0  0  0
   19.3448   21.6225   23.4520 H   0  0  0  0  0  0  0  0  0  0  0  0
   20.9153   21.6024   24.2533 H   0  0  0  0  0  0  0  0  0  0  0  0
   19.9878   19.6453   24.1022 C   0  0  0  0  0  0  0  0  0  0  0  0
   18.9772   19.2141   24.1174 H   0  0  0  0  0  0  0  0  0  0  0  0
   20.5350   19.2033   24.9462 H   0  0  0  0  0  0  0  0  0  0  0  0
   20.6869   19.2669   22.7786 C   0  0  0  0  0  0  0  0  0  0  0  0
   20.1390   19.7092   21.9353 H   0  0  0  0  0  0  0  0  0  0  0  0
   21.6988   19.6945   22.7625 H   0  0  0  0  0  0  0  0  0  0  0  0
   20.7711   17.7365   22.5927 C   0  0  0  0  0  0  0  0  0  0  0  0
   19.7592   17.3087   22.6089 H   0  0  0  0  0  0  0  0  0  0  0  0
   21.3186   17.2939   23.4362 H   0  0  0  0  0  0  0  0  0  0  0  0
   21.4693   17.3578   21.2697 C   0  0  0  0  0  0  0  0  0  0  0  0
   20.9232   17.7974   20.4236 H   0  0  0  0  0  0  0  0  0  0  0  0
   22.4826   17.7824   21.2509 H   0  0  0  0  0  0  0  0  0  0  0  0
   21.5512   15.8288   21.0879 C   0  0  0  0  0  0  0  0  0  0  0  0
   20.5489   15.3810   21.0714 H   0  0  0  0  0  0  0  0  0  0  0  0
   22.0501   15.5777   20.1428 H   0  0  0  0  0  0  0  0  0  0  0  0
   22.1200   15.3659   21.9049 H   0  0  0  0  0  0  0  0  0  0  0  0
  1  2  1  0  0  0  0
  1  3  2  0  0  0  0
  1  4  1  0  0  0  0
  4  5  1  0  0  0  0
  4  6  1  0  0  0  0
  4  7  1  0  0  0  0
  7  8  1  0  0  0  0
  7  9  1  0  0  0  0
  7 10  1  0  0  0  0
 10 11  1  0  0  0  0
 10 12  1  0  0  0  0
 10 13  1  0  0  0  0
 13 14  1  0  0  0  0
 13 15  1  0  0  0  0
 13 16  1  0  0  0  0
 16 17  1  0  0  0  0
 16 18  1  0  0  0  0
 16 19  1  0  0  0  0
 19 20  1  0  0  0  0
 19 21  1  0  0  0  0
 19 22  1  0  0  0  0
 22 23  1  0  0  0  0
 22 24  1  0  0  0  0
 22 25  1  0  0  0  0
M  END
> <VConfSearch Rank>
783

> <Conf_Id>
37

> <Delta U+W>
-0.230

> <U+W>
-51.860

> <U>
7.816

> <W>
-59.675

> <W(PB)>
-62.180

> <W(SA)>
2.505

> <Valence>
7.785

> <Coulomb>
-0.713

> <VdW>
0.744

> <VdW6>
-8.514

> <VdW12>
9.259

> <Bond>
0.136

> <Angle>
2.433

> <Pdih>
5.216

> <Idih>
0.000

> <Tether>
0.000

$$$$
VeraChem MOL file


 25 24  0  0  0  0  0  0  0  0999 V2000     
   19.4647   20.3685   27.1925 C   0  0  0  0  0  0  0  0  0  0  0  0
   19.1213   21.5244   27.3445 O   0  5  0  0  0  0  0  0  0  0  0  0
   20.5381   19.9319   27.5588 O   0  0  0  0  0  0  0  0  0  0  0  0
   18.4861   19.4107   26.5189 C   0  0  0  0  0  0  0  0  0  0  0  0
   17.5016   19.5753   26.9725 H   0  0  0  0  0  0  0  0  0  0  0  0
   18.7796   18.3822   26.7618 H   0  0  0  0  0  0  0  0  0  0  0  0
   18.3852   19.5903   24.9819 C   0  0  0  0  0  0  0  0  0  0  0  0
   17.5667   18.9635   24.6028 H   0  0  0  0  0  0  0  0  0  0  0  0
   18.1178   20.6316   24.7540 H   0  0  0  0  0  0  0  0  0  0  0  0
   19.6945   19.2144   24.2525 C   0  0  0  0  0  0  0  0  0  0  0  0
   19.9646   18.1773   24.4941 H   0  0  0  0  0  0  0  0  0  0  0  0
   20.5152   19.8494   24.6140 H   0  0  0  0  0  0  0  0  0  0  0  0
   19.5616   19.3703   22.7222 C   0  0  0  0  0  0  0  0  0  0  0  0
   18.7434   18.7340   22.3580 H   0  0  0  0  0  0  0  0  0  0  0  0
   19.2917   20.4077   22.4816 H   0  0  0  0  0  0  0  0  0  0  0  0
   20.8697   18.9955   21.9927 C   0  0  0  0  0  0  0  0  0  0  0  0
   21.1400   17.9582   22.2335 H   0  0  0  0  0  0  0  0  0  0  0  0
   21.6881   19.6317   22.3570 H   0  0  0  0  0  0  0  0  0  0  0  0
   20.7375   19.1517   20.4632 C   0  0  0  0  0  0  0  0  0  0  0  0
   19.9209   18.5153   20.0950 H   0  0  0  0  0  0  0  0  0  0  0  0
   20.4691   20.1888   20.2186 H   0  0  0  0  0  0  0  0  0  0  0  0
   22.0459   18.7766   19.7386 C   0  0  0  0  0  0  0  0  0  0  0  0
   22.3215   17.7332   19.9406 H   0  0  0  0  0  0  0  0  0  0  0  0
   21.9340   18.8934   18.6528 H   0  0  0  0  0  0  0  0  0  0  0  0
   22.8739   19.4194   20.0651 H   0  0  0  0  0  0  0  0  0  0  0  0
  1  2  1  0  0  0  0
  1  3  2  0  0  0  0
  1  4  1  0  0  0  0
  4  5  1  0  0  0  0
  4  6  1  0  0  0  0
  4  7  1  0  0  0  0
  7  8  1  0  0  0  0
  7  9  1  0  0  0  0
  7 10  1  0  0  0  0
 10 11  1  0  0  0  0
 10 12  1  0  0  0  0
 10 13  1  0  0  0  0
 13 14  1  0  0  0  0
 13 15  1  0  0  0  0
 13 16  1  0  0  0  0
 16 17  1  0  0  0  0
 16 18  1  0  0  0  0
 16 19  1  0  0  0  0
 19 20  1  0  0  0  0
 19 21  1  0  0  0  0
 19 22  1  0  0  0  0
 22 23  1  0  0  0  0
 22 24  1  0  0  0  0
 22 25  1  0  0  0  0
M  END
> <VConfSearch Rank>
784

> <Conf_Id>
54

> <Delta U+W>
-0.224

> <U+W>
-51.854

> <U>
7.816

> <W>
-59.670

> <W(PB)>
-62.157

> <W(SA)>
2.487

> <Valence>
7.785

> <Coulomb>
-0.713

> <VdW>
0.744

> <VdW6>
-8.515

> <VdW12>
9.259

> <Bond>
0.136

> <Angle>
2.433

> <Pdih>
5.215

> <Idih>
0.000

> <Tether>
0.000

$$$$
VeraChem MOL file


 25 24  0  0  0  0  0  0  0  0999 V2000     
   19.8142   20.4102   27.1477 C   0  0  0  0  0  0  0  0  0  0  0  0
   19.2891   21.5032   27.0656 O   0  5  0  0  0  0  0  0  0  0  0  0
   19.4252   19.5313   27.8914 O   0  0  0  0  0  0  0  0  0  0  0  0
   21.0409   20.1305   26.2839 C   0  0  0  0  0  0  0  0  0  0  0  0
   21.7950   19.6638   26.9286 H   0  0  0  0  0  0  0  0  0  0  0  0
   21.4587   21.0872   25.9479 H   0  0  0  0  0  0  0  0  0  0  0  0
   20.7608   19.2114   25.0663 C   0  0  0  0  0  0  0  0  0  0  0  0
   21.7201   18.9448   24.6055 H   0  0  0  0  0  0  0  0  0  0  0  0
   20.3048   18.2745   25.4152 H   0  0  0  0  0  0  0  0  0  0  0  0
   19.8437   19.8818   24.0149 C   0  0  0  0  0  0  0  0  0  0  0  0
   20.3215   20.7944   23.6332 H   0  0  0  0  0  0  0  0  0  0  0  0
   18.9127   20.2018   24.5025 H   0  0  0  0  0  0  0  0  0  0  0  0
   19.4765   18.9546   22.8315 C   0  0  0  0  0  0  0  0  0  0  0  0
   19.0160   18.0340   23.2149 H   0  0  0  0  0  0  0  0  0  0  0  0
   18.7088   19.4599   22.2319 H   0  0  0  0  0  0  0  0  0  0  0  0
   20.6823   18.5993   21.9266 C   0  0  0  0  0  0  0  0  0  0  0  0
   21.4483   18.0872   22.5223 H   0  0  0  0  0  0  0  0  0  0  0  0
   21.1454   19.5204   21.5477 H   0  0  0  0  0  0  0  0  0  0  0  0
   20.3093   17.6815   20.7387 C   0  0  0  0  0  0  0  0  0  0  0  0
   21.2334   17.3678   20.2338 H   0  0  0  0  0  0  0  0  0  0  0  0
   19.8342   16.7643   21.1132 H   0  0  0  0  0  0  0  0  0  0  0  0
   19.3863   18.3607   19.7035 C   0  0  0  0  0  0  0  0  0  0  0  0
   18.4003   18.5838   20.1295 H   0  0  0  0  0  0  0  0  0  0  0  0
   19.8259   19.2989   19.3408 H   0  0  0  0  0  0  0  0  0  0  0  0
   19.2320   17.7034   18.8380 H   0  0  0  0  0  0  0  0  0  0  0  0
  1  2  1  0  0  0  0
  1  3  2  0  0  0  0
  1  4  1  0  0  0  0
  4  5  1  0  0  0  0
  4  6  1  0  0  0  0
  4  7  1  0  0  0  0
  7  8  1  0  0  0  0
  7  9  1  0  0  0  0
  7 10  1  0  0  0  0
 10 11  1  0  0  0  0
 10 12  1  0  0  0  0
 10 13  1  0  0  0  0
 13 14  1  0  0  0  0
 13 15  1  0  0  0  0
 13 16  1  0  0  0  0
 16 17  1  0  0  0  0
 16 18  1  0  0  0  0
 16 19  1  0  0  0  0
 19 20  1  0  0  0  0
 19 21  1  0  0  0  0
 19 22  1  0  0  0  0
 22 23  1  0  0  0  0
 22 24  1  0  0  0  0
 22 25  1  0  0  0  0
M  END
> <VConfSearch Rank>
785

> <Conf_Id>
101

> <Delta U+W>
1.534

> <U+W>
-50.095

> <U>
9.416

> <W>
-59.512

> <W(PB)>
-61.988

> <W(SA)>
2.476

> <Valence>
8.939

> <Coulomb>
-0.615

> <VdW>
1.092

> <VdW6>
-9.710

> <VdW12>
10.802

> <Bond>
0.216

> <Angle>
2.979

> <Pdih>
5.743

> <Idih>
0.000

> <Tether>
0.000

$$$$
VeraChem MOL file


 25 24  0  0  0  0  0  0  0  0999 V2000     
   20.5890   17.9948   19.2864 C   0  0  0  0  0  0  0  0  0  0  0  0
   21.6239   17.3611   19.2236 O   0  5  0  0  0  0  0  0  0  0  0  0
   19.7016   17.9182   18.4597 O   0  0  0  0  0  0  0  0  0  0  0  0
   20.3825   18.9203   20.4802 C   0  0  0  0  0  0  0  0  0  0  0  0
   19.7694   19.7678   20.1512 H   0  0  0  0  0  0  0  0  0  0  0  0
   21.3626   19.3185   20.7653 H   0  0  0  0  0  0  0  0  0  0  0  0
   19.7092   18.2072   21.6817 C   0  0  0  0  0  0  0  0  0  0  0  0
   18.7785   17.7374   21.3343 H   0  0  0  0  0  0  0  0  0  0  0  0
   20.3551   17.3912   22.0341 H   0  0  0  0  0  0  0  0  0  0  0  0
   19.3746   19.1548   22.8585 C   0  0  0  0  0  0  0  0  0  0  0  0
   18.7795   18.5910   23.5882 H   0  0  0  0  0  0  0  0  0  0  0  0
   18.7370   19.9750   22.5018 H   0  0  0  0  0  0  0  0  0  0  0  0
   20.6288   19.7333   23.5587 C   0  0  0  0  0  0  0  0  0  0  0  0
   21.2657   18.9136   23.9159 H   0  0  0  0  0  0  0  0  0  0  0  0
   21.2300   20.2903   22.8294 H   0  0  0  0  0  0  0  0  0  0  0  0
   20.2962   20.6936   24.7290 C   0  0  0  0  0  0  0  0  0  0  0  0
   19.7331   21.5510   24.3360 H   0  0  0  0  0  0  0  0  0  0  0  0
   21.2358   21.1040   25.1232 H   0  0  0  0  0  0  0  0  0  0  0  0
   19.4979   20.0671   25.8994 C   0  0  0  0  0  0  0  0  0  0  0  0
   19.3232   20.8432   26.6572 H   0  0  0  0  0  0  0  0  0  0  0  0
   18.5040   19.7519   25.5557 H   0  0  0  0  0  0  0  0  0  0  0  0
   20.2207   18.8768   26.5662 C   0  0  0  0  0  0  0  0  0  0  0  0
   21.2275   19.1634   26.8965 H   0  0  0  0  0  0  0  0  0  0  0  0
   19.6614   18.5310   27.4451 H   0  0  0  0  0  0  0  0  0  0  0  0
   20.3122   18.0289   25.8757 H   0  0  0  0  0  0  0  0  0  0  0  0
  1  2  1  0  0  0  0
  1  3  2  0  0  0  0
  1  4  1  0  0  0  0
  4  5  1  0  0  0  0
  4  6  1  0  0  0  0
  4  7  1  0  0  0  0
  7  8  1  0  0  0  0
  7  9  1  0  0  0  0
  7 10  1  0  0  0  0
 10 11  1  0  0  0  0
 10 12  1  0  0  0  0
 10 13  1  0  0  0  0
 13 14  1  0  0  0  0
 13 15  1  0  0  0  0
 13 16  1  0  0  0  0
 16 17  1  0  0  0  0
 16 18  1  0  0  0  0
 16 19  1  0  0  0  0
 19 20  1  0  0  0  0
 19 21  1  0  0  0  0
 19 22  1  0  0  0  0
 22 23  1  0  0  0  0
 22 24  1  0  0  0  0
 22 25  1  0  0  0  0
M  END
> <VConfSearch Rank>
786

> <Conf_Id>
75

> <Delta U+W>
1.014

> <U+W>
-50.615

> <U>
8.474

> <W>
-59.089

> <W(PB)>
-61.530

> <W(SA)>
2.441

> <Valence>
9.080

> <Coulomb>
-1.772

> <VdW>
1.165

> <VdW6>
-9.830

> <VdW12>
10.996

> <Bond>
0.240

> <Angle>
3.225

> <Pdih>
5.615

> <Idih>
0.001

> <Tether>
0.000

$$$$
VeraChem MOL file


 25 24  0  0  0  0  0  0  0  0999 V2000     
   23.6525   21.4521   23.0146 C   0  0  0  0  0  0  0  0  0  0  0  0
   23.7974   21.7968   21.8584 O   0  5  0  0  0  0  0  0  0  0  0  0
   24.1161   22.0573   23.9608 O   0  0  0  0  0  0  0  0  0  0  0  0
   22.8252   20.2027   23.2948 C   0  0  0  0  0  0  0  0  0  0  0  0
   23.2309   19.7195   24.1917 H   0  0  0  0  0  0  0  0  0  0  0  0
   22.9661   19.5064   22.4594 H   0  0  0  0  0  0  0  0  0  0  0  0
   21.3194   20.5089   23.4872 C   0  0  0  0  0  0  0  0  0  0  0  0
   21.1962   21.2170   24.3185 H   0  0  0  0  0  0  0  0  0  0  0  0
   20.9320   21.0041   22.5860 H   0  0  0  0  0  0  0  0  0  0  0  0
   20.5036   19.2284   23.7679 C   0  0  0  0  0  0  0  0  0  0  0  0
   20.8946   18.7367   24.6691 H   0  0  0  0  0  0  0  0  0  0  0  0
   20.6406   18.5226   22.9401 H   0  0  0  0  0  0  0  0  0  0  0  0
   19.0014   19.5403   23.9653 C   0  0  0  0  0  0  0  0  0  0  0  0
   18.9035   20.2230   24.8204 H   0  0  0  0  0  0  0  0  0  0  0  0
   18.6053   20.0811   23.0949 H   0  0  0  0  0  0  0  0  0  0  0  0
   18.1435   18.2796   24.2427 C   0  0  0  0  0  0  0  0  0  0  0  0
   17.3573   18.5528   24.9598 H   0  0  0  0  0  0  0  0  0  0  0  0
   18.7476   17.5096   24.7416 H   0  0  0  0  0  0  0  0  0  0  0  0
   17.4475   17.6834   22.9941 C   0  0  0  0  0  0  0  0  0  0  0  0
   16.8067   16.8511   23.3164 H   0  0  0  0  0  0  0  0  0  0  0  0
   16.7773   18.4338   22.5527 H   0  0  0  0  0  0  0  0  0  0  0  0
   18.4205   17.1678   21.9134 C   0  0  0  0  0  0  0  0  0  0  0  0
   19.1469   16.4642   22.3403 H   0  0  0  0  0  0  0  0  0  0  0  0
   17.8707   16.6469   21.1189 H   0  0  0  0  0  0  0  0  0  0  0  0
   18.9685   17.9960   21.4472 H   0  0  0  0  0  0  0  0  0  0  0  0
  1  2  1  0  0  0  0
  1  3  2  0  0  0  0
  1  4  1  0  0  0  0
  4  5  1  0  0  0  0
  4  6  1  0  0  0  0
  4  7  1  0  0  0  0
  7  8  1  0  0  0  0
  7  9  1  0  0  0  0
  7 10  1  0  0  0  0
 10 11  1  0  0  0  0
 10 12  1  0  0  0  0
 10 13  1  0  0  0  0
 13 14  1  0  0  0  0
 13 15  1  0  0  0  0
 13 16  1  0  0  0  0
 16 17  1  0  0  0  0
 16 18  1  0  0  0  0
 16 19  1  0  0  0  0
 19 20  1  0  0  0  0
 19 21  1  0  0  0  0
 19 22  1  0  0  0  0
 22 23  1  0  0  0  0
 22 24  1  0  0  0  0
 22 25  1  0  0  0  0
M  END
> <VConfSearch Rank>
787

> <Conf_Id>
125

> <Delta U+W>
2.314

> <U+W>
-49.315

> <U>
9.740

> <W>
-59.054

> <W(PB)>
-61.488

> <W(SA)>
2.433

> <Valence>
10.506

> <Coulomb>
-1.761

> <VdW>
0.994

> <VdW6>
-9.209

> <VdW12>
10.203

> <Bond>
0.193

> <Angle>
2.979

> <Pdih>
7.334

> <Idih>
0.001

> <Tether>
0.000

$$$$
VeraChem MOL file


 25 24  0  0  0  0  0  0  0  0999 V2000     
   19.5320   22.8619   21.7046 C   0  0  0  0  0  0  0  0  0  0  0  0
   19.0407   23.5231   22.5980 O   0  5  0  0  0  0  0  0  0  0  0  0
   19.6507   23.2573   20.5616 O   0  0  0  0  0  0  0  0  0  0  0  0
   20.0036   21.4492   22.0299 C   0  0  0  0  0  0  0  0  0  0  0  0
   20.3693   21.4501   23.0629 H   0  0  0  0  0  0  0  0  0  0  0  0
   20.8575   21.2180   21.3820 H   0  0  0  0  0  0  0  0  0  0  0  0
   18.8884   20.3874   21.8451 C   0  0  0  0  0  0  0  0  0  0  0  0
   18.0590   20.6030   22.5327 H   0  0  0  0  0  0  0  0  0  0  0  0
   18.4802   20.4783   20.8289 H   0  0  0  0  0  0  0  0  0  0  0  0
   19.3771   18.9343   22.0546 C   0  0  0  0  0  0  0  0  0  0  0  0
   20.1998   18.7188   21.3591 H   0  0  0  0  0  0  0  0  0  0  0  0
   18.5590   18.2506   21.7897 H   0  0  0  0  0  0  0  0  0  0  0  0
   19.8300   18.6405   23.5036 C   0  0  0  0  0  0  0  0  0  0  0  0
   20.6912   19.2714   23.7544 H   0  0  0  0  0  0  0  0  0  0  0  0
   19.0229   18.9037   24.2008 H   0  0  0  0  0  0  0  0  0  0  0  0
   20.2093   17.1532   23.6911 C   0  0  0  0  0  0  0  0  0  0  0  0
   21.0478   16.8990   23.0284 H   0  0  0  0  0  0  0  0  0  0  0  0
   19.3637   16.5259   23.3775 H   0  0  0  0  0  0  0  0  0  0  0  0
   20.5742   16.7904   25.1496 C   0  0  0  0  0  0  0  0  0  0  0  0
   19.7354   17.0384   25.8146 H   0  0  0  0  0  0  0  0  0  0  0  0
   20.7129   15.7026   25.2178 H   0  0  0  0  0  0  0  0  0  0  0  0
   21.8580   17.4872   25.6507 C   0  0  0  0  0  0  0  0  0  0  0  0
   21.7261   18.5746   25.7118 H   0  0  0  0  0  0  0  0  0  0  0  0
   22.1229   17.1282   26.6536 H   0  0  0  0  0  0  0  0  0  0  0  0
   22.7042   17.2793   24.9829 H   0  0  0  0  0  0  0  0  0  0  0  0
  1  2  1  0  0  0  0
  1  3  2  0  0  0  0
  1  4  1  0  0  0  0
  4  5  1  0  0  0  0
  4  6  1  0  0  0  0
  4  7  1  0  0  0  0
  7  8  1  0  0  0  0
  7  9  1  0  0  0  0
  7 10  1  0  0  0  0
 10 11  1  0  0  0  0
 10 12  1  0  0  0  0
 10 13  1  0  0  0  0
 13 14  1  0  0  0  0
 13 15  1  0  0  0  0
 13 16  1  0  0  0  0
 16 17  1  0  0  0  0
 16 18  1  0  0  0  0
 16 19  1  0  0  0  0
 19 20  1  0  0  0  0
 19 21  1  0  0  0  0
 19 22  1  0  0  0  0
 22 23  1  0  0  0  0
 22 24  1  0  0  0  0
 22 25  1  0  0  0  0
M  END
> <VConfSearch Rank>
788

> <Conf_Id>
4

> <Delta U+W>
0.189

> <U+W>
-51.441

> <U>
7.701

> <W>
-59.141

> <W(PB)>
-61.609

> <W(SA)>
2.467

> <Valence>
8.550

> <Coulomb>
-1.988

> <VdW>
1.139

> <VdW6>
-8.988

> <VdW12>
10.127

> <Bond>
0.191

> <Angle>
2.738

> <Pdih>
5.621

> <Idih>
0.001

> <Tether>
0.000

$$$$
VeraChem MOL file


 25 24  0  0  0  0  0  0  0  0999 V2000     
   17.8963   19.0406   26.7776 C   0  0  0  0  0  0  0  0  0  0  0  0
   17.9166   17.8722   27.1109 O   0  5  0  0  0  0  0  0  0  0  0  0
   17.4445   19.9306   27.4708 O   0  0  0  0  0  0  0  0  0  0  0  0
   18.4919   19.4140   25.4249 C   0  0  0  0  0  0  0  0  0  0  0  0
   17.9408   20.2794   25.0378 H   0  0  0  0  0  0  0  0  0  0  0  0
   18.3101   18.5788   24.7392 H   0  0  0  0  0  0  0  0  0  0  0  0
   20.0068   19.7363   25.5052 C   0  0  0  0  0  0  0  0  0  0  0  0
   20.1624   20.5107   26.2692 H   0  0  0  0  0  0  0  0  0  0  0  0
   20.5533   18.8473   25.8492 H   0  0  0  0  0  0  0  0  0  0  0  0
   20.6052   20.2328   24.1675 C   0  0  0  0  0  0  0  0  0  0  0  0
   21.6428   20.5467   24.3458 H   0  0  0  0  0  0  0  0  0  0  0  0
   20.0633   21.1273   23.8313 H   0  0  0  0  0  0  0  0  0  0  0  0
   20.5875   19.1630   23.0510 C   0  0  0  0  0  0  0  0  0  0  0  0
   21.0866   18.2519   23.4078 H   0  0  0  0  0  0  0  0  0  0  0  0
   19.5506   18.8926   22.8179 H   0  0  0  0  0  0  0  0  0  0  0  0
   21.2888   19.6671   21.7683 C   0  0  0  0  0  0  0  0  0  0  0  0
   22.3059   19.9956   22.0220 H   0  0  0  0  0  0  0  0  0  0  0  0
   20.7634   20.5514   21.3826 H   0  0  0  0  0  0  0  0  0  0  0  0
   21.3827   18.5957   20.6569 C   0  0  0  0  0  0  0  0  0  0  0  0
   21.9940   18.9933   19.8351 H   0  0  0  0  0  0  0  0  0  0  0  0
   21.9125   17.7115   21.0377 H   0  0  0  0  0  0  0  0  0  0  0  0
   20.0075   18.1751   20.0945 C   0  0  0  0  0  0  0  0  0  0  0  0
   19.4458   19.0476   19.7364 H   0  0  0  0  0  0  0  0  0  0  0  0
   20.1330   17.4844   19.2506 H   0  0  0  0  0  0  0  0  0  0  0  0
   19.4030   17.6640   20.8541 H   0  0  0  0  0  0  0  0  0  0  0  0
  1  2  1  0  0  0  0
  1  3  2  0  0  0  0
  1  4  1  0  0  0  0
  4  5  1  0  0  0  0
  4  6  1  0  0  0  0
  4  7  1  0  0  0  0
  7  8  1  0  0  0  0
  7  9  1  0  0  0  0
  7 10  1  0  0  0  0
 10 11  1  0  0  0  0
 10 12  1  0  0  0  0
 10 13  1  0  0  0  0
 13 14  1  0  0  0  0
 13 15  1  0  0  0  0
 13 16  1  0  0  0  0
 16 17  1  0  0  0  0
 16 18  1  0  0  0  0
 16 19  1  0  0  0  0
 19 20  1  0  0  0  0
 19 21  1  0  0  0  0
 19 22  1  0  0  0  0
 22 23  1  0  0  0  0
 22 24  1  0  0  0  0
 22 25  1  0  0  0  0
M  END
> <VConfSearch Rank>
789

> <Conf_Id>
17

> <Delta U+W>
0.219

> <U+W>
-51.411

> <U>
7.701

> <W>
-59.111

> <W(PB)>
-61.599

> <W(SA)>
2.488

> <Valence>
8.550

> <Coulomb>
-1.988

> <VdW>
1.139

> <VdW6>
-8.988

> <VdW12>
10.127

> <Bond>
0.191

> <Angle>
2.738

> <Pdih>
5.621

> <Idih>
0.001

> <Tether>
0.000

$$$$
VeraChem MOL file


 25 24  0  0  0  0  0  0  0  0999 V2000     
   16.8877   18.2058   21.5314 C   0  0  0  0  0  0  0  0  0  0  0  0
   17.0597   17.1021   21.0526 O   0  5  0  0  0  0  0  0  0  0  0  0
   16.7083   19.2072   20.8664 O   0  0  0  0  0  0  0  0  0  0  0  0
   16.8767   18.3409   23.0515 C   0  0  0  0  0  0  0  0  0  0  0  0
   16.6891   17.3531   23.4893 H   0  0  0  0  0  0  0  0  0  0  0  0
   16.0224   18.9739   23.3187 H   0  0  0  0  0  0  0  0  0  0  0  0
   18.1765   18.9500   23.6383 C   0  0  0  0  0  0  0  0  0  0  0  0
   18.3530   19.9281   23.1714 H   0  0  0  0  0  0  0  0  0  0  0  0
   18.0326   19.1314   24.7119 H   0  0  0  0  0  0  0  0  0  0  0  0
   19.4049   18.0309   23.4356 C   0  0  0  0  0  0  0  0  0  0  0  0
   19.6003   17.9004   22.3622 H   0  0  0  0  0  0  0  0  0  0  0  0
   19.1728   17.0326   23.8309 H   0  0  0  0  0  0  0  0  0  0  0  0
   20.6847   18.5502   24.1328 C   0  0  0  0  0  0  0  0  0  0  0  0
   20.4944   18.6731   25.2077 H   0  0  0  0  0  0  0  0  0  0  0  0
   21.4659   17.7832   24.0413 H   0  0  0  0  0  0  0  0  0  0  0  0
   21.2127   19.8778   23.5414 C   0  0  0  0  0  0  0  0  0  0  0  0
   20.4737   20.6754   23.6921 H   0  0  0  0  0  0  0  0  0  0  0  0
   21.3497   19.7678   22.4570 H   0  0  0  0  0  0  0  0  0  0  0  0
   22.5486   20.2993   24.1892 C   0  0  0  0  0  0  0  0  0  0  0  0
   22.4154   20.4085   25.2744 H   0  0  0  0  0  0  0  0  0  0  0  0
   23.2994   19.5115   24.0372 H   0  0  0  0  0  0  0  0  0  0  0  0
   23.0719   21.6252   23.6011 C   0  0  0  0  0  0  0  0  0  0  0  0
   22.3541   22.4392   23.7675 H   0  0  0  0  0  0  0  0  0  0  0  0
   24.0217   21.9094   24.0723 H   0  0  0  0  0  0  0  0  0  0  0  0
   23.2432   21.5350   22.5204 H   0  0  0  0  0  0  0  0  0  0  0  0
  1  2  1  0  0  0  0
  1  3  2  0  0  0  0
  1  4  1  0  0  0  0
  4  5  1  0  0  0  0
  4  6  1  0  0  0  0
  4  7  1  0  0  0  0
  7  8  1  0  0  0  0
  7  9  1  0  0  0  0
  7 10  1  0  0  0  0
 10 11  1  0  0  0  0
 10 12  1  0  0  0  0
 10 13  1  0  0  0  0
 13 14  1  0  0  0  0
 13 15  1  0  0  0  0
 13 16  1  0  0  0  0
 16 17  1  0  0  0  0
 16 18  1  0  0  0  0
 16 19  1  0  0  0  0
 19 20  1  0  0  0  0
 19 21  1  0  0  0  0
 19 22  1  0  0  0  0
 22 23  1  0  0  0  0
 22 24  1  0  0  0  0
 22 25  1  0  0  0  0
M  END
> <VConfSearch Rank>
790

> <Conf_Id>
142

> <Delta U+W>
0.593

> <U+W>
-51.037

> <U>
8.903

> <W>
-59.940

> <W(PB)>
-62.418

> <W(SA)>
2.478

> <Valence>
8.305

> <Coulomb>
-0.223

> <VdW>
0.821

> <VdW6>
-9.236

> <VdW12>
10.057

> <Bond>
0.173

> <Angle>
2.663

> <Pdih>
5.469

> <Idih>
0.001

> <Tether>
0.000

$$$$
VeraChem MOL file


 25 24  0  0  0  0  0  0  0  0999 V2000     
   17.8664   16.6156   23.8288 C   0  0  0  0  0  0  0  0  0  0  0  0
   16.8772   16.3780   24.4942 O   0  5  0  0  0  0  0  0  0  0  0  0
   17.9508   16.3749   22.6406 O   0  0  0  0  0  0  0  0  0  0  0  0
   19.0764   17.2238   24.5324 C   0  0  0  0  0  0  0  0  0  0  0  0
   19.9517   17.1172   23.8815 H   0  0  0  0  0  0  0  0  0  0  0  0
   19.2756   16.6163   25.4227 H   0  0  0  0  0  0  0  0  0  0  0  0
   18.8858   18.7065   24.9536 C   0  0  0  0  0  0  0  0  0  0  0  0
   18.0447   18.7669   25.6580 H   0  0  0  0  0  0  0  0  0  0  0  0
   19.7698   19.0404   25.5121 H   0  0  0  0  0  0  0  0  0  0  0  0
   18.6155   19.6776   23.7752 C   0  0  0  0  0  0  0  0  0  0  0  0
   18.4897   20.6924   24.1763 H   0  0  0  0  0  0  0  0  0  0  0  0
   17.6551   19.4164   23.3098 H   0  0  0  0  0  0  0  0  0  0  0  0
   19.7068   19.7044   22.6758 C   0  0  0  0  0  0  0  0  0  0  0  0
   19.7676   18.7233   22.1860 H   0  0  0  0  0  0  0  0  0  0  0  0
   19.3942   20.4128   21.8967 H   0  0  0  0  0  0  0  0  0  0  0  0
   21.1019   20.1168   23.1996 C   0  0  0  0  0  0  0  0  0  0  0  0
   21.4607   19.3776   23.9275 H   0  0  0  0  0  0  0  0  0  0  0  0
   21.0269   21.0776   23.7268 H   0  0  0  0  0  0  0  0  0  0  0  0
   22.1289   20.2356   22.0539 C   0  0  0  0  0  0  0  0  0  0  0  0
   22.2036   19.2762   21.5234 H   0  0  0  0  0  0  0  0  0  0  0  0
   21.7839   20.9792   21.3221 H   0  0  0  0  0  0  0  0  0  0  0  0
   23.5211   20.6410   22.5785 C   0  0  0  0  0  0  0  0  0  0  0  0
   23.9049   19.8973   23.2891 H   0  0  0  0  0  0  0  0  0  0  0  0
   24.2382   20.7209   21.7512 H   0  0  0  0  0  0  0  0  0  0  0  0
   23.4812   21.6129   23.0876 H   0  0  0  0  0  0  0  0  0  0  0  0
  1  2  1  0  0  0  0
  1  3  2  0  0  0  0
  1  4  1  0  0  0  0
  4  5  1  0  0  0  0
  4  6  1  0  0  0  0
  4  7  1  0  0  0  0
  7  8  1  0  0  0  0
  7  9  1  0  0  0  0
  7 10  1  0  0  0  0
 10 11  1  0  0  0  0
 10 12  1  0  0  0  0
 10 13  1  0  0  0  0
 13 14  1  0  0  0  0
 13 15  1  0  0  0  0
 13 16  1  0  0  0  0
 16 17  1  0  0  0  0
 16 18  1  0  0  0  0
 16 19  1  0  0  0  0
 19 20  1  0  0  0  0
 19 21  1  0  0  0  0
 19 22  1  0  0  0  0
 22 23  1  0  0  0  0
 22 24  1  0  0  0  0
 22 25  1  0  0  0  0
M  END
> <VConfSearch Rank>
791

> <Conf_Id>
135

> <Delta U+W>
1.314

> <U+W>
-50.316

> <U>
9.773

> <W>
-60.088

> <W(PB)>
-62.535

> <W(SA)>
2.447

> <Valence>
8.741

> <Coulomb>
0.479

> <VdW>
0.552

> <VdW6>
-10.627

> <VdW12>
11.179

> <Bond>
0.227

> <Angle>
3.155

> <Pdih>
5.358

> <Idih>
0.001

> <Tether>
0.000

$$$$
VeraChem MOL file


 25 24  0  0  0  0  0  0  0  0999 V2000     
   21.0423   21.5923   19.9230 C   0  0  0  0  0  0  0  0  0  0  0  0
   22.2058   21.5105   19.5819 O   0  5  0  0  0  0  0  0  0  0  0  0
   20.1557   21.9996   19.1986 O   0  0  0  0  0  0  0  0  0  0  0  0
   20.6707   21.1376   21.3298 C   0  0  0  0  0  0  0  0  0  0  0  0
   19.8236   21.7449   21.6704 H   0  0  0  0  0  0  0  0  0  0  0  0
   21.5180   21.3635   21.9865 H   0  0  0  0  0  0  0  0  0  0  0  0
   20.3097   19.6306   21.3965 C   0  0  0  0  0  0  0  0  0  0  0  0
   19.5246   19.4258   20.6554 H   0  0  0  0  0  0  0  0  0  0  0  0
   21.1802   19.0296   21.0994 H   0  0  0  0  0  0  0  0  0  0  0  0
   19.8067   19.1729   22.7866 C   0  0  0  0  0  0  0  0  0  0  0  0
   19.4342   18.1455   22.6881 H   0  0  0  0  0  0  0  0  0  0  0  0
   18.9523   19.7916   23.0928 H   0  0  0  0  0  0  0  0  0  0  0  0
   20.9004   19.2090   23.8807 C   0  0  0  0  0  0  0  0  0  0  0  0
   21.7246   18.5417   23.5940 H   0  0  0  0  0  0  0  0  0  0  0  0
   21.3271   20.2179   23.9403 H   0  0  0  0  0  0  0  0  0  0  0  0
   20.3965   18.8254   25.2951 C   0  0  0  0  0  0  0  0  0  0  0  0
   19.6363   19.5439   25.6310 H   0  0  0  0  0  0  0  0  0  0  0  0
   21.2410   18.9397   25.9884 H   0  0  0  0  0  0  0  0  0  0  0  0
   19.8606   17.3775   25.4237 C   0  0  0  0  0  0  0  0  0  0  0  0
   20.3314   16.7283   24.6726 H   0  0  0  0  0  0  0  0  0  0  0  0
   20.1594   16.9776   26.4025 H   0  0  0  0  0  0  0  0  0  0  0  0
   18.3216   17.2880   25.3208 C   0  0  0  0  0  0  0  0  0  0  0  0
   17.9541   17.6647   24.3595 H   0  0  0  0  0  0  0  0  0  0  0  0
   17.9898   16.2466   25.4222 H   0  0  0  0  0  0  0  0  0  0  0  0
   17.8430   17.8717   26.1179 H   0  0  0  0  0  0  0  0  0  0  0  0
  1  2  1  0  0  0  0
  1  3  2  0  0  0  0
  1  4  1  0  0  0  0
  4  5  1  0  0  0  0
  4  6  1  0  0  0  0
  4  7  1  0  0  0  0
  7  8  1  0  0  0  0
  7  9  1  0  0  0  0
  7 10  1  0  0  0  0
 10 11  1  0  0  0  0
 10 12  1  0  0  0  0
 10 13  1  0  0  0  0
 13 14  1  0  0  0  0
 13 15  1  0  0  0  0
 13 16  1  0  0  0  0
 16 17  1  0  0  0  0
 16 18  1  0  0  0  0
 16 19  1  0  0  0  0
 19 20  1  0  0  0  0
 19 21  1  0  0  0  0
 19 22  1  0  0  0  0
 22 23  1  0  0  0  0
 22 24  1  0  0  0  0
 22 25  1  0  0  0  0
M  END
> <VConfSearch Rank>
792

> <Conf_Id>
19

> <Delta U+W>
3.222

> <U+W>
-48.407

> <U>
10.617

> <W>
-59.025

> <W(PB)>
-61.462

> <W(SA)>
2.437

> <Valence>
11.188

> <Coulomb>
-1.778

> <VdW>
1.208

> <VdW6>
-9.786

> <VdW12>
10.993

> <Bond>
0.241

> <Angle>
3.294

> <Pdih>
7.653

> <Idih>
0.001

> <Tether>
0.000

$$$$
VeraChem MOL file


 25 24  0  0  0  0  0  0  0  0999 V2000     
   20.3067   19.4568   27.4586 C   0  0  0  0  0  0  0  0  0  0  0  0
   19.8516   20.4913   27.9051 O   0  5  0  0  0  0  0  0  0  0  0  0
   21.0728   18.7390   28.0708 O   0  0  0  0  0  0  0  0  0  0  0  0
   19.9134   19.0486   26.0434 C   0  0  0  0  0  0  0  0  0  0  0  0
   18.8859   19.3884   25.8733 H   0  0  0  0  0  0  0  0  0  0  0  0
   19.9064   17.9531   25.9954 H   0  0  0  0  0  0  0  0  0  0  0  0
   20.8688   19.6252   24.9662 C   0  0  0  0  0  0  0  0  0  0  0  0
   20.8319   20.7231   24.9905 H   0  0  0  0  0  0  0  0  0  0  0  0
   21.8990   19.3443   25.2257 H   0  0  0  0  0  0  0  0  0  0  0  0
   20.5666   19.1224   23.5342 C   0  0  0  0  0  0  0  0  0  0  0  0
   20.5791   18.0241   23.5176 H   0  0  0  0  0  0  0  0  0  0  0  0
   21.3817   19.4579   22.8808 H   0  0  0  0  0  0  0  0  0  0  0  0
   19.2227   19.6412   22.9692 C   0  0  0  0  0  0  0  0  0  0  0  0
   18.4079   19.3685   23.6512 H   0  0  0  0  0  0  0  0  0  0  0  0
   19.2417   20.7389   22.9342 H   0  0  0  0  0  0  0  0  0  0  0  0
   18.8681   19.0880   21.5656 C   0  0  0  0  0  0  0  0  0  0  0  0
   17.8777   19.4802   21.2970 H   0  0  0  0  0  0  0  0  0  0  0  0
   18.7540   17.9963   21.6096 H   0  0  0  0  0  0  0  0  0  0  0  0
   19.8615   19.4791   20.4429 C   0  0  0  0  0  0  0  0  0  0  0  0
   19.2936   19.6714   19.5221 H   0  0  0  0  0  0  0  0  0  0  0  0
   20.3668   20.4224   20.6921 H   0  0  0  0  0  0  0  0  0  0  0  0
   20.9015   18.3771   20.1410 C   0  0  0  0  0  0  0  0  0  0  0  0
   20.4069   17.4531   19.8145 H   0  0  0  0  0  0  0  0  0  0  0  0
   21.5782   18.6971   19.3382 H   0  0  0  0  0  0  0  0  0  0  0  0
   21.5123   18.1405   21.0197 H   0  0  0  0  0  0  0  0  0  0  0  0
  1  2  1  0  0  0  0
  1  3  2  0  0  0  0
  1  4  1  0  0  0  0
  4  5  1  0  0  0  0
  4  6  1  0  0  0  0
  4  7  1  0  0  0  0
  7  8  1  0  0  0  0
  7  9  1  0  0  0  0
  7 10  1  0  0  0  0
 10 11  1  0  0  0  0
 10 12  1  0  0  0  0
 10 13  1  0  0  0  0
 13 14  1  0  0  0  0
 13 15  1  0  0  0  0
 13 16  1  0  0  0  0
 16 17  1  0  0  0  0
 16 18  1  0  0  0  0
 16 19  1  0  0  0  0
 19 20  1  0  0  0  0
 19 21  1  0  0  0  0
 19 22  1  0  0  0  0
 22 23  1  0  0  0  0
 22 24  1  0  0  0  0
 22 25  1  0  0  0  0
M  END
> <VConfSearch Rank>
793

> <Conf_Id>
20

> <Delta U+W>
3.224

> <U+W>
-48.406

> <U>
10.617

> <W>
-59.023

> <W(PB)>
-61.467

> <W(SA)>
2.444

> <Valence>
11.188

> <Coulomb>
-1.778

> <VdW>
1.208

> <VdW6>
-9.786

> <VdW12>
10.993

> <Bond>
0.241

> <Angle>
3.294

> <Pdih>
7.653

> <Idih>
0.001

> <Tether>
0.000

$$$$
VeraChem MOL file


 25 24  0  0  0  0  0  0  0  0999 V2000     
   18.3648   17.6520   25.8745 C   0  0  0  0  0  0  0  0  0  0  0  0
   17.2957   18.2094   26.0295 O   0  5  0  0  0  0  0  0  0  0  0  0
   19.3094   17.7922   26.6264 O   0  0  0  0  0  0  0  0  0  0  0  0
   18.5098   16.6723   24.7116 C   0  0  0  0  0  0  0  0  0  0  0  0
   17.7957   15.8624   24.9003 H   0  0  0  0  0  0  0  0  0  0  0  0
   19.5098   16.2233   24.7462 H   0  0  0  0  0  0  0  0  0  0  0  0
   18.2361   17.2699   23.3026 C   0  0  0  0  0  0  0  0  0  0  0  0
   18.0083   16.4397   22.6206 H   0  0  0  0  0  0  0  0  0  0  0  0
   17.3326   17.8948   23.3299 H   0  0  0  0  0  0  0  0  0  0  0  0
   19.4161   18.0687   22.6954 C   0  0  0  0  0  0  0  0  0  0  0  0
   19.1663   18.3079   21.6526 H   0  0  0  0  0  0  0  0  0  0  0  0
   20.3125   17.4348   22.6603 H   0  0  0  0  0  0  0  0  0  0  0  0
   19.7383   19.3828   23.4425 C   0  0  0  0  0  0  0  0  0  0  0  0
   18.8185   19.9701   23.5694 H   0  0  0  0  0  0  0  0  0  0  0  0
   20.1169   19.1570   24.4474 H   0  0  0  0  0  0  0  0  0  0  0  0
   20.7904   20.2251   22.6889 C   0  0  0  0  0  0  0  0  0  0  0  0
   20.4185   20.4647   21.6833 H   0  0  0  0  0  0  0  0  0  0  0  0
   21.7077   19.6345   22.5587 H   0  0  0  0  0  0  0  0  0  0  0  0
   21.1213   21.5320   23.4399 C   0  0  0  0  0  0  0  0  0  0  0  0
   20.2059   22.1255   23.5711 H   0  0  0  0  0  0  0  0  0  0  0  0
   21.4954   21.2962   24.4459 H   0  0  0  0  0  0  0  0  0  0  0  0
   22.1725   22.3707   22.6854 C   0  0  0  0  0  0  0  0  0  0  0  0
   21.8108   22.6474   21.6864 H   0  0  0  0  0  0  0  0  0  0  0  0
   22.3955   23.2954   23.2333 H   0  0  0  0  0  0  0  0  0  0  0  0
   23.1102   21.8118   22.5680 H   0  0  0  0  0  0  0  0  0  0  0  0
  1  2  1  0  0  0  0
  1  3  2  0  0  0  0
  1  4  1  0  0  0  0
  4  5  1  0  0  0  0
  4  6  1  0  0  0  0
  4  7  1  0  0  0  0
  7  8  1  0  0  0  0
  7  9  1  0  0  0  0
  7 10  1  0  0  0  0
 10 11  1  0  0  0  0
 10 12  1  0  0  0  0
 10 13  1  0  0  0  0
 13 14  1  0  0  0  0
 13 15  1  0  0  0  0
 13 16  1  0  0  0  0
 16 17  1  0  0  0  0
 16 18  1  0  0  0  0
 16 19  1  0  0  0  0
 19 20  1  0  0  0  0
 19 21  1  0  0  0  0
 19 22  1  0  0  0  0
 22 23  1  0  0  0  0
 22 24  1  0  0  0  0
 22 25  1  0  0  0  0
M  END
> <VConfSearch Rank>
794

> <Conf_Id>
24

> <Delta U+W>
1.784

> <U+W>
-49.846

> <U>
10.904

> <W>
-60.749

> <W(PB)>
-63.220

> <W(SA)>
2.471

> <Valence>
9.445

> <Coulomb>
0.780

> <VdW>
0.679

> <VdW6>
-10.008

> <VdW12>
10.687

> <Bond>
0.201

> <Angle>
3.198

> <Pdih>
6.039

> <Idih>
0.006

> <Tether>
0.000

$$$$
VeraChem MOL file


 25 24  0  0  0  0  0  0  0  0999 V2000     
   17.5474   17.9168   25.0953 C   0  0  0  0  0  0  0  0  0  0  0  0
   16.7160   18.7998   25.0121 O   0  5  0  0  0  0  0  0  0  0  0  0
   17.5329   16.9151   24.4071 O   0  0  0  0  0  0  0  0  0  0  0  0
   18.6300   18.0389   26.1660 C   0  0  0  0  0  0  0  0  0  0  0  0
   19.2610   17.1423   26.1388 H   0  0  0  0  0  0  0  0  0  0  0  0
   18.1110   18.0280   27.1314 H   0  0  0  0  0  0  0  0  0  0  0  0
   19.5084   19.3187   26.0783 C   0  0  0  0  0  0  0  0  0  0  0  0
   18.8735   20.1969   25.8961 H   0  0  0  0  0  0  0  0  0  0  0  0
   19.9717   19.4799   27.0610 H   0  0  0  0  0  0  0  0  0  0  0  0
   20.6435   19.2567   25.0263 C   0  0  0  0  0  0  0  0  0  0  0  0
   21.2811   18.3836   25.2213 H   0  0  0  0  0  0  0  0  0  0  0  0
   21.2819   20.1408   25.1596 H   0  0  0  0  0  0  0  0  0  0  0  0
   20.1458   19.2197   23.5635 C   0  0  0  0  0  0  0  0  0  0  0  0
   19.6159   18.2778   23.3739 H   0  0  0  0  0  0  0  0  0  0  0  0
   19.4261   20.0332   23.3980 H   0  0  0  0  0  0  0  0  0  0  0  0
   21.3123   19.3484   22.5599 C   0  0  0  0  0  0  0  0  0  0  0  0
   22.0333   18.5371   22.7301 H   0  0  0  0  0  0  0  0  0  0  0  0
   21.8458   20.2928   22.7348 H   0  0  0  0  0  0  0  0  0  0  0  0
   20.8176   19.3001   21.0989 C   0  0  0  0  0  0  0  0  0  0  0  0
   20.2849   18.3558   20.9196 H   0  0  0  0  0  0  0  0  0  0  0  0
   20.0966   20.1109   20.9252 H   0  0  0  0  0  0  0  0  0  0  0  0
   21.9844   19.4284   20.0991 C   0  0  0  0  0  0  0  0  0  0  0  0
   22.7055   18.6109   20.2299 H   0  0  0  0  0  0  0  0  0  0  0  0
   21.6146   19.3920   19.0661 H   0  0  0  0  0  0  0  0  0  0  0  0
   22.5158   20.3794   20.2355 H   0  0  0  0  0  0  0  0  0  0  0  0
  1  2  1  0  0  0  0
  1  3  2  0  0  0  0
  1  4  1  0  0  0  0
  4  5  1  0  0  0  0
  4  6  1  0  0  0  0
  4  7  1  0  0  0  0
  7  8  1  0  0  0  0
  7  9  1  0  0  0  0
  7 10  1  0  0  0  0
 10 11  1  0  0  0  0
 10 12  1  0  0  0  0
 10 13  1  0  0  0  0
 13 14  1  0  0  0  0
 13 15  1  0  0  0  0
 13 16  1  0  0  0  0
 16 17  1  0  0  0  0
 16 18  1  0  0  0  0
 16 19  1  0  0  0  0
 19 20  1  0  0  0  0
 19 21  1  0  0  0  0
 19 22  1  0  0  0  0
 22 23  1  0  0  0  0
 22 24  1  0  0  0  0
 22 25  1  0  0  0  0
M  END
> <VConfSearch Rank>
795

> <Conf_Id>
9

> <Delta U+W>
1.764

> <U+W>
-49.865

> <U>
10.902

> <W>
-60.768

> <W(PB)>
-63.223

> <W(SA)>
2.456

> <Valence>
9.445

> <Coulomb>
0.778

> <VdW>
0.679

> <VdW6>
-10.007

> <VdW12>
10.687

> <Bond>
0.201

> <Angle>
3.198

> <Pdih>
6.040

> <Idih>
0.006

> <Tether>
0.000

$$$$
VeraChem MOL file


 25 24  0  0  0  0  0  0  0  0999 V2000     
   21.2407   16.3391   21.3624 C   0  0  0  0  0  0  0  0  0  0  0  0
   22.1419   16.1239   22.1486 O   0  5  0  0  0  0  0  0  0  0  0  0
   20.8917   15.5507   20.5060 O   0  0  0  0  0  0  0  0  0  0  0  0
   20.4926   17.6630   21.4693 C   0  0  0  0  0  0  0  0  0  0  0  0
   20.1803   17.9570   20.4602 H   0  0  0  0  0  0  0  0  0  0  0  0
   21.2015   18.4206   21.8171 H   0  0  0  0  0  0  0  0  0  0  0  0
   19.2577   17.5800   22.4051 C   0  0  0  0  0  0  0  0  0  0  0  0
   18.5815   16.8123   22.0042 H   0  0  0  0  0  0  0  0  0  0  0  0
   19.5609   17.2296   23.4015 H   0  0  0  0  0  0  0  0  0  0  0  0
   18.4786   18.9149   22.5200 C   0  0  0  0  0  0  0  0  0  0  0  0
   17.4095   18.6791   22.6112 H   0  0  0  0  0  0  0  0  0  0  0  0
   18.5778   19.4956   21.5928 H   0  0  0  0  0  0  0  0  0  0  0  0
   18.8676   19.7875   23.7399 C   0  0  0  0  0  0  0  0  0  0  0  0
   18.1995   20.6590   23.7675 H   0  0  0  0  0  0  0  0  0  0  0  0
   18.6755   19.2214   24.6608 H   0  0  0  0  0  0  0  0  0  0  0  0
   20.3340   20.2799   23.7269 C   0  0  0  0  0  0  0  0  0  0  0  0
   20.5607   20.7084   22.7413 H   0  0  0  0  0  0  0  0  0  0  0  0
   21.0127   19.4285   23.8681 H   0  0  0  0  0  0  0  0  0  0  0  0
   20.6312   21.3451   24.8079 C   0  0  0  0  0  0  0  0  0  0  0  0
   21.6575   21.7120   24.6690 H   0  0  0  0  0  0  0  0  0  0  0  0
   19.9704   22.2115   24.6670 H   0  0  0  0  0  0  0  0  0  0  0  0
   20.4843   20.8088   26.2484 C   0  0  0  0  0  0  0  0  0  0  0  0
   21.1177   19.9259   26.4052 H   0  0  0  0  0  0  0  0  0  0  0  0
   20.7847   21.5740   26.9758 H   0  0  0  0  0  0  0  0  0  0  0  0
   19.4458   20.5309   26.4677 H   0  0  0  0  0  0  0  0  0  0  0  0
  1  2  1  0  0  0  0
  1  3  2  0  0  0  0
  1  4  1  0  0  0  0
  4  5  1  0  0  0  0
  4  6  1  0  0  0  0
  4  7  1  0  0  0  0
  7  8  1  0  0  0  0
  7  9  1  0  0  0  0
  7 10  1  0  0  0  0
 10 11  1  0  0  0  0
 10 12  1  0  0  0  0
 10 13  1  0  0  0  0
 13 14  1  0  0  0  0
 13 15  1  0  0  0  0
 13 16  1  0  0  0  0
 16 17  1  0  0  0  0
 16 18  1  0  0  0  0
 16 19  1  0  0  0  0
 19 20  1  0  0  0  0
 19 21  1  0  0  0  0
 19 22  1  0  0  0  0
 22 23  1  0  0  0  0
 22 24  1  0  0  0  0
 22 25  1  0  0  0  0
M  END
> <VConfSearch Rank>
796

> <Conf_Id>
89

> <Delta U+W>
2.903

> <U+W>
-48.726

> <U>
10.996

> <W>
-59.723

> <W(PB)>
-62.151

> <W(SA)>
2.428

> <Valence>
10.985

> <Coulomb>
-0.995

> <VdW>
1.006

> <VdW6>
-10.062

> <VdW12>
11.069

> <Bond>
0.238

> <Angle>
3.202

> <Pdih>
7.544

> <Idih>
0.001

> <Tether>
0.000

$$$$
VeraChem MOL file


 25 24  0  0  0  0  0  0  0  0999 V2000     
   23.3837   19.7361   24.3014 C   0  0  0  0  0  0  0  0  0  0  0  0
   23.8683   19.6928   23.1876 O   0  5  0  0  0  0  0  0  0  0  0  0
   23.3419   20.7467   24.9756 O   0  0  0  0  0  0  0  0  0  0  0  0
   22.8585   18.4367   24.9089 C   0  0  0  0  0  0  0  0  0  0  0  0
   23.4945   18.2241   25.7760 H   0  0  0  0  0  0  0  0  0  0  0  0
   23.0176   17.6192   24.1954 H   0  0  0  0  0  0  0  0  0  0  0  0
   21.3733   18.4708   25.3678 C   0  0  0  0  0  0  0  0  0  0  0  0
   21.2296   17.6703   26.1059 H   0  0  0  0  0  0  0  0  0  0  0  0
   21.1657   19.4106   25.8982 H   0  0  0  0  0  0  0  0  0  0  0  0
   20.3359   18.2588   24.2369 C   0  0  0  0  0  0  0  0  0  0  0  0
   19.3528   18.1335   24.7074 H   0  0  0  0  0  0  0  0  0  0  0  0
   20.5492   17.3180   23.7116 H   0  0  0  0  0  0  0  0  0  0  0  0
   20.2703   19.4209   23.2162 C   0  0  0  0  0  0  0  0  0  0  0  0
   20.1178   20.3728   23.7429 H   0  0  0  0  0  0  0  0  0  0  0  0
   21.2337   19.5017   22.6985 H   0  0  0  0  0  0  0  0  0  0  0  0
   19.1716   19.2384   22.1416 C   0  0  0  0  0  0  0  0  0  0  0  0
   19.3058   18.2714   21.6379 H   0  0  0  0  0  0  0  0  0  0  0  0
   19.3094   20.0103   21.3721 H   0  0  0  0  0  0  0  0  0  0  0  0
   17.7338   19.3431   22.6995 C   0  0  0  0  0  0  0  0  0  0  0  0
   17.5420   18.5304   23.4118 H   0  0  0  0  0  0  0  0  0  0  0  0
   17.6181   20.2866   23.2505 H   0  0  0  0  0  0  0  0  0  0  0  0
   16.6840   19.2773   21.5718 C   0  0  0  0  0  0  0  0  0  0  0  0
   16.7593   18.3309   21.0203 H   0  0  0  0  0  0  0  0  0  0  0  0
   15.6690   19.3498   21.9835 H   0  0  0  0  0  0  0  0  0  0  0  0
   16.8199   20.1013   20.8591 H   0  0  0  0  0  0  0  0  0  0  0  0
  1  2  1  0  0  0  0
  1  3  2  0  0  0  0
  1  4  1  0  0  0  0
  4  5  1  0  0  0  0
  4  6  1  0  0  0  0
  4  7  1  0  0  0  0
  7  8  1  0  0  0  0
  7  9  1  0  0  0  0
  7 10  1  0  0  0  0
 10 11  1  0  0  0  0
 10 12  1  0  0  0  0
 10 13  1  0  0  0  0
 13 14  1  0  0  0  0
 13 15  1  0  0  0  0
 13 16  1  0  0  0  0
 16 17  1  0  0  0  0
 16 18  1  0  0  0  0
 16 19  1  0  0  0  0
 19 20  1  0  0  0  0
 19 21  1  0  0  0  0
 19 22  1  0  0  0  0
 22 23  1  0  0  0  0
 22 24  1  0  0  0  0
 22 25  1  0  0  0  0
M  END
> <VConfSearch Rank>
797

> <Conf_Id>
114

> <Delta U+W>
2.758

> <U+W>
-48.871

> <U>
11.422

> <W>
-60.293

> <W(PB)>
-62.719

> <W(SA)>
2.425

> <Valence>
10.135

> <Coulomb>
0.369

> <VdW>
0.918

> <VdW6>
-10.482

> <VdW12>
11.400

> <Bond>
0.245

> <Angle>
3.539

> <Pdih>
6.346

> <Idih>
0.006

> <Tether>
0.000

$$$$
VeraChem MOL file


 25 24  0  0  0  0  0  0  0  0999 V2000     
   19.8473   16.1945   20.9141 C   0  0  0  0  0  0  0  0  0  0  0  0
   19.0343   15.4390   21.4094 O   0  5  0  0  0  0  0  0  0  0  0  0
   19.6825   16.7559   19.8489 O   0  0  0  0  0  0  0  0  0  0  0  0
   21.1569   16.4370   21.6592 C   0  0  0  0  0  0  0  0  0  0  0  0
   21.9693   16.3684   20.9262 H   0  0  0  0  0  0  0  0  0  0  0  0
   21.3074   15.6216   22.3770 H   0  0  0  0  0  0  0  0  0  0  0  0
   21.2251   17.8075   22.3818 C   0  0  0  0  0  0  0  0  0  0  0  0
   22.2394   17.9519   22.7775 H   0  0  0  0  0  0  0  0  0  0  0  0
   21.0541   18.6048   21.6467 H   0  0  0  0  0  0  0  0  0  0  0  0
   20.2043   17.9172   23.5398 C   0  0  0  0  0  0  0  0  0  0  0  0
   20.3341   17.0571   24.2107 H   0  0  0  0  0  0  0  0  0  0  0  0
   19.1815   17.8485   23.1443 H   0  0  0  0  0  0  0  0  0  0  0  0
   20.3491   19.2137   24.3722 C   0  0  0  0  0  0  0  0  0  0  0  0
   19.6902   19.1305   25.2458 H   0  0  0  0  0  0  0  0  0  0  0  0
   21.3736   19.2892   24.7610 H   0  0  0  0  0  0  0  0  0  0  0  0
   19.9937   20.4969   23.5813 C   0  0  0  0  0  0  0  0  0  0  0  0
   18.9703   20.4192   23.1897 H   0  0  0  0  0  0  0  0  0  0  0  0
   20.6548   20.5838   22.7098 H   0  0  0  0  0  0  0  0  0  0  0  0
   20.1313   21.7914   24.4165 C   0  0  0  0  0  0  0  0  0  0  0  0
   21.1507   21.8666   24.8195 H   0  0  0  0  0  0  0  0  0  0  0  0
   19.9970   22.6549   23.7505 H   0  0  0  0  0  0  0  0  0  0  0  0
   19.1075   21.8913   25.5684 C   0  0  0  0  0  0  0  0  0  0  0  0
   19.1844   22.8666   26.0661 H   0  0  0  0  0  0  0  0  0  0  0  0
   18.0816   21.7840   25.1927 H   0  0  0  0  0  0  0  0  0  0  0  0
   19.2795   21.1180   26.3271 H   0  0  0  0  0  0  0  0  0  0  0  0
  1  2  1  0  0  0  0
  1  3  2  0  0  0  0
  1  4  1  0  0  0  0
  4  5  1  0  0  0  0
  4  6  1  0  0  0  0
  4  7  1  0  0  0  0
  7  8  1  0  0  0  0
  7  9  1  0  0  0  0
  7 10  1  0  0  0  0
 10 11  1  0  0  0  0
 10 12  1  0  0  0  0
 10 13  1  0  0  0  0
 13 14  1  0  0  0  0
 13 15  1  0  0  0  0
 13 16  1  0  0  0  0
 16 17  1  0  0  0  0
 16 18  1  0  0  0  0
 16 19  1  0  0  0  0
 19 20  1  0  0  0  0
 19 21  1  0  0  0  0
 19 22  1  0  0  0  0
 22 23  1  0  0  0  0
 22 24  1  0  0  0  0
 22 25  1  0  0  0  0
M  END
> <VConfSearch Rank>
798

> <Conf_Id>
87

> <Delta U+W>
1.453

> <U+W>
-50.176

> <U>
9.763

> <W>
-59.940

> <W(PB)>
-62.392

> <W(SA)>
2.452

> <Valence>
8.883

> <Coulomb>
-0.122

> <VdW>
1.003

> <VdW6>
-9.782

> <VdW12>
10.785

> <Bond>
0.212

> <Angle>
2.940

> <Pdih>
5.730

> <Idih>
0.001

> <Tether>
0.000

$$$$
VeraChem MOL file


 25 24  0  0  0  0  0  0  0  0999 V2000     
   23.7602   17.9206   24.1436 C   0  0  0  0  0  0  0  0  0  0  0  0
   24.0942   18.7106   25.0044 O   0  5  0  0  0  0  0  0  0  0  0  0
   24.1555   16.7726   24.0933 O   0  0  0  0  0  0  0  0  0  0  0  0
   22.7762   18.3902   23.0781 C   0  0  0  0  0  0  0  0  0  0  0  0
   23.0085   17.8642   22.1444 H   0  0  0  0  0  0  0  0  0  0  0  0
   22.9500   19.4584   22.9008 H   0  0  0  0  0  0  0  0  0  0  0  0
   21.2991   18.1488   23.4754 C   0  0  0  0  0  0  0  0  0  0  0  0
   21.1421   17.0768   23.6579 H   0  0  0  0  0  0  0  0  0  0  0  0
   21.0965   18.6681   24.4215 H   0  0  0  0  0  0  0  0  0  0  0  0
   20.3231   18.6402   22.3815 C   0  0  0  0  0  0  0  0  0  0  0  0
   20.5854   18.1624   21.4278 H   0  0  0  0  0  0  0  0  0  0  0  0
   20.4513   19.7195   22.2266 H   0  0  0  0  0  0  0  0  0  0  0  0
   18.8385   18.3248   22.6929 C   0  0  0  0  0  0  0  0  0  0  0  0
   18.2216   18.6506   21.8452 H   0  0  0  0  0  0  0  0  0  0  0  0
   18.7125   17.2352   22.7501 H   0  0  0  0  0  0  0  0  0  0  0  0
   18.2867   18.9557   23.9987 C   0  0  0  0  0  0  0  0  0  0  0  0
   18.7941   18.5061   24.8622 H   0  0  0  0  0  0  0  0  0  0  0  0
   17.2284   18.6797   24.1004 H   0  0  0  0  0  0  0  0  0  0  0  0
   18.4108   20.4966   24.0903 C   0  0  0  0  0  0  0  0  0  0  0  0
   18.0135   20.8229   25.0612 H   0  0  0  0  0  0  0  0  0  0  0  0
   19.4684   20.7918   24.0803 H   0  0  0  0  0  0  0  0  0  0  0  0
   17.6518   21.2376   22.9682 C   0  0  0  0  0  0  0  0  0  0  0  0
   16.5942   20.9445   22.9496 H   0  0  0  0  0  0  0  0  0  0  0  0
   17.7000   22.3231   23.1236 H   0  0  0  0  0  0  0  0  0  0  0  0
   18.0865   21.0225   21.9839 H   0  0  0  0  0  0  0  0  0  0  0  0
  1  2  1  0  0  0  0
  1  3  2  0  0  0  0
  1  4  1  0  0  0  0
  4  5  1  0  0  0  0
  4  6  1  0  0  0  0
  4  7  1  0  0  0  0
  7  8  1  0  0  0  0
  7  9  1  0  0  0  0
  7 10  1  0  0  0  0
 10 11  1  0  0  0  0
 10 12  1  0  0  0  0
 10 13  1  0  0  0  0
 13 14  1  0  0  0  0
 13 15  1  0  0  0  0
 13 16  1  0  0  0  0
 16 17  1  0  0  0  0
 16 18  1  0  0  0  0
 16 19  1  0  0  0  0
 19 20  1  0  0  0  0
 19 21  1  0  0  0  0
 19 22  1  0  0  0  0
 22 23  1  0  0  0  0
 22 24  1  0  0  0  0
 22 25  1  0  0  0  0
M  END
> <VConfSearch Rank>
799

> <Conf_Id>
29

> <Delta U+W>
0.850

> <U+W>
-50.780

> <U>
8.646

> <W>
-59.426

> <W(PB)>
-61.868

> <W(SA)>
2.442

> <Valence>
8.924

> <Coulomb>
-1.171

> <VdW>
0.894

> <VdW6>
-10.223

> <VdW12>
11.117

> <Bond>
0.231

> <Angle>
3.232

> <Pdih>
5.461

> <Idih>
0.001

> <Tether>
0.000

$$$$
VeraChem MOL file


 25 24  0  0  0  0  0  0  0  0999 V2000     
   22.1278   15.8707   22.8830 C   0  0  0  0  0  0  0  0  0  0  0  0
   22.8044   16.1405   21.9103 O   0  5  0  0  0  0  0  0  0  0  0  0
   21.7449   14.7479   23.1464 O   0  0  0  0  0  0  0  0  0  0  0  0
   21.7209   17.0069   23.8145 C   0  0  0  0  0  0  0  0  0  0  0  0
   22.5222   17.7555   23.8092 H   0  0  0  0  0  0  0  0  0  0  0  0
   21.6578   16.6061   24.8332 H   0  0  0  0  0  0  0  0  0  0  0  0
   20.3764   17.6617   23.4125 C   0  0  0  0  0  0  0  0  0  0  0  0
   20.4578   18.0370   22.3837 H   0  0  0  0  0  0  0  0  0  0  0  0
   19.5855   16.8991   23.4141 H   0  0  0  0  0  0  0  0  0  0  0  0
   19.9914   18.8145   24.3682 C   0  0  0  0  0  0  0  0  0  0  0  0
   20.7618   19.5961   24.3372 H   0  0  0  0  0  0  0  0  0  0  0  0
   19.9829   18.4360   25.3994 H   0  0  0  0  0  0  0  0  0  0  0  0
   18.6028   19.4305   24.0634 C   0  0  0  0  0  0  0  0  0  0  0  0
   17.8355   18.6553   24.1927 H   0  0  0  0  0  0  0  0  0  0  0  0
   18.3811   20.1960   24.8186 H   0  0  0  0  0  0  0  0  0  0  0  0
   18.4481   20.0486   22.6486 C   0  0  0  0  0  0  0  0  0  0  0  0
   17.4366   20.4674   22.5587 H   0  0  0  0  0  0  0  0  0  0  0  0
   18.5064   19.2518   21.8956 H   0  0  0  0  0  0  0  0  0  0  0  0
   19.4770   21.1503   22.2941 C   0  0  0  0  0  0  0  0  0  0  0  0
   20.4923   20.7320   22.2904 H   0  0  0  0  0  0  0  0  0  0  0  0
   19.2852   21.4914   21.2675 H   0  0  0  0  0  0  0  0  0  0  0  0
   19.4179   22.3680   23.2416 C   0  0  0  0  0  0  0  0  0  0  0  0
   19.7078   22.0922   24.2633 H   0  0  0  0  0  0  0  0  0  0  0  0
   20.1046   23.1536   22.9011 H   0  0  0  0  0  0  0  0  0  0  0  0
   18.4061   22.7925   23.2730 H   0  0  0  0  0  0  0  0  0  0  0  0
  1  2  1  0  0  0  0
  1  3  2  0  0  0  0
  1  4  1  0  0  0  0
  4  5  1  0  0  0  0
  4  6  1  0  0  0  0
  4  7  1  0  0  0  0
  7  8  1  0  0  0  0
  7  9  1  0  0  0  0
  7 10  1  0  0  0  0
 10 11  1  0  0  0  0
 10 12  1  0  0  0  0
 10 13  1  0  0  0  0
 13 14  1  0  0  0  0
 13 15  1  0  0  0  0
 13 16  1  0  0  0  0
 16 17  1  0  0  0  0
 16 18  1  0  0  0  0
 16 19  1  0  0  0  0
 19 20  1  0  0  0  0
 19 21  1  0  0  0  0
 19 22  1  0  0  0  0
 22 23  1  0  0  0  0
 22 24  1  0  0  0  0
 22 25  1  0  0  0  0
M  END
> <VConfSearch Rank>
800

> <Conf_Id>
30

> <Delta U+W>
0.843

> <U+W>
-50.787

> <U>
8.647

> <W>
-59.434

> <W(PB)>
-61.861

> <W(SA)>
2.428

> <Valence>
8.924

> <Coulomb>
-1.170

> <VdW>
0.894

> <VdW6>
-10.224

> <VdW12>
11.118

> <Bond>
0.231

> <Angle>
3.232

> <Pdih>
5.460

> <Idih>
0.000

> <Tether>
0.000

$$$$
VeraChem MOL file


 25 24  0  0  0  0  0  0  0  0999 V2000     
   17.0450   16.6017   25.6461 C   0  0  0  0  0  0  0  0  0  0  0  0
   16.1279   17.3840   25.4865 O   0  5  0  0  0  0  0  0  0  0  0  0
   16.9380   15.5753   26.2874 O   0  0  0  0  0  0  0  0  0  0  0  0
   18.4103   16.8959   25.0226 C   0  0  0  0  0  0  0  0  0  0  0  0
   18.6639   16.0477   24.3760 H   0  0  0  0  0  0  0  0  0  0  0  0
   19.1449   16.9103   25.8362 H   0  0  0  0  0  0  0  0  0  0  0  0
   18.4977   18.2172   24.2133 C   0  0  0  0  0  0  0  0  0  0  0  0
   17.7547   18.1987   23.4039 H   0  0  0  0  0  0  0  0  0  0  0  0
   18.2362   19.0621   24.8655 H   0  0  0  0  0  0  0  0  0  0  0  0
   19.9067   18.4354   23.6203 C   0  0  0  0  0  0  0  0  0  0  0  0
   20.1660   17.5896   22.9687 H   0  0  0  0  0  0  0  0  0  0  0  0
   20.6478   18.4535   24.4312 H   0  0  0  0  0  0  0  0  0  0  0  0
   19.9914   19.7502   22.8156 C   0  0  0  0  0  0  0  0  0  0  0  0
   19.2505   19.7324   22.0046 H   0  0  0  0  0  0  0  0  0  0  0  0
   19.7323   20.5963   23.4669 H   0  0  0  0  0  0  0  0  0  0  0  0
   21.4000   19.9690   22.2224 C   0  0  0  0  0  0  0  0  0  0  0  0
   21.6594   19.1231   21.5710 H   0  0  0  0  0  0  0  0  0  0  0  0
   22.1411   19.9869   23.0333 H   0  0  0  0  0  0  0  0  0  0  0  0
   21.4848   21.2832   21.4180 C   0  0  0  0  0  0  0  0  0  0  0  0
   20.7461   21.2681   20.6047 H   0  0  0  0  0  0  0  0  0  0  0  0
   21.2278   22.1319   22.0670 H   0  0  0  0  0  0  0  0  0  0  0  0
   22.8928   21.4980   20.8273 C   0  0  0  0  0  0  0  0  0  0  0  0
   23.1634   20.6784   20.1487 H   0  0  0  0  0  0  0  0  0  0  0  0
   22.9350   22.4363   20.2591 H   0  0  0  0  0  0  0  0  0  0  0  0
   23.6487   21.5487   21.6220 H   0  0  0  0  0  0  0  0  0  0  0  0
  1  2  1  0  0  0  0
  1  3  2  0  0  0  0
  1  4  1  0  0  0  0
  4  5  1  0  0  0  0
  4  6  1  0  0  0  0
  4  7  1  0  0  0  0
  7  8  1  0  0  0  0
  7  9  1  0  0  0  0
  7 10  1  0  0  0  0
 10 11  1  0  0  0  0
 10 12  1  0  0  0  0
 10 13  1  0  0  0  0
 13 14  1  0  0  0  0
 13 15  1  0  0  0  0
 13 16  1  0  0  0  0
 16 17  1  0  0  0  0
 16 18  1  0  0  0  0
 16 19  1  0  0  0  0
 19 20  1  0  0  0  0
 19 21  1  0  0  0  0
 19 22  1  0  0  0  0
 22 23  1  0  0  0  0
 22 24  1  0  0  0  0
 22 25  1  0  0  0  0
M  END
> <VConfSearch Rank>
801

> <Conf_Id>
0

> <Delta U+W>
0.000

> <U+W>
-51.629

> <U>
6.586

> <W>
-58.216

> <W(PB)>
-60.757

> <W(SA)>
2.541

> <Valence>
8.027

> <Coulomb>
-2.892

> <VdW>
1.451

> <VdW6>
-7.931

> <VdW12>
9.383

> <Bond>
0.149

> <Angle>
2.726

> <Pdih>
5.152

> <Idih>
0.000

> <Tether>
0.000

$$$$
VeraChem MOL file


 25 24  0  0  0  0  0  0  0  0999 V2000     
   22.9445   21.7691   20.4952 C   0  0  0  0  0  0  0  0  0  0  0  0
   23.0127   22.9338   20.8350 O   0  5  0  0  0  0  0  0  0  0  0  0
   23.8660   21.1605   19.9882 O   0  0  0  0  0  0  0  0  0  0  0  0
   21.6376   21.0234   20.7398 C   0  0  0  0  0  0  0  0  0  0  0  0
   21.5165   20.2784   19.9443 H   0  0  0  0  0  0  0  0  0  0  0  0
   20.8131   21.7398   20.6414 H   0  0  0  0  0  0  0  0  0  0  0  0
   21.5872   20.3373   22.1272 C   0  0  0  0  0  0  0  0  0  0  0  0
   22.4264   19.6333   22.2145 H   0  0  0  0  0  0  0  0  0  0  0  0
   21.7232   21.0947   22.9117 H   0  0  0  0  0  0  0  0  0  0  0  0
   20.2549   19.5896   22.3508 C   0  0  0  0  0  0  0  0  0  0  0  0
   20.1214   18.8340   21.5643 H   0  0  0  0  0  0  0  0  0  0  0  0
   19.4180   20.2958   22.2614 H   0  0  0  0  0  0  0  0  0  0  0  0
   20.2076   18.9069   23.7346 C   0  0  0  0  0  0  0  0  0  0  0  0
   21.0443   18.2006   23.8242 H   0  0  0  0  0  0  0  0  0  0  0  0
   20.3410   19.6623   24.5212 H   0  0  0  0  0  0  0  0  0  0  0  0
   18.8755   18.1590   23.9590 C   0  0  0  0  0  0  0  0  0  0  0  0
   18.7418   17.4035   23.1726 H   0  0  0  0  0  0  0  0  0  0  0  0
   18.0386   18.8651   23.8695 H   0  0  0  0  0  0  0  0  0  0  0  0
   18.8280   17.4766   25.3422 C   0  0  0  0  0  0  0  0  0  0  0  0
   19.6628   16.7681   25.4347 H   0  0  0  0  0  0  0  0  0  0  0  0
   18.9595   18.2297   26.1316 H   0  0  0  0  0  0  0  0  0  0  0  0
   17.4964   16.7309   25.5624 C   0  0  0  0  0  0  0  0  0  0  0  0
   17.4798   16.2520   26.5501 H   0  0  0  0  0  0  0  0  0  0  0  0
   16.6452   17.4221   25.5066 H   0  0  0  0  0  0  0  0  0  0  0  0
   17.3538   15.9495   24.8045 H   0  0  0  0  0  0  0  0  0  0  0  0
  1  2  1  0  0  0  0
  1  3  2  0  0  0  0
  1  4  1  0  0  0  0
  4  5  1  0  0  0  0
  4  6  1  0  0  0  0
  4  7  1  0  0  0  0
  7  8  1  0  0  0  0
  7  9  1  0  0  0  0
  7 10  1  0  0  0  0
 10 11  1  0  0  0  0
 10 12  1  0  0  0  0
 10 13  1  0  0  0  0
 13 14  1  0  0  0  0
 13 15  1  0  0  0  0
 13 16  1  0  0  0  0
 16 17  1  0  0  0  0
 16 18  1  0  0  0  0
 16 19  1  0  0  0  0
 19 20  1  0  0  0  0
 19 21  1  0  0  0  0
 19 22  1  0  0  0  0
 22 23  1  0  0  0  0
 22 24  1  0  0  0  0
 22 25  1  0  0  0  0
M  END
> <VConfSearch Rank>
802

> <Conf_Id>
27

> <Delta U+W>
-1.297

> <U+W>
-52.926

> <U>
5.617

> <W>
-58.543

> <W(PB)>
-61.065

> <W(SA)>
2.522

> <Valence>
7.531

> <Coulomb>
-2.818

> <VdW>
0.904

> <VdW6>
-7.640

> <VdW12>
8.544

> <Bond>
0.115

> <Angle>
2.271

> <Pdih>
5.144

> <Idih>
0.001

> <Tether>
0.000

$$$$
VeraChem MOL file


 25 24  0  0  0  0  0  0  0  0999 V2000     
   19.9401   18.1658   19.4306 C   0  0  0  0  0  0  0  0  0  0  0  0
   20.9048   17.5642   19.0009 O   0  5  0  0  0  0  0  0  0  0  0  0
   18.8307   17.6787   19.5247 O   0  0  0  0  0  0  0  0  0  0  0  0
   20.1312   19.6179   19.8592 C   0  0  0  0  0  0  0  0  0  0  0  0
   19.1499   20.1069   19.8865 H   0  0  0  0  0  0  0  0  0  0  0  0
   20.7130   20.1172   19.0755 H   0  0  0  0  0  0  0  0  0  0  0  0
   20.8503   19.7831   21.2232 C   0  0  0  0  0  0  0  0  0  0  0  0
   21.8187   19.2649   21.1892 H   0  0  0  0  0  0  0  0  0  0  0  0
   21.0670   20.8477   21.3853 H   0  0  0  0  0  0  0  0  0  0  0  0
   20.0116   19.2481   22.4057 C   0  0  0  0  0  0  0  0  0  0  0  0
   19.8054   18.1788   22.2595 H   0  0  0  0  0  0  0  0  0  0  0  0
   19.0395   19.7596   22.4272 H   0  0  0  0  0  0  0  0  0  0  0  0
   20.7321   19.4516   23.7560 C   0  0  0  0  0  0  0  0  0  0  0  0
   21.7041   18.9398   23.7335 H   0  0  0  0  0  0  0  0  0  0  0  0
   20.9366   20.5206   23.9057 H   0  0  0  0  0  0  0  0  0  0  0  0
   19.8951   18.9165   24.9379 C   0  0  0  0  0  0  0  0  0  0  0  0
   19.6904   17.8475   24.7882 H   0  0  0  0  0  0  0  0  0  0  0  0
   18.9229   19.4279   24.9603 H   0  0  0  0  0  0  0  0  0  0  0  0
   20.6151   19.1191   26.2877 C   0  0  0  0  0  0  0  0  0  0  0  0
   21.5873   18.6073   26.2694 H   0  0  0  0  0  0  0  0  0  0  0  0
   20.8197   20.1877   26.4416 H   0  0  0  0  0  0  0  0  0  0  0  0
   19.7760   18.5834   27.4652 C   0  0  0  0  0  0  0  0  0  0  0  0
   19.5829   17.5084   27.3529 H   0  0  0  0  0  0  0  0  0  0  0  0
   20.3026   18.7355   28.4163 H   0  0  0  0  0  0  0  0  0  0  0  0
   18.8096   19.1007   27.5263 H   0  0  0  0  0  0  0  0  0  0  0  0
  1  2  1  0  0  0  0
  1  3  2  0  0  0  0
  1  4  1  0  0  0  0
  4  5  1  0  0  0  0
  4  6  1  0  0  0  0
  4  7  1  0  0  0  0
  7  8  1  0  0  0  0
  7  9  1  0  0  0  0
  7 10  1  0  0  0  0
 10 11  1  0  0  0  0
 10 12  1  0  0  0  0
 10 13  1  0  0  0  0
 13 14  1  0  0  0  0
 13 15  1  0  0  0  0
 13 16  1  0  0  0  0
 16 17  1  0  0  0  0
 16 18  1  0  0  0  0
 16 19  1  0  0  0  0
 19 20  1  0  0  0  0
 19 21  1  0  0  0  0
 19 22  1  0  0  0  0
 22 23  1  0  0  0  0
 22 24  1  0  0  0  0
 22 25  1  0  0  0  0
M  END
> <VConfSearch Rank>
803

> <Conf_Id>
37

> <Delta U+W>
-0.230

> <U+W>
-51.860

> <U>
7.816

> <W>
-59.675

> <W(PB)>
-62.180

> <W(SA)>
2.505

> <Valence>
7.785

> <Coulomb>
-0.713

> <VdW>
0.744

> <VdW6>
-8.514

> <VdW12>
9.259

> <Bond>
0.136

> <Angle>
2.433

> <Pdih>
5.216

> <Idih>
0.000

> <Tether>
0.000

$$$$
VeraChem MOL file


 25 24  0  0  0  0  0  0  0  0999 V2000     
   21.4836   15.6550   24.0004 C   0  0  0  0  0  0  0  0  0  0  0  0
   22.2697   15.6090   24.9261 O   0  5  0  0  0  0  0  0  0  0  0  0
   21.7968   15.4642   22.8417 O   0  0  0  0  0  0  0  0  0  0  0  0
   20.0202   15.9529   24.3143 C   0  0  0  0  0  0  0  0  0  0  0  0
   19.7353   15.3302   25.1705 H   0  0  0  0  0  0  0  0  0  0  0  0
   19.4066   15.6262   23.4660 H   0  0  0  0  0  0  0  0  0  0  0  0
   19.7357   17.4423   24.6392 C   0  0  0  0  0  0  0  0  0  0  0  0
   18.6975   17.5399   24.9844 H   0  0  0  0  0  0  0  0  0  0  0  0
   20.3773   17.7621   25.4721 H   0  0  0  0  0  0  0  0  0  0  0  0
   19.9571   18.3688   23.4224 C   0  0  0  0  0  0  0  0  0  0  0  0
   19.3236   18.0369   22.5884 H   0  0  0  0  0  0  0  0  0  0  0  0
   20.9988   18.2899   23.0817 H   0  0  0  0  0  0  0  0  0  0  0  0
   19.6379   19.8412   23.7593 C   0  0  0  0  0  0  0  0  0  0  0  0
   18.5958   19.9230   24.0975 H   0  0  0  0  0  0  0  0  0  0  0  0
   20.2719   20.1722   24.5933 H   0  0  0  0  0  0  0  0  0  0  0  0
   19.8596   20.7676   22.5442 C   0  0  0  0  0  0  0  0  0  0  0  0
   19.2258   20.4367   21.7100 H   0  0  0  0  0  0  0  0  0  0  0  0
   20.9017   20.6859   22.2058 H   0  0  0  0  0  0  0  0  0  0  0  0
   19.5412   22.2396   22.8806 C   0  0  0  0  0  0  0  0  0  0  0  0
   18.4989   22.3255   23.2178 H   0  0  0  0  0  0  0  0  0  0  0  0
   20.1748   22.5747   23.7135 H   0  0  0  0  0  0  0  0  0  0  0  0
   19.7639   23.1613   21.6646 C   0  0  0  0  0  0  0  0  0  0  0  0
   19.1187   22.8680   20.8261 H   0  0  0  0  0  0  0  0  0  0  0  0
   19.5330   24.2033   21.9215 H   0  0  0  0  0  0  0  0  0  0  0  0
   20.8072   23.1190   21.3255 H   0  0  0  0  0  0  0  0  0  0  0  0
  1  2  1  0  0  0  0
  1  3  2  0  0  0  0
  1  4  1  0  0  0  0
  4  5  1  0  0  0  0
  4  6  1  0  0  0  0
  4  7  1  0  0  0  0
  7  8  1  0  0  0  0
  7  9  1  0  0  0  0
  7 10  1  0  0  0  0
 10 11  1  0  0  0  0
 10 12  1  0  0  0  0
 10 13  1  0  0  0  0
 13 14  1  0  0  0  0
 13 15  1  0  0  0  0
 13 16  1  0  0  0  0
 16 17  1  0  0  0  0
 16 18  1  0  0  0  0
 16 19  1  0  0  0  0
 19 20  1  0  0  0  0
 19 21  1  0  0  0  0
 19 22  1  0  0  0  0
 22 23  1  0  0  0  0
 22 24  1  0  0  0  0
 22 25  1  0  0  0  0
M  END
> <VConfSearch Rank>
804

> <Conf_Id>
54

> <Delta U+W>
-0.224

> <U+W>
-51.854

> <U>
7.816

> <W>
-59.670

> <W(PB)>
-62.157

> <W(SA)>
2.487

> <Valence>
7.785

> <Coulomb>
-0.713

> <VdW>
0.744

> <VdW6>
-8.515

> <VdW12>
9.259

> <Bond>
0.136

> <Angle>
2.433

> <Pdih>
5.215

> <Idih>
0.000

> <Tether>
0.000

$$$$
VeraChem MOL file


 25 24  0  0  0  0  0  0  0  0999 V2000     
   21.8090   22.1413   21.1854 C   0  0  0  0  0  0  0  0  0  0  0  0
   22.3799   21.5925   20.2634 O   0  5  0  0  0  0  0  0  0  0  0  0
   21.0441   23.0749   21.0426 O   0  0  0  0  0  0  0  0  0  0  0  0
   22.0801   21.6443   22.6026 C   0  0  0  0  0  0  0  0  0  0  0  0
   22.2597   22.5258   23.2292 H   0  0  0  0  0  0  0  0  0  0  0  0
   23.0101   21.0630   22.5984 H   0  0  0  0  0  0  0  0  0  0  0  0
   20.9263   20.8042   23.2098 C   0  0  0  0  0  0  0  0  0  0  0  0
   21.1457   20.6301   24.2706 H   0  0  0  0  0  0  0  0  0  0  0  0
   19.9939   21.3840   23.1691 H   0  0  0  0  0  0  0  0  0  0  0  0
   20.7339   19.4494   22.4862 C   0  0  0  0  0  0  0  0  0  0  0  0
   21.6520   18.8515   22.5669 H   0  0  0  0  0  0  0  0  0  0  0  0
   20.5790   19.6337   21.4143 H   0  0  0  0  0  0  0  0  0  0  0  0
   19.5326   18.6294   23.0150 C   0  0  0  0  0  0  0  0  0  0  0  0
   18.6181   19.2345   22.9517 H   0  0  0  0  0  0  0  0  0  0  0  0
   19.3862   17.7735   22.3441 H   0  0  0  0  0  0  0  0  0  0  0  0
   19.7227   18.1181   24.4646 C   0  0  0  0  0  0  0  0  0  0  0  0
   19.8619   18.9725   25.1386 H   0  0  0  0  0  0  0  0  0  0  0  0
   20.6401   17.5173   24.5284 H   0  0  0  0  0  0  0  0  0  0  0  0
   18.5248   17.2897   24.9857 C   0  0  0  0  0  0  0  0  0  0  0  0
   18.6772   17.0861   26.0546 H   0  0  0  0  0  0  0  0  0  0  0  0
   17.6030   17.8831   24.9117 H   0  0  0  0  0  0  0  0  0  0  0  0
   18.3396   15.9458   24.2478 C   0  0  0  0  0  0  0  0  0  0  0  0
   18.0632   16.0988   23.1973 H   0  0  0  0  0  0  0  0  0  0  0  0
   19.2611   15.3500   24.2789 H   0  0  0  0  0  0  0  0  0  0  0  0
   17.5411   15.3573   24.7179 H   0  0  0  0  0  0  0  0  0  0  0  0
  1  2  1  0  0  0  0
  1  3  2  0  0  0  0
  1  4  1  0  0  0  0
  4  5  1  0  0  0  0
  4  6  1  0  0  0  0
  4  7  1  0  0  0  0
  7  8  1  0  0  0  0
  7  9  1  0  0  0  0
  7 10  1  0  0  0  0
 10 11  1  0  0  0  0
 10 12  1  0  0  0  0
 10 13  1  0  0  0  0
 13 14  1  0  0  0  0
 13 15  1  0  0  0  0
 13 16  1  0  0  0  0
 16 17  1  0  0  0  0
 16 18  1  0  0  0  0
 16 19  1  0  0  0  0
 19 20  1  0  0  0  0
 19 21  1  0  0  0  0
 19 22  1  0  0  0  0
 22 23  1  0  0  0  0
 22 24  1  0  0  0  0
 22 25  1  0  0  0  0
M  END
> <VConfSearch Rank>
805

> <Conf_Id>
101

> <Delta U+W>
1.534

> <U+W>
-50.095

> <U>
9.416

> <W>
-59.512

> <W(PB)>
-61.988

> <W(SA)>
2.476

> <Valence>
8.939

> <Coulomb>
-0.615

> <VdW>
1.092

> <VdW6>
-9.710

> <VdW12>
10.802

> <Bond>
0.216

> <Angle>
2.979

> <Pdih>
5.743

> <Idih>
0.000

> <Tether>
0.000

$$$$
VeraChem MOL file


 25 24  0  0  0  0  0  0  0  0999 V2000     
   16.0850   19.8288   24.3197 C   0  0  0  0  0  0  0  0  0  0  0  0
   15.9882   19.6416   25.5165 O   0  5  0  0  0  0  0  0  0  0  0  0
   15.2819   20.4705   23.6717 O   0  0  0  0  0  0  0  0  0  0  0  0
   17.2927   19.2453   23.5949 C   0  0  0  0  0  0  0  0  0  0  0  0
   16.9885   19.0004   22.5703 H   0  0  0  0  0  0  0  0  0  0  0  0
   17.5550   18.3042   24.0907 H   0  0  0  0  0  0  0  0  0  0  0  0
   18.5051   20.2124   23.5764 C   0  0  0  0  0  0  0  0  0  0  0  0
   18.1786   21.1767   23.1630 H   0  0  0  0  0  0  0  0  0  0  0  0
   18.8322   20.4119   24.6063 H   0  0  0  0  0  0  0  0  0  0  0  0
   19.6995   19.6953   22.7393 C   0  0  0  0  0  0  0  0  0  0  0  0
   20.4396   20.5028   22.6710 H   0  0  0  0  0  0  0  0  0  0  0  0
   19.3680   19.4873   21.7130 H   0  0  0  0  0  0  0  0  0  0  0  0
   20.3711   18.4350   23.3381 C   0  0  0  0  0  0  0  0  0  0  0  0
   20.7031   18.6430   24.3635 H   0  0  0  0  0  0  0  0  0  0  0  0
   19.6311   17.6287   23.4154 H   0  0  0  0  0  0  0  0  0  0  0  0
   21.5590   17.9070   22.4940 C   0  0  0  0  0  0  0  0  0  0  0  0
   21.1896   17.6228   21.4993 H   0  0  0  0  0  0  0  0  0  0  0  0
   21.9315   16.9816   22.9539 H   0  0  0  0  0  0  0  0  0  0  0  0
   22.7446   18.8893   22.3235 C   0  0  0  0  0  0  0  0  0  0  0  0
   23.5141   18.4036   21.7079 H   0  0  0  0  0  0  0  0  0  0  0  0
   22.4248   19.7769   21.7619 H   0  0  0  0  0  0  0  0  0  0  0  0
   23.3802   19.3209   23.6627 C   0  0  0  0  0  0  0  0  0  0  0  0
   23.6859   18.4469   24.2524 H   0  0  0  0  0  0  0  0  0  0  0  0
   24.2705   19.9376   23.4845 H   0  0  0  0  0  0  0  0  0  0  0  0
   22.6794   19.9145   24.2633 H   0  0  0  0  0  0  0  0  0  0  0  0
  1  2  1  0  0  0  0
  1  3  2  0  0  0  0
  1  4  1  0  0  0  0
  4  5  1  0  0  0  0
  4  6  1  0  0  0  0
  4  7  1  0  0  0  0
  7  8  1  0  0  0  0
  7  9  1  0  0  0  0
  7 10  1  0  0  0  0
 10 11  1  0  0  0  0
 10 12  1  0  0  0  0
 10 13  1  0  0  0  0
 13 14  1  0  0  0  0
 13 15  1  0  0  0  0
 13 16  1  0  0  0  0
 16 17  1  0  0  0  0
 16 18  1  0  0  0  0
 16 19  1  0  0  0  0
 19 20  1  0  0  0  0
 19 21  1  0  0  0  0
 19 22  1  0  0  0  0
 22 23  1  0  0  0  0
 22 24  1  0  0  0  0
 22 25  1  0  0  0  0
M  END
> <VConfSearch Rank>
806

> <Conf_Id>
75

> <Delta U+W>
1.014

> <U+W>
-50.615

> <U>
8.474

> <W>
-59.089

> <W(PB)>
-61.530

> <W(SA)>
2.441

> <Valence>
9.080

> <Coulomb>
-1.772

> <VdW>
1.165

> <VdW6>
-9.830

> <VdW12>
10.996

> <Bond>
0.240

> <Angle>
3.225

> <Pdih>
5.615

> <Idih>
0.001

> <Tether>
0.000

$$$$
VeraChem MOL file


 25 24  0  0  0  0  0  0  0  0999 V2000     
   23.5129   21.6668   23.4331 C   0  0  0  0  0  0  0  0  0  0  0  0
   23.8583   21.7685   24.5937 O   0  5  0  0  0  0  0  0  0  0  0  0
   24.2695   21.7988   22.4914 O   0  0  0  0  0  0  0  0  0  0  0  0
   22.0538   21.3339   23.1429 C   0  0  0  0  0  0  0  0  0  0  0  0
   21.7763   21.8143   22.1970 H   0  0  0  0  0  0  0  0  0  0  0  0
   21.4382   21.7866   23.9295 H   0  0  0  0  0  0  0  0  0  0  0  0
   21.7881   19.8102   23.0668 C   0  0  0  0  0  0  0  0  0  0  0  0
   22.4210   19.3699   22.2839 H   0  0  0  0  0  0  0  0  0  0  0  0
   22.0833   19.3427   24.0165 H   0  0  0  0  0  0  0  0  0  0  0  0
   20.3043   19.4993   22.7738 C   0  0  0  0  0  0  0  0  0  0  0  0
   20.0136   19.9689   21.8242 H   0  0  0  0  0  0  0  0  0  0  0  0
   19.6786   19.9513   23.5526 H   0  0  0  0  0  0  0  0  0  0  0  0
   20.0452   17.9764   22.6929 C   0  0  0  0  0  0  0  0  0  0  0  0
   20.6645   17.5669   21.8831 H   0  0  0  0  0  0  0  0  0  0  0  0
   20.3804   17.4818   23.6147 H   0  0  0  0  0  0  0  0  0  0  0  0
   18.5642   17.6196   22.4069 C   0  0  0  0  0  0  0  0  0  0  0  0
   18.5459   16.7328   21.7587 H   0  0  0  0  0  0  0  0  0  0  0  0
   18.0836   18.4210   21.8294 H   0  0  0  0  0  0  0  0  0  0  0  0
   17.7230   17.2932   23.6658 C   0  0  0  0  0  0  0  0  0  0  0  0
   16.7213   16.9773   23.3432 H   0  0  0  0  0  0  0  0  0  0  0  0
   18.1625   16.4329   24.1893 H   0  0  0  0  0  0  0  0  0  0  0  0
   17.5761   18.4712   24.6512 C   0  0  0  0  0  0  0  0  0  0  0  0
   17.2005   19.3676   24.1408 H   0  0  0  0  0  0  0  0  0  0  0  0
   16.8699   18.2161   25.4518 H   0  0  0  0  0  0  0  0  0  0  0  0
   18.5362   18.7141   25.1230 H   0  0  0  0  0  0  0  0  0  0  0  0
  1  2  1  0  0  0  0
  1  3  2  0  0  0  0
  1  4  1  0  0  0  0
  4  5  1  0  0  0  0
  4  6  1  0  0  0  0
  4  7  1  0  0  0  0
  7  8  1  0  0  0  0
  7  9  1  0  0  0  0
  7 10  1  0  0  0  0
 10 11  1  0  0  0  0
 10 12  1  0  0  0  0
 10 13  1  0  0  0  0
 13 14  1  0  0  0  0
 13 15  1  0  0  0  0
 13 16  1  0  0  0  0
 16 17  1  0  0  0  0
 16 18  1  0  0  0  0
 16 19  1  0  0  0  0
 19 20  1  0  0  0  0
 19 21  1  0  0  0  0
 19 22  1  0  0  0  0
 22 23  1  0  0  0  0
 22 24  1  0  0  0  0
 22 25  1  0  0  0  0
M  END
> <VConfSearch Rank>
807

> <Conf_Id>
125

> <Delta U+W>
2.314

> <U+W>
-49.315

> <U>
9.740

> <W>
-59.054

> <W(PB)>
-61.488

> <W(SA)>
2.433

> <Valence>
10.506

> <Coulomb>
-1.761

> <VdW>
0.994

> <VdW6>
-9.209

> <VdW12>
10.203

> <Bond>
0.193

> <Angle>
2.979

> <Pdih>
7.334

> <Idih>
0.001

> <Tether>
0.000

$$$$
VeraChem MOL file


 25 24  0  0  0  0  0  0  0  0999 V2000     
   18.8379   15.7705   21.3627 C   0  0  0  0  0  0  0  0  0  0  0  0
   17.9960   15.2793   22.0883 O   0  5  0  0  0  0  0  0  0  0  0  0
   19.2655   15.2268   20.3635 O   0  0  0  0  0  0  0  0  0  0  0  0
   19.4071   17.1336   21.7397 C   0  0  0  0  0  0  0  0  0  0  0  0
   18.6078   17.7054   22.2243 H   0  0  0  0  0  0  0  0  0  0  0  0
   19.6698   17.6602   20.8145 H   0  0  0  0  0  0  0  0  0  0  0  0
   20.6458   17.0303   22.6671 C   0  0  0  0  0  0  0  0  0  0  0  0
   20.3591   16.5432   23.6094 H   0  0  0  0  0  0  0  0  0  0  0  0
   21.3880   16.3739   22.1921 H   0  0  0  0  0  0  0  0  0  0  0  0
   21.3105   18.3954   22.9654 C   0  0  0  0  0  0  0  0  0  0  0  0
   21.6047   18.8755   22.0220 H   0  0  0  0  0  0  0  0  0  0  0  0
   22.2385   18.2155   23.5252 H   0  0  0  0  0  0  0  0  0  0  0  0
   20.4096   19.3537   23.7785 C   0  0  0  0  0  0  0  0  0  0  0  0
   19.5105   19.5936   23.1981 H   0  0  0  0  0  0  0  0  0  0  0  0
   20.0766   18.8529   24.6977 H   0  0  0  0  0  0  0  0  0  0  0  0
   21.1513   20.6608   24.1426 C   0  0  0  0  0  0  0  0  0  0  0  0
   21.4445   21.1878   23.2243 H   0  0  0  0  0  0  0  0  0  0  0  0
   22.0827   20.4094   24.6680 H   0  0  0  0  0  0  0  0  0  0  0  0
   20.3226   21.6087   25.0407 C   0  0  0  0  0  0  0  0  0  0  0  0
   20.0321   21.0864   25.9628 H   0  0  0  0  0  0  0  0  0  0  0  0
   20.9599   22.4493   25.3481 H   0  0  0  0  0  0  0  0  0  0  0  0
   19.0643   22.1688   24.3425 C   0  0  0  0  0  0  0  0  0  0  0  0
   18.3414   21.3739   24.1210 H   0  0  0  0  0  0  0  0  0  0  0  0
   18.5630   22.9031   24.9863 H   0  0  0  0  0  0  0  0  0  0  0  0
   19.3269   22.6685   23.4010 H   0  0  0  0  0  0  0  0  0  0  0  0
  1  2  1  0  0  0  0
  1  3  2  0  0  0  0
  1  4  1  0  0  0  0
  4  5  1  0  0  0  0
  4  6  1  0  0  0  0
  4  7  1  0  0  0  0
  7  8  1  0  0  0  0
  7  9  1  0  0  0  0
  7 10  1  0  0  0  0
 10 11  1  0  0  0  0
 10 12  1  0  0  0  0
 10 13  1  0  0  0  0
 13 14  1  0  0  0  0
 13 15  1  0  0  0  0
 13 16  1  0  0  0  0
 16 17  1  0  0  0  0
 16 18  1  0  0  0  0
 16 19  1  0  0  0  0
 19 20  1  0  0  0  0
 19 21  1  0  0  0  0
 19 22  1  0  0  0  0
 22 23  1  0  0  0  0
 22 24  1  0  0  0  0
 22 25  1  0  0  0  0
M  END
> <VConfSearch Rank>
808

> <Conf_Id>
4

> <Delta U+W>
0.189

> <U+W>
-51.441

> <U>
7.701

> <W>
-59.141

> <W(PB)>
-61.609

> <W(SA)>
2.467

> <Valence>
8.550

> <Coulomb>
-1.988

> <VdW>
1.139

> <VdW6>
-8.988

> <VdW12>
10.127

> <Bond>
0.191

> <Angle>
2.738

> <Pdih>
5.621

> <Idih>
0.001

> <Tether>
0.000

$$$$
VeraChem MOL file


 25 24  0  0  0  0  0  0  0  0999 V2000     
   16.1019   20.1897   23.8318 C   0  0  0  0  0  0  0  0  0  0  0  0
   15.5363   19.8111   22.8251 O   0  5  0  0  0  0  0  0  0  0  0  0
   15.5211   20.6187   24.8093 O   0  0  0  0  0  0  0  0  0  0  0  0
   17.6229   20.0997   23.8804 C   0  0  0  0  0  0  0  0  0  0  0  0
   17.9922   20.9193   24.5083 H   0  0  0  0  0  0  0  0  0  0  0  0
   17.9991   20.2718   22.8657 H   0  0  0  0  0  0  0  0  0  0  0  0
   18.1258   18.7382   24.4269 C   0  0  0  0  0  0  0  0  0  0  0  0
   17.6553   18.5548   25.4029 H   0  0  0  0  0  0  0  0  0  0  0  0
   17.7889   17.9296   23.7636 H   0  0  0  0  0  0  0  0  0  0  0  0
   19.6622   18.6694   24.5967 C   0  0  0  0  0  0  0  0  0  0  0  0
   19.9151   17.7234   25.0949 H   0  0  0  0  0  0  0  0  0  0  0  0
   19.9946   19.4729   25.2682 H   0  0  0  0  0  0  0  0  0  0  0  0
   20.4334   18.7562   23.2593 C   0  0  0  0  0  0  0  0  0  0  0  0
   20.0641   17.9832   22.5718 H   0  0  0  0  0  0  0  0  0  0  0  0
   20.2408   19.7268   22.7865 H   0  0  0  0  0  0  0  0  0  0  0  0
   21.9553   18.5777   23.4670 C   0  0  0  0  0  0  0  0  0  0  0  0
   22.1357   17.6330   23.9977 H   0  0  0  0  0  0  0  0  0  0  0  0
   22.3362   19.3773   24.1169 H   0  0  0  0  0  0  0  0  0  0  0  0
   22.7586   18.5586   22.1455 C   0  0  0  0  0  0  0  0  0  0  0  0
   23.8045   18.3103   22.3727 H   0  0  0  0  0  0  0  0  0  0  0  0
   22.3836   17.7564   21.4950 H   0  0  0  0  0  0  0  0  0  0  0  0
   22.7208   19.9031   21.3868 C   0  0  0  0  0  0  0  0  0  0  0  0
   23.0618   20.7260   22.0284 H   0  0  0  0  0  0  0  0  0  0  0  0
   23.3768   19.8660   20.5075 H   0  0  0  0  0  0  0  0  0  0  0  0
   21.7081   20.1367   21.0354 H   0  0  0  0  0  0  0  0  0  0  0  0
  1  2  1  0  0  0  0
  1  3  2  0  0  0  0
  1  4  1  0  0  0  0
  4  5  1  0  0  0  0
  4  6  1  0  0  0  0
  4  7  1  0  0  0  0
  7  8  1  0  0  0  0
  7  9  1  0  0  0  0
  7 10  1  0  0  0  0
 10 11  1  0  0  0  0
 10 12  1  0  0  0  0
 10 13  1  0  0  0  0
 13 14  1  0  0  0  0
 13 15  1  0  0  0  0
 13 16  1  0  0  0  0
 16 17  1  0  0  0  0
 16 18  1  0  0  0  0
 16 19  1  0  0  0  0
 19 20  1  0  0  0  0
 19 21  1  0  0  0  0
 19 22  1  0  0  0  0
 22 23  1  0  0  0  0
 22 24  1  0  0  0  0
 22 25  1  0  0  0  0
M  END
> <VConfSearch Rank>
809

> <Conf_Id>
17

> <Delta U+W>
0.219

> <U+W>
-51.411

> <U>
7.701

> <W>
-59.111

> <W(PB)>
-61.599

> <W(SA)>
2.488

> <Valence>
8.550

> <Coulomb>
-1.988

> <VdW>
1.139

> <VdW6>
-8.988

> <VdW12>
10.127

> <Bond>
0.191

> <Angle>
2.738

> <Pdih>
5.621

> <Idih>
0.001

> <Tether>
0.000

$$$$
VeraChem MOL file


 25 24  0  0  0  0  0  0  0  0999 V2000     
   18.0067   22.3819   22.3478 C   0  0  0  0  0  0  0  0  0  0  0  0
   18.5527   22.9389   21.4157 O   0  5  0  0  0  0  0  0  0  0  0  0
   17.8640   22.8877   23.4437 O   0  0  0  0  0  0  0  0  0  0  0  0
   17.4518   20.9776   22.1266 C   0  0  0  0  0  0  0  0  0  0  0  0
   17.3322   20.8144   21.0487 H   0  0  0  0  0  0  0  0  0  0  0  0
   16.4475   20.9485   22.5653 H   0  0  0  0  0  0  0  0  0  0  0  0
   18.3210   19.8529   22.7465 C   0  0  0  0  0  0  0  0  0  0  0  0
   18.4423   20.0485   23.8202 H   0  0  0  0  0  0  0  0  0  0  0  0
   17.7865   18.8977   22.6556 H   0  0  0  0  0  0  0  0  0  0  0  0
   19.7051   19.7308   22.0652 C   0  0  0  0  0  0  0  0  0  0  0  0
   20.2763   20.6579   22.2118 H   0  0  0  0  0  0  0  0  0  0  0  0
   19.5612   19.6247   20.9813 H   0  0  0  0  0  0  0  0  0  0  0  0
   20.5366   18.5280   22.5706 C   0  0  0  0  0  0  0  0  0  0  0  0
   19.9711   17.5988   22.4169 H   0  0  0  0  0  0  0  0  0  0  0  0
   21.4413   18.4468   21.9527 H   0  0  0  0  0  0  0  0  0  0  0  0
   20.9516   18.6466   24.0554 C   0  0  0  0  0  0  0  0  0  0  0  0
   20.0593   18.6529   24.6946 H   0  0  0  0  0  0  0  0  0  0  0  0
   21.4688   19.6023   24.2167 H   0  0  0  0  0  0  0  0  0  0  0  0
   21.8714   17.4842   24.4851 C   0  0  0  0  0  0  0  0  0  0  0  0
   21.3576   16.5265   24.3232 H   0  0  0  0  0  0  0  0  0  0  0  0
   22.7731   17.4731   23.8571 H   0  0  0  0  0  0  0  0  0  0  0  0
   22.2814   17.6019   25.9669 C   0  0  0  0  0  0  0  0  0  0  0  0
   21.3998   17.5831   26.6210 H   0  0  0  0  0  0  0  0  0  0  0  0
   22.9349   16.7683   26.2550 H   0  0  0  0  0  0  0  0  0  0  0  0
   22.8248   18.5379   26.1509 H   0  0  0  0  0  0  0  0  0  0  0  0
  1  2  1  0  0  0  0
  1  3  2  0  0  0  0
  1  4  1  0  0  0  0
  4  5  1  0  0  0  0
  4  6  1  0  0  0  0
  4  7  1  0  0  0  0
  7  8  1  0  0  0  0
  7  9  1  0  0  0  0
  7 10  1  0  0  0  0
 10 11  1  0  0  0  0
 10 12  1  0  0  0  0
 10 13  1  0  0  0  0
 13 14  1  0  0  0  0
 13 15  1  0  0  0  0
 13 16  1  0  0  0  0
 16 17  1  0  0  0  0
 16 18  1  0  0  0  0
 16 19  1  0  0  0  0
 19 20  1  0  0  0  0
 19 21  1  0  0  0  0
 19 22  1  0  0  0  0
 22 23  1  0  0  0  0
 22 24  1  0  0  0  0
 22 25  1  0  0  0  0
M  END
> <VConfSearch Rank>
810

> <Conf_Id>
142

> <Delta U+W>
0.593

> <U+W>
-51.037

> <U>
8.903

> <W>
-59.940

> <W(PB)>
-62.418

> <W(SA)>
2.478

> <Valence>
8.305

> <Coulomb>
-0.223

> <VdW>
0.821

> <VdW6>
-9.236

> <VdW12>
10.057

> <Bond>
0.173

> <Angle>
2.663

> <Pdih>
5.469

> <Idih>
0.001

> <Tether>
0.000

$$$$
VeraChem MOL file


 25 24  0  0  0  0  0  0  0  0999 V2000     
   21.2369   19.7001   26.7538 C   0  0  0  0  0  0  0  0  0  0  0  0
   22.2243   20.0355   27.3784 O   0  5  0  0  0  0  0  0  0  0  0  0
   20.1169   20.1025   27.0003 O   0  0  0  0  0  0  0  0  0  0  0  0
   21.4125   18.6978   25.6164 C   0  0  0  0  0  0  0  0  0  0  0  0
   20.4291   18.2948   25.3482 H   0  0  0  0  0  0  0  0  0  0  0  0
   21.9959   17.8572   26.0094 H   0  0  0  0  0  0  0  0  0  0  0  0
   22.1254   19.2780   24.3645 C   0  0  0  0  0  0  0  0  0  0  0  0
   23.1320   19.6092   24.6547 H   0  0  0  0  0  0  0  0  0  0  0  0
   22.2732   18.4770   23.6288 H   0  0  0  0  0  0  0  0  0  0  0  0
   21.3852   20.4673   23.6995 C   0  0  0  0  0  0  0  0  0  0  0  0
   21.9698   20.8067   22.8336 H   0  0  0  0  0  0  0  0  0  0  0  0
   21.3659   21.3133   24.4002 H   0  0  0  0  0  0  0  0  0  0  0  0
   19.9351   20.1716   23.2409 C   0  0  0  0  0  0  0  0  0  0  0  0
   19.3081   19.9390   24.1121 H   0  0  0  0  0  0  0  0  0  0  0  0
   19.5177   21.0889   22.8039 H   0  0  0  0  0  0  0  0  0  0  0  0
   19.8356   19.0300   22.2029 C   0  0  0  0  0  0  0  0  0  0  0  0
   20.1821   18.0887   22.6491 H   0  0  0  0  0  0  0  0  0  0  0  0
   20.4983   19.2468   21.3541 H   0  0  0  0  0  0  0  0  0  0  0  0
   18.3901   18.8452   21.6952 C   0  0  0  0  0  0  0  0  0  0  0  0
   17.7251   18.6308   22.5433 H   0  0  0  0  0  0  0  0  0  0  0  0
   18.0349   19.7796   21.2391 H   0  0  0  0  0  0  0  0  0  0  0  0
   18.2915   17.7024   20.6647 C   0  0  0  0  0  0  0  0  0  0  0  0
   18.6106   16.7484   21.1045 H   0  0  0  0  0  0  0  0  0  0  0  0
   17.2577   17.5852   20.3147 H   0  0  0  0  0  0  0  0  0  0  0  0
   18.9243   17.9058   19.7910 H   0  0  0  0  0  0  0  0  0  0  0  0
  1  2  1  0  0  0  0
  1  3  2  0  0  0  0
  1  4  1  0  0  0  0
  4  5  1  0  0  0  0
  4  6  1  0  0  0  0
  4  7  1  0  0  0  0
  7  8  1  0  0  0  0
  7  9  1  0  0  0  0
  7 10  1  0  0  0  0
 10 11  1  0  0  0  0
 10 12  1  0  0  0  0
 10 13  1  0  0  0  0
 13 14  1  0  0  0  0
 13 15  1  0  0  0  0
 13 16  1  0  0  0  0
 16 17  1  0  0  0  0
 16 18  1  0  0  0  0
 16 19  1  0  0  0  0
 19 20  1  0  0  0  0
 19 21  1  0  0  0  0
 19 22  1  0  0  0  0
 22 23  1  0  0  0  0
 22 24  1  0  0  0  0
 22 25  1  0  0  0  0
M  END
> <VConfSearch Rank>
811

> <Conf_Id>
135

> <Delta U+W>
1.314

> <U+W>
-50.316

> <U>
9.773

> <W>
-60.088

> <W(PB)>
-62.535

> <W(SA)>
2.447

> <Valence>
8.741

> <Coulomb>
0.479

> <VdW>
0.552

> <VdW6>
-10.627

> <VdW12>
11.179

> <Bond>
0.227

> <Angle>
3.155

> <Pdih>
5.358

> <Idih>
0.001

> <Tether>
0.000

$$$$
VeraChem MOL file


 25 24  0  0  0  0  0  0  0  0999 V2000     
   22.7622   20.8545   26.0666 C   0  0  0  0  0  0  0  0  0  0  0  0
   22.4351   20.6605   27.2208 O   0  5  0  0  0  0  0  0  0  0  0  0
   23.8915   21.1481   25.7273 O   0  0  0  0  0  0  0  0  0  0  0  0
   21.7023   20.6986   24.9819 C   0  0  0  0  0  0  0  0  0  0  0  0
   21.9429   21.3946   24.1694 H   0  0  0  0  0  0  0  0  0  0  0  0
   20.7431   21.0138   25.4072 H   0  0  0  0  0  0  0  0  0  0  0  0
   21.6123   19.2496   24.4361 C   0  0  0  0  0  0  0  0  0  0  0  0
   22.6134   18.9360   24.1093 H   0  0  0  0  0  0  0  0  0  0  0  0
   21.3238   18.5674   25.2477 H   0  0  0  0  0  0  0  0  0  0  0  0
   20.6340   19.0929   23.2472 C   0  0  0  0  0  0  0  0  0  0  0  0
   20.7595   18.0820   22.8394 H   0  0  0  0  0  0  0  0  0  0  0  0
   20.9092   19.7936   22.4473 H   0  0  0  0  0  0  0  0  0  0  0  0
   19.1508   19.2975   23.6380 C   0  0  0  0  0  0  0  0  0  0  0  0
   18.8679   18.5543   24.3957 H   0  0  0  0  0  0  0  0  0  0  0  0
   19.0275   20.2805   24.1091 H   0  0  0  0  0  0  0  0  0  0  0  0
   18.1635   19.2183   22.4461 C   0  0  0  0  0  0  0  0  0  0  0  0
   18.3793   20.0187   21.7253 H   0  0  0  0  0  0  0  0  0  0  0  0
   17.1586   19.4315   22.8355 H   0  0  0  0  0  0  0  0  0  0  0  0
   18.1205   17.8463   21.7278 C   0  0  0  0  0  0  0  0  0  0  0  0
   18.4146   17.0444   22.4190 H   0  0  0  0  0  0  0  0  0  0  0  0
   17.0822   17.6335   21.4381 H   0  0  0  0  0  0  0  0  0  0  0  0
   18.9911   17.8009   20.4522 C   0  0  0  0  0  0  0  0  0  0  0  0
   20.0468   17.9972   20.6713 H   0  0  0  0  0  0  0  0  0  0  0  0
   18.9249   16.8137   19.9770 H   0  0  0  0  0  0  0  0  0  0  0  0
   18.6527   18.5479   19.7225 H   0  0  0  0  0  0  0  0  0  0  0  0
  1  2  1  0  0  0  0
  1  3  2  0  0  0  0
  1  4  1  0  0  0  0
  4  5  1  0  0  0  0
  4  6  1  0  0  0  0
  4  7  1  0  0  0  0
  7  8  1  0  0  0  0
  7  9  1  0  0  0  0
  7 10  1  0  0  0  0
 10 11  1  0  0  0  0
 10 12  1  0  0  0  0
 10 13  1  0  0  0  0
 13 14  1  0  0  0  0
 13 15  1  0  0  0  0
 13 16  1  0  0  0  0
 16 17  1  0  0  0  0
 16 18  1  0  0  0  0
 16 19  1  0  0  0  0
 19 20  1  0  0  0  0
 19 21  1  0  0  0  0
 19 22  1  0  0  0  0
 22 23  1  0  0  0  0
 22 24  1  0  0  0  0
 22 25  1  0  0  0  0
M  END
> <VConfSearch Rank>
812

> <Conf_Id>
19

> <Delta U+W>
3.222

> <U+W>
-48.407

> <U>
10.617

> <W>
-59.025

> <W(PB)>
-61.462

> <W(SA)>
2.437

> <Valence>
11.188

> <Coulomb>
-1.778

> <VdW>
1.208

> <VdW6>
-9.786

> <VdW12>
10.993

> <Bond>
0.241

> <Angle>
3.294

> <Pdih>
7.653

> <Idih>
0.001

> <Tether>
0.000

$$$$
VeraChem MOL file


 25 24  0  0  0  0  0  0  0  0999 V2000     
   18.2145   16.2630   20.8894 C   0  0  0  0  0  0  0  0  0  0  0  0
   18.9493   15.7644   20.0597 O   0  5  0  0  0  0  0  0  0  0  0  0
   17.0017   16.2241   20.8244 O   0  0  0  0  0  0  0  0  0  0  0  0
   18.8492   16.9980   22.0646 C   0  0  0  0  0  0  0  0  0  0  0  0
   19.7885   16.4888   22.3065 H   0  0  0  0  0  0  0  0  0  0  0  0
   18.1867   16.8887   22.9314 H   0  0  0  0  0  0  0  0  0  0  0  0
   19.0986   18.4999   21.7676 C   0  0  0  0  0  0  0  0  0  0  0  0
   19.8011   18.5980   20.9285 H   0  0  0  0  0  0  0  0  0  0  0  0
   18.1540   18.9523   21.4351 H   0  0  0  0  0  0  0  0  0  0  0  0
   19.6239   19.2954   22.9867 C   0  0  0  0  0  0  0  0  0  0  0  0
   18.9330   19.1754   23.8321 H   0  0  0  0  0  0  0  0  0  0  0  0
   19.6175   20.3602   22.7215 H   0  0  0  0  0  0  0  0  0  0  0  0
   21.0549   18.8923   23.4160 C   0  0  0  0  0  0  0  0  0  0  0  0
   21.0875   17.8146   23.6185 H   0  0  0  0  0  0  0  0  0  0  0  0
   21.7489   19.0712   22.5837 H   0  0  0  0  0  0  0  0  0  0  0  0
   21.5686   19.6258   24.6807 C   0  0  0  0  0  0  0  0  0  0  0  0
   22.5622   19.2206   24.9163 H   0  0  0  0  0  0  0  0  0  0  0  0
   20.9342   19.3782   25.5427 H   0  0  0  0  0  0  0  0  0  0  0  0
   21.6980   21.1626   24.5333 C   0  0  0  0  0  0  0  0  0  0  0  0
   22.5957   21.4934   25.0737 H   0  0  0  0  0  0  0  0  0  0  0  0
   21.8591   21.4326   23.4805 H   0  0  0  0  0  0  0  0  0  0  0  0
   20.4861   21.9318   25.1049 C   0  0  0  0  0  0  0  0  0  0  0  0
   20.3656   21.7285   26.1769 H   0  0  0  0  0  0  0  0  0  0  0  0
   20.6252   23.0137   24.9822 H   0  0  0  0  0  0  0  0  0  0  0  0
   19.5526   21.6548   24.6019 H   0  0  0  0  0  0  0  0  0  0  0  0
  1  2  1  0  0  0  0
  1  3  2  0  0  0  0
  1  4  1  0  0  0  0
  4  5  1  0  0  0  0
  4  6  1  0  0  0  0
  4  7  1  0  0  0  0
  7  8  1  0  0  0  0
  7  9  1  0  0  0  0
  7 10  1  0  0  0  0
 10 11  1  0  0  0  0
 10 12  1  0  0  0  0
 10 13  1  0  0  0  0
 13 14  1  0  0  0  0
 13 15  1  0  0  0  0
 13 16  1  0  0  0  0
 16 17  1  0  0  0  0
 16 18  1  0  0  0  0
 16 19  1  0  0  0  0
 19 20  1  0  0  0  0
 19 21  1  0  0  0  0
 19 22  1  0  0  0  0
 22 23  1  0  0  0  0
 22 24  1  0  0  0  0
 22 25  1  0  0  0  0
M  END
> <VConfSearch Rank>
813

> <Conf_Id>
20

> <Delta U+W>
3.224

> <U+W>
-48.406

> <U>
10.617

> <W>
-59.023

> <W(PB)>
-61.467

> <W(SA)>
2.444

> <Valence>
11.188

> <Coulomb>
-1.778

> <VdW>
1.208

> <VdW6>
-9.786

> <VdW12>
10.993

> <Bond>
0.241

> <Angle>
3.294

> <Pdih>
7.653

> <Idih>
0.001

> <Tether>
0.000

$$$$
VeraChem MOL file


 25 24  0  0  0  0  0  0  0  0999 V2000     
   21.3658   22.0809   23.1600 C   0  0  0  0  0  0  0  0  0  0  0  0
   21.6837   22.4594   24.2706 O   0  5  0  0  0  0  0  0  0  0  0  0
   20.4111   22.5203   22.5495 O   0  0  0  0  0  0  0  0  0  0  0  0
   22.2495   21.0460   22.4662 C   0  0  0  0  0  0  0  0  0  0  0  0
   23.2295   21.5183   22.3319 H   0  0  0  0  0  0  0  0  0  0  0  0
   21.8531   20.8548   21.4616 H   0  0  0  0  0  0  0  0  0  0  0  0
   22.4340   19.7080   23.2362 C   0  0  0  0  0  0  0  0  0  0  0  0
   23.3385   19.2176   22.8518 H   0  0  0  0  0  0  0  0  0  0  0  0
   22.6288   19.9110   24.2984 H   0  0  0  0  0  0  0  0  0  0  0  0
   21.2590   18.7090   23.0933 C   0  0  0  0  0  0  0  0  0  0  0  0
   21.5640   17.7555   23.5459 H   0  0  0  0  0  0  0  0  0  0  0  0
   21.0772   18.5015   22.0300 H   0  0  0  0  0  0  0  0  0  0  0  0
   19.9474   19.1789   23.7623 C   0  0  0  0  0  0  0  0  0  0  0  0
   20.1505   19.4858   24.7975 H   0  0  0  0  0  0  0  0  0  0  0  0
   19.5555   20.0589   23.2369 H   0  0  0  0  0  0  0  0  0  0  0  0
   18.8722   18.0704   23.7526 C   0  0  0  0  0  0  0  0  0  0  0  0
   19.2505   17.1862   24.2836 H   0  0  0  0  0  0  0  0  0  0  0  0
   18.6739   17.7615   22.7171 H   0  0  0  0  0  0  0  0  0  0  0  0
   17.5584   18.5424   24.4101 C   0  0  0  0  0  0  0  0  0  0  0  0
   17.7532   18.8514   25.4464 H   0  0  0  0  0  0  0  0  0  0  0  0
   17.1760   19.4260   23.8803 H   0  0  0  0  0  0  0  0  0  0  0  0
   16.4866   17.4338   24.3984 C   0  0  0  0  0  0  0  0  0  0  0  0
   16.8310   16.5487   24.9491 H   0  0  0  0  0  0  0  0  0  0  0  0
   15.5599   17.7867   24.8694 H   0  0  0  0  0  0  0  0  0  0  0  0
   16.2494   17.1277   23.3711 H   0  0  0  0  0  0  0  0  0  0  0  0
  1  2  1  0  0  0  0
  1  3  2  0  0  0  0
  1  4  1  0  0  0  0
  4  5  1  0  0  0  0
  4  6  1  0  0  0  0
  4  7  1  0  0  0  0
  7  8  1  0  0  0  0
  7  9  1  0  0  0  0
  7 10  1  0  0  0  0
 10 11  1  0  0  0  0
 10 12  1  0  0  0  0
 10 13  1  0  0  0  0
 13 14  1  0  0  0  0
 13 15  1  0  0  0  0
 13 16  1  0  0  0  0
 16 17  1  0  0  0  0
 16 18  1  0  0  0  0
 16 19  1  0  0  0  0
 19 20  1  0  0  0  0
 19 21  1  0  0  0  0
 19 22  1  0  0  0  0
 22 23  1  0  0  0  0
 22 24  1  0  0  0  0
 22 25  1  0  0  0  0
M  END
> <VConfSearch Rank>
814

> <Conf_Id>
24

> <Delta U+W>
1.784

> <U+W>
-49.846

> <U>
10.904

> <W>
-60.749

> <W(PB)>
-63.220

> <W(SA)>
2.471

> <Valence>
9.445

> <Coulomb>
0.780

> <VdW>
0.679

> <VdW6>
-10.008

> <VdW12>
10.687

> <Bond>
0.201

> <Angle>
3.198

> <Pdih>
6.039

> <Idih>
0.006

> <Tether>
0.000

$$$$
VeraChem MOL file


 25 24  0  0  0  0  0  0  0  0999 V2000     
   18.1172   20.6899   25.3773 C   0  0  0  0  0  0  0  0  0  0  0  0
   18.4582   20.5112   26.5303 O   0  5  0  0  0  0  0  0  0  0  0  0
   18.3700   21.7012   24.7523 O   0  0  0  0  0  0  0  0  0  0  0  0
   17.2691   19.6167   24.6974 C   0  0  0  0  0  0  0  0  0  0  0  0
   17.0076   19.9556   23.6877 H   0  0  0  0  0  0  0  0  0  0  0  0
   16.3314   19.5616   25.2624 H   0  0  0  0  0  0  0  0  0  0  0  0
   17.9100   18.2014   24.6415 C   0  0  0  0  0  0  0  0  0  0  0  0
   18.3571   17.9540   25.6144 H   0  0  0  0  0  0  0  0  0  0  0  0
   17.1051   17.4707   24.4848 H   0  0  0  0  0  0  0  0  0  0  0  0
   18.9522   18.0043   23.5127 C   0  0  0  0  0  0  0  0  0  0  0  0
   18.4954   18.2416   22.5422 H   0  0  0  0  0  0  0  0  0  0  0  0
   19.2190   16.9392   23.4759 H   0  0  0  0  0  0  0  0  0  0  0  0
   20.2435   18.8336   23.6954 C   0  0  0  0  0  0  0  0  0  0  0  0
   20.0159   19.9030   23.6030 H   0  0  0  0  0  0  0  0  0  0  0  0
   20.6435   18.6757   24.7064 H   0  0  0  0  0  0  0  0  0  0  0  0
   21.3162   18.4582   22.6499 C   0  0  0  0  0  0  0  0  0  0  0  0
   20.9128   18.6121   21.6397 H   0  0  0  0  0  0  0  0  0  0  0  0
   21.5586   17.3903   22.7386 H   0  0  0  0  0  0  0  0  0  0  0  0
   22.6018   19.2937   22.8243 C   0  0  0  0  0  0  0  0  0  0  0  0
   22.3635   20.3627   22.7344 H   0  0  0  0  0  0  0  0  0  0  0  0
   23.0082   19.1414   23.8338 H   0  0  0  0  0  0  0  0  0  0  0  0
   23.6708   18.9169   21.7789 C   0  0  0  0  0  0  0  0  0  0  0  0
   23.3014   19.0897   20.7595 H   0  0  0  0  0  0  0  0  0  0  0  0
   24.5773   19.5204   21.9176 H   0  0  0  0  0  0  0  0  0  0  0  0
   23.9511   17.8591   21.8673 H   0  0  0  0  0  0  0  0  0  0  0  0
  1  2  1  0  0  0  0
  1  3  2  0  0  0  0
  1  4  1  0  0  0  0
  4  5  1  0  0  0  0
  4  6  1  0  0  0  0
  4  7  1  0  0  0  0
  7  8  1  0  0  0  0
  7  9  1  0  0  0  0
  7 10  1  0  0  0  0
 10 11  1  0  0  0  0
 10 12  1  0  0  0  0
 10 13  1  0  0  0  0
 13 14  1  0  0  0  0
 13 15  1  0  0  0  0
 13 16  1  0  0  0  0
 16 17  1  0  0  0  0
 16 18  1  0  0  0  0
 16 19  1  0  0  0  0
 19 20  1  0  0  0  0
 19 21  1  0  0  0  0
 19 22  1  0  0  0  0
 22 23  1  0  0  0  0
 22 24  1  0  0  0  0
 22 25  1  0  0  0  0
M  END
> <VConfSearch Rank>
815

> <Conf_Id>
9

> <Delta U+W>
1.764

> <U+W>
-49.865

> <U>
10.902

> <W>
-60.768

> <W(PB)>
-63.223

> <W(SA)>
2.456

> <Valence>
9.445

> <Coulomb>
0.778

> <VdW>
0.679

> <VdW6>
-10.007

> <VdW12>
10.687

> <Bond>
0.201

> <Angle>
3.198

> <Pdih>
6.040

> <Idih>
0.006

> <Tether>
0.000

$$$$
VeraChem MOL file


 25 24  0  0  0  0  0  0  0  0999 V2000     
   21.8804   16.5873   21.5342 C   0  0  0  0  0  0  0  0  0  0  0  0
   22.9185   17.2055   21.6638 O   0  5  0  0  0  0  0  0  0  0  0  0
   21.8290   15.4212   21.1958 O   0  0  0  0  0  0  0  0  0  0  0  0
   20.5708   17.3082   21.8324 C   0  0  0  0  0  0  0  0  0  0  0  0
   19.8010   16.8993   21.1672 H   0  0  0  0  0  0  0  0  0  0  0  0
   20.6993   18.3608   21.5622 H   0  0  0  0  0  0  0  0  0  0  0  0
   20.1282   17.1598   23.3122 C   0  0  0  0  0  0  0  0  0  0  0  0
   20.0087   16.0880   23.5228 H   0  0  0  0  0  0  0  0  0  0  0  0
   20.9229   17.5159   23.9823 H   0  0  0  0  0  0  0  0  0  0  0  0
   18.7934   17.8793   23.6331 C   0  0  0  0  0  0  0  0  0  0  0  0
   18.2501   17.2760   24.3732 H   0  0  0  0  0  0  0  0  0  0  0  0
   18.1514   17.9074   22.7422 H   0  0  0  0  0  0  0  0  0  0  0  0
   18.9521   19.3040   24.2213 C   0  0  0  0  0  0  0  0  0  0  0  0
   17.9550   19.6804   24.4869 H   0  0  0  0  0  0  0  0  0  0  0  0
   19.5195   19.2429   25.1593 H   0  0  0  0  0  0  0  0  0  0  0  0
   19.6313   20.3136   23.2660 C   0  0  0  0  0  0  0  0  0  0  0  0
   19.1511   20.2546   22.2800 H   0  0  0  0  0  0  0  0  0  0  0  0
   20.6849   20.0395   23.1244 H   0  0  0  0  0  0  0  0  0  0  0  0
   19.5544   21.7751   23.7654 C   0  0  0  0  0  0  0  0  0  0  0  0
   19.9678   22.4351   22.9904 H   0  0  0  0  0  0  0  0  0  0  0  0
   18.5034   22.0686   23.8943 H   0  0  0  0  0  0  0  0  0  0  0  0
   20.3245   22.0103   25.0830 C   0  0  0  0  0  0  0  0  0  0  0  0
   21.3730   21.7001   24.9856 H   0  0  0  0  0  0  0  0  0  0  0  0
   20.3101   23.0744   25.3518 H   0  0  0  0  0  0  0  0  0  0  0  0
   19.8757   21.4513   25.9137 H   0  0  0  0  0  0  0  0  0  0  0  0
  1  2  1  0  0  0  0
  1  3  2  0  0  0  0
  1  4  1  0  0  0  0
  4  5  1  0  0  0  0
  4  6  1  0  0  0  0
  4  7  1  0  0  0  0
  7  8  1  0  0  0  0
  7  9  1  0  0  0  0
  7 10  1  0  0  0  0
 10 11  1  0  0  0  0
 10 12  1  0  0  0  0
 10 13  1  0  0  0  0
 13 14  1  0  0  0  0
 13 15  1  0  0  0  0
 13 16  1  0  0  0  0
 16 17  1  0  0  0  0
 16 18  1  0  0  0  0
 16 19  1  0  0  0  0
 19 20  1  0  0  0  0
 19 21  1  0  0  0  0
 19 22  1  0  0  0  0
 22 23  1  0  0  0  0
 22 24  1  0  0  0  0
 22 25  1  0  0  0  0
M  END
> <VConfSearch Rank>
816

> <Conf_Id>
89

> <Delta U+W>
2.903

> <U+W>
-48.726

> <U>
10.996

> <W>
-59.723

> <W(PB)>
-62.151

> <W(SA)>
2.428

> <Valence>
10.985

> <Coulomb>
-0.995

> <VdW>
1.006

> <VdW6>
-10.062

> <VdW12>
11.069

> <Bond>
0.238

> <Angle>
3.202

> <Pdih>
7.544

> <Idih>
0.001

> <Tether>
0.000

$$$$
VeraChem MOL file


 25 24  0  0  0  0  0  0  0  0999 V2000     
   22.8462   16.9312   23.6283 C   0  0  0  0  0  0  0  0  0  0  0  0
   23.7080   17.7318   23.3225 O   0  5  0  0  0  0  0  0  0  0  0  0
   22.7873   16.3925   24.7164 O   0  0  0  0  0  0  0  0  0  0  0  0
   21.8227   16.5344   22.5661 C   0  0  0  0  0  0  0  0  0  0  0  0
   21.9875   15.4698   22.3633 H   0  0  0  0  0  0  0  0  0  0  0  0
   22.0482   17.0693   21.6356 H   0  0  0  0  0  0  0  0  0  0  0  0
   20.3351   16.7486   22.9645 C   0  0  0  0  0  0  0  0  0  0  0  0
   19.7185   16.0989   22.3288 H   0  0  0  0  0  0  0  0  0  0  0  0
   20.1696   16.4063   23.9955 H   0  0  0  0  0  0  0  0  0  0  0  0
   19.8170   18.1989   22.7966 C   0  0  0  0  0  0  0  0  0  0  0  0
   18.7298   18.1819   22.9421 H   0  0  0  0  0  0  0  0  0  0  0  0
   19.9853   18.5340   21.7641 H   0  0  0  0  0  0  0  0  0  0  0  0
   20.4493   19.2118   23.7817 C   0  0  0  0  0  0  0  0  0  0  0  0
   20.3369   18.8502   24.8129 H   0  0  0  0  0  0  0  0  0  0  0  0
   21.5272   19.2774   23.5900 H   0  0  0  0  0  0  0  0  0  0  0  0
   19.8617   20.6387   23.6631 C   0  0  0  0  0  0  0  0  0  0  0  0
   19.9452   20.9863   22.6243 H   0  0  0  0  0  0  0  0  0  0  0  0
   20.4787   21.3176   24.2675 H   0  0  0  0  0  0  0  0  0  0  0  0
   18.3938   20.7471   24.1352 C   0  0  0  0  0  0  0  0  0  0  0  0
   17.7420   20.1404   23.4935 H   0  0  0  0  0  0  0  0  0  0  0  0
   18.3022   20.3475   25.1546 H   0  0  0  0  0  0  0  0  0  0  0  0
   17.8991   22.2075   24.1118 C   0  0  0  0  0  0  0  0  0  0  0  0
   17.9546   22.6243   23.0977 H   0  0  0  0  0  0  0  0  0  0  0  0
   16.8554   22.2677   24.4465 H   0  0  0  0  0  0  0  0  0  0  0  0
   18.5045   22.8386   24.7756 H   0  0  0  0  0  0  0  0  0  0  0  0
  1  2  1  0  0  0  0
  1  3  2  0  0  0  0
  1  4  1  0  0  0  0
  4  5  1  0  0  0  0
  4  6  1  0  0  0  0
  4  7  1  0  0  0  0
  7  8  1  0  0  0  0
  7  9  1  0  0  0  0
  7 10  1  0  0  0  0
 10 11  1  0  0  0  0
 10 12  1  0  0  0  0
 10 13  1  0  0  0  0
 13 14  1  0  0  0  0
 13 15  1  0  0  0  0
 13 16  1  0  0  0  0
 16 17  1  0  0  0  0
 16 18  1  0  0  0  0
 16 19  1  0  0  0  0
 19 20  1  0  0  0  0
 19 21  1  0  0  0  0
 19 22  1  0  0  0  0
 22 23  1  0  0  0  0
 22 24  1  0  0  0  0
 22 25  1  0  0  0  0
M  END
> <VConfSearch Rank>
817

> <Conf_Id>
114

> <Delta U+W>
2.758

> <U+W>
-48.871

> <U>
11.422

> <W>
-60.293

> <W(PB)>
-62.719

> <W(SA)>
2.425

> <Valence>
10.135

> <Coulomb>
0.369

> <VdW>
0.918

> <VdW6>
-10.482

> <VdW12>
11.400

> <Bond>
0.245

> <Angle>
3.539

> <Pdih>
6.346

> <Idih>
0.006

> <Tether>
0.000

$$$$
VeraChem MOL file


 25 24  0  0  0  0  0  0  0  0999 V2000     
   22.8673   16.5423   24.4396 C   0  0  0  0  0  0  0  0  0  0  0  0
   23.5651   16.3773   23.4584 O   0  5  0  0  0  0  0  0  0  0  0  0
   23.2815   16.9850   25.4930 O   0  0  0  0  0  0  0  0  0  0  0  0
   21.3941   16.1537   24.3530 C   0  0  0  0  0  0  0  0  0  0  0  0
   21.1483   15.5933   25.2627 H   0  0  0  0  0  0  0  0  0  0  0  0
   21.2630   15.4641   23.5104 H   0  0  0  0  0  0  0  0  0  0  0  0
   20.4319   17.3618   24.2127 C   0  0  0  0  0  0  0  0  0  0  0  0
   19.3964   17.0037   24.2883 H   0  0  0  0  0  0  0  0  0  0  0  0
   20.5948   18.0447   25.0567 H   0  0  0  0  0  0  0  0  0  0  0  0
   20.6165   18.1124   22.8718 C   0  0  0  0  0  0  0  0  0  0  0  0
   20.5423   17.3903   22.0472 H   0  0  0  0  0  0  0  0  0  0  0  0
   21.6276   18.5391   22.8183 H   0  0  0  0  0  0  0  0  0  0  0  0
   19.5721   19.2303   22.6391 C   0  0  0  0  0  0  0  0  0  0  0  0
   19.6930   19.5982   21.6124 H   0  0  0  0  0  0  0  0  0  0  0  0
   18.5602   18.8077   22.7014 H   0  0  0  0  0  0  0  0  0  0  0  0
   19.7063   20.4146   23.6281 C   0  0  0  0  0  0  0  0  0  0  0  0
   20.7196   20.8345   23.5679 H   0  0  0  0  0  0  0  0  0  0  0  0
   19.5811   20.0490   24.6551 H   0  0  0  0  0  0  0  0  0  0  0  0
   18.6669   21.5350   23.3897 C   0  0  0  0  0  0  0  0  0  0  0  0
   17.6522   21.1163   23.4377 H   0  0  0  0  0  0  0  0  0  0  0  0
   18.7408   22.2628   24.2095 H   0  0  0  0  0  0  0  0  0  0  0  0
   18.8607   22.2781   22.0498 C   0  0  0  0  0  0  0  0  0  0  0  0
   18.1620   23.1213   21.9746 H   0  0  0  0  0  0  0  0  0  0  0  0
   19.8804   22.6759   21.9650 H   0  0  0  0  0  0  0  0  0  0  0  0
   18.6759   21.6177   21.1936 H   0  0  0  0  0  0  0  0  0  0  0  0
  1  2  1  0  0  0  0
  1  3  2  0  0  0  0
  1  4  1  0  0  0  0
  4  5  1  0  0  0  0
  4  6  1  0  0  0  0
  4  7  1  0  0  0  0
  7  8  1  0  0  0  0
  7  9  1  0  0  0  0
  7 10  1  0  0  0  0
 10 11  1  0  0  0  0
 10 12  1  0  0  0  0
 10 13  1  0  0  0  0
 13 14  1  0  0  0  0
 13 15  1  0  0  0  0
 13 16  1  0  0  0  0
 16 17  1  0  0  0  0
 16 18  1  0  0  0  0
 16 19  1  0  0  0  0
 19 20  1  0  0  0  0
 19 21  1  0  0  0  0
 19 22  1  0  0  0  0
 22 23  1  0  0  0  0
 22 24  1  0  0  0  0
 22 25  1  0  0  0  0
M  END
> <VConfSearch Rank>
818

> <Conf_Id>
87

> <Delta U+W>
1.453

> <U+W>
-50.176

> <U>
9.763

> <W>
-59.940

> <W(PB)>
-62.392

> <W(SA)>
2.452

> <Valence>
8.883

> <Coulomb>
-0.122

> <VdW>
1.003

> <VdW6>
-9.782

> <VdW12>
10.785

> <Bond>
0.212

> <Angle>
2.940

> <Pdih>
5.730

> <Idih>
0.001

> <Tether>
0.000

$$$$
VeraChem MOL file


 25 24  0  0  0  0  0  0  0  0999 V2000     
   17.9988   22.4746   23.5233 C   0  0  0  0  0  0  0  0  0  0  0  0
   18.4788   23.1136   22.6079 O   0  5  0  0  0  0  0  0  0  0  0  0
   16.8389   22.5672   23.8736 O   0  0  0  0  0  0  0  0  0  0  0  0
   18.8970   21.4884   24.2614 C   0  0  0  0  0  0  0  0  0  0  0  0
   18.5690   21.4457   25.3069 H   0  0  0  0  0  0  0  0  0  0  0  0
   19.9180   21.8885   24.2575 H   0  0  0  0  0  0  0  0  0  0  0  0
   18.8766   20.0720   23.6357 C   0  0  0  0  0  0  0  0  0  0  0  0
   17.8473   19.6878   23.6387 H   0  0  0  0  0  0  0  0  0  0  0  0
   19.1891   20.1433   22.5855 H   0  0  0  0  0  0  0  0  0  0  0  0
   19.8004   19.0946   24.3985 C   0  0  0  0  0  0  0  0  0  0  0  0
   19.5169   19.0895   25.4597 H   0  0  0  0  0  0  0  0  0  0  0  0
   20.8362   19.4569   24.3619 H   0  0  0  0  0  0  0  0  0  0  0  0
   19.7316   17.6404   23.8684 C   0  0  0  0  0  0  0  0  0  0  0  0
   20.3667   17.0032   24.4976 H   0  0  0  0  0  0  0  0  0  0  0  0
   18.7086   17.2632   24.0013 H   0  0  0  0  0  0  0  0  0  0  0  0
   20.1371   17.4570   22.3819 C   0  0  0  0  0  0  0  0  0  0  0  0
   19.4030   17.9613   21.7400 H   0  0  0  0  0  0  0  0  0  0  0  0
   20.0676   16.3902   22.1295 H   0  0  0  0  0  0  0  0  0  0  0  0
   21.5543   17.9639   22.0176 C   0  0  0  0  0  0  0  0  0  0  0  0
   21.7175   17.8053   20.9428 H   0  0  0  0  0  0  0  0  0  0  0  0
   21.6205   19.0482   22.1779 H   0  0  0  0  0  0  0  0  0  0  0  0
   22.6775   17.2511   22.8014 C   0  0  0  0  0  0  0  0  0  0  0  0
   22.6199   16.1630   22.6681 H   0  0  0  0  0  0  0  0  0  0  0  0
   23.6625   17.5839   22.4498 H   0  0  0  0  0  0  0  0  0  0  0  0
   22.6154   17.4706   23.8747 H   0  0  0  0  0  0  0  0  0  0  0  0
  1  2  1  0  0  0  0
  1  3  2  0  0  0  0
  1  4  1  0  0  0  0
  4  5  1  0  0  0  0
  4  6  1  0  0  0  0
  4  7  1  0  0  0  0
  7  8  1  0  0  0  0
  7  9  1  0  0  0  0
  7 10  1  0  0  0  0
 10 11  1  0  0  0  0
 10 12  1  0  0  0  0
 10 13  1  0  0  0  0
 13 14  1  0  0  0  0
 13 15  1  0  0  0  0
 13 16  1  0  0  0  0
 16 17  1  0  0  0  0
 16 18  1  0  0  0  0
 16 19  1  0  0  0  0
 19 20  1  0  0  0  0
 19 21  1  0  0  0  0
 19 22  1  0  0  0  0
 22 23  1  0  0  0  0
 22 24  1  0  0  0  0
 22 25  1  0  0  0  0
M  END
> <VConfSearch Rank>
819

> <Conf_Id>
29

> <Delta U+W>
0.850

> <U+W>
-50.780

> <U>
8.646

> <W>
-59.426

> <W(PB)>
-61.868

> <W(SA)>
2.442

> <Valence>
8.924

> <Coulomb>
-1.171

> <VdW>
0.894

> <VdW6>
-10.223

> <VdW12>
11.117

> <Bond>
0.231

> <Angle>
3.232

> <Pdih>
5.461

> <Idih>
0.001

> <Tether>
0.000

$$$$
VeraChem MOL file


 25 24  0  0  0  0  0  0  0  0999 V2000     
   18.1394   16.7469   25.8565 C   0  0  0  0  0  0  0  0  0  0  0  0
   18.8868   16.7610   26.8145 O   0  5  0  0  0  0  0  0  0  0  0  0
   17.4722   15.7827   25.5371 O   0  0  0  0  0  0  0  0  0  0  0  0
   18.0477   18.0023   24.9963 C   0  0  0  0  0  0  0  0  0  0  0  0
   18.2012   18.8724   25.6459 H   0  0  0  0  0  0  0  0  0  0  0  0
   17.0277   18.0694   24.5993 H   0  0  0  0  0  0  0  0  0  0  0  0
   19.0751   18.0136   23.8377 C   0  0  0  0  0  0  0  0  0  0  0  0
   20.0856   17.9255   24.2583 H   0  0  0  0  0  0  0  0  0  0  0  0
   18.9148   17.1328   23.2008 H   0  0  0  0  0  0  0  0  0  0  0  0
   18.9655   19.2997   22.9864 C   0  0  0  0  0  0  0  0  0  0  0  0
   19.1651   20.1785   23.6135 H   0  0  0  0  0  0  0  0  0  0  0  0
   17.9313   19.4068   22.6323 H   0  0  0  0  0  0  0  0  0  0  0  0
   19.9058   19.3061   21.7551 C   0  0  0  0  0  0  0  0  0  0  0  0
   19.6276   18.4750   21.0929 H   0  0  0  0  0  0  0  0  0  0  0  0
   19.7245   20.2206   21.1753 H   0  0  0  0  0  0  0  0  0  0  0  0
   21.4199   19.1968   22.0767 C   0  0  0  0  0  0  0  0  0  0  0  0
   21.9812   19.2315   21.1332 H   0  0  0  0  0  0  0  0  0  0  0  0
   21.6291   18.2097   22.5094 H   0  0  0  0  0  0  0  0  0  0  0  0
   21.9729   20.2882   23.0260 C   0  0  0  0  0  0  0  0  0  0  0  0
   21.4878   20.2155   24.0085 H   0  0  0  0  0  0  0  0  0  0  0  0
   23.0402   20.0939   23.1990 H   0  0  0  0  0  0  0  0  0  0  0  0
   21.8121   21.7195   22.4695 C   0  0  0  0  0  0  0  0  0  0  0  0
   20.7539   21.9958   22.3807 H   0  0  0  0  0  0  0  0  0  0  0  0
   22.2916   22.4474   23.1365 H   0  0  0  0  0  0  0  0  0  0  0  0
   22.2764   21.8102   21.4790 H   0  0  0  0  0  0  0  0  0  0  0  0
  1  2  1  0  0  0  0
  1  3  2  0  0  0  0
  1  4  1  0  0  0  0
  4  5  1  0  0  0  0
  4  6  1  0  0  0  0
  4  7  1  0  0  0  0
  7  8  1  0  0  0  0
  7  9  1  0  0  0  0
  7 10  1  0  0  0  0
 10 11  1  0  0  0  0
 10 12  1  0  0  0  0
 10 13  1  0  0  0  0
 13 14  1  0  0  0  0
 13 15  1  0  0  0  0
 13 16  1  0  0  0  0
 16 17  1  0  0  0  0
 16 18  1  0  0  0  0
 16 19  1  0  0  0  0
 19 20  1  0  0  0  0
 19 21  1  0  0  0  0
 19 22  1  0  0  0  0
 22 23  1  0  0  0  0
 22 24  1  0  0  0  0
 22 25  1  0  0  0  0
M  END
> <VConfSearch Rank>
820

> <Conf_Id>
30

> <Delta U+W>
0.843

> <U+W>
-50.787

> <U>
8.647

> <W>
-59.434

> <W(PB)>
-61.861

> <W(SA)>
2.428

> <Valence>
8.924

> <Coulomb>
-1.170

> <VdW>
0.894

> <VdW6>
-10.224

> <VdW12>
11.118

> <Bond>
0.231

> <Angle>
3.232

> <Pdih>
5.460

> <Idih>
0.000

> <Tether>
0.000

$$$$
VeraChem MOL file


 25 24  0  0  0  0  0  0  0  0999 V2000     
   19.8652   17.5727   18.7112 C   0  0  0  0  0  0  0  0  0  0  0  0
   21.0449   17.7777   18.4996 O   0  5  0  0  0  0  0  0  0  0  0  0
   19.1137   17.1027   17.8803 O   0  0  0  0  0  0  0  0  0  0  0  0
   19.2695   17.9126   20.0783 C   0  0  0  0  0  0  0  0  0  0  0  0
   18.8293   16.9927   20.4808 H   0  0  0  0  0  0  0  0  0  0  0  0
   18.4455   18.6159   19.9101 H   0  0  0  0  0  0  0  0  0  0  0  0
   20.2676   18.5098   21.1056 C   0  0  0  0  0  0  0  0  0  0  0  0
   21.0937   17.8029   21.2645 H   0  0  0  0  0  0  0  0  0  0  0  0
   20.7096   19.4275   20.6933 H   0  0  0  0  0  0  0  0  0  0  0  0
   19.5848   18.8227   22.4548 C   0  0  0  0  0  0  0  0  0  0  0  0
   19.1437   17.9039   22.8651 H   0  0  0  0  0  0  0  0  0  0  0  0
   18.7593   19.5296   22.2935 H   0  0  0  0  0  0  0  0  0  0  0  0
   20.5795   19.4167   23.4752 C   0  0  0  0  0  0  0  0  0  0  0  0
   21.4051   18.7100   23.6368 H   0  0  0  0  0  0  0  0  0  0  0  0
   21.0207   20.3356   23.0653 H   0  0  0  0  0  0  0  0  0  0  0  0
   19.8974   19.7298   24.8245 C   0  0  0  0  0  0  0  0  0  0  0  0
   19.4561   18.8110   25.2347 H   0  0  0  0  0  0  0  0  0  0  0  0
   19.0718   20.4365   24.6632 H   0  0  0  0  0  0  0  0  0  0  0  0
   20.8916   20.3235   25.8446 C   0  0  0  0  0  0  0  0  0  0  0  0
   21.7180   19.6183   26.0099 H   0  0  0  0  0  0  0  0  0  0  0  0
   21.3337   21.2438   25.4385 H   0  0  0  0  0  0  0  0  0  0  0  0
   20.2067   20.6347   27.1905 C   0  0  0  0  0  0  0  0  0  0  0  0
   19.7825   19.7249   27.6351 H   0  0  0  0  0  0  0  0  0  0  0  0
   20.9276   21.0557   27.9033 H   0  0  0  0  0  0  0  0  0  0  0  0
   19.3953   21.3626   27.0593 H   0  0  0  0  0  0  0  0  0  0  0  0
  1  2  1  0  0  0  0
  1  3  2  0  0  0  0
  1  4  1  0  0  0  0
  4  5  1  0  0  0  0
  4  6  1  0  0  0  0
  4  7  1  0  0  0  0
  7  8  1  0  0  0  0
  7  9  1  0  0  0  0
  7 10  1  0  0  0  0
 10 11  1  0  0  0  0
 10 12  1  0  0  0  0
 10 13  1  0  0  0  0
 13 14  1  0  0  0  0
 13 15  1  0  0  0  0
 13 16  1  0  0  0  0
 16 17  1  0  0  0  0
 16 18  1  0  0  0  0
 16 19  1  0  0  0  0
 19 20  1  0  0  0  0
 19 21  1  0  0  0  0
 19 22  1  0  0  0  0
 22 23  1  0  0  0  0
 22 24  1  0  0  0  0
 22 25  1  0  0  0  0
M  END
> <VConfSearch Rank>
821

> <Conf_Id>
0

> <Delta U+W>
0.000

> <U+W>
-51.629

> <U>
6.586

> <W>
-58.216

> <W(PB)>
-60.757

> <W(SA)>
2.541

> <Valence>
8.027

> <Coulomb>
-2.892

> <VdW>
1.451

> <VdW6>
-7.931

> <VdW12>
9.383

> <Bond>
0.149

> <Angle>
2.726

> <Pdih>
5.152

> <Idih>
0.000

> <Tether>
0.000

$$$$
VeraChem MOL file


 25 24  0  0  0  0  0  0  0  0999 V2000     
   17.1751   19.0035   19.5138 C   0  0  0  0  0  0  0  0  0  0  0  0
   17.4139   18.1259   18.7079 O   0  5  0  0  0  0  0  0  0  0  0  0
   16.0551   19.4056   19.7596 O   0  0  0  0  0  0  0  0  0  0  0  0
   18.3438   19.6183   20.2756 C   0  0  0  0  0  0  0  0  0  0  0  0
   18.1006   20.6672   20.4837 H   0  0  0  0  0  0  0  0  0  0  0  0
   19.2203   19.6132   19.6167 H   0  0  0  0  0  0  0  0  0  0  0  0
   18.6616   18.8713   21.5943 C   0  0  0  0  0  0  0  0  0  0  0  0
   17.7702   18.8740   22.2369 H   0  0  0  0  0  0  0  0  0  0  0  0
   18.8898   17.8200   21.3698 H   0  0  0  0  0  0  0  0  0  0  0  0
   19.8478   19.5123   22.3467 C   0  0  0  0  0  0  0  0  0  0  0  0
   19.6171   20.5633   22.5685 H   0  0  0  0  0  0  0  0  0  0  0  0
   20.7369   19.5092   21.7011 H   0  0  0  0  0  0  0  0  0  0  0  0
   20.1625   18.7653   23.6606 C   0  0  0  0  0  0  0  0  0  0  0  0
   19.2736   18.7683   24.3063 H   0  0  0  0  0  0  0  0  0  0  0  0
   20.3933   17.7143   23.4390 H   0  0  0  0  0  0  0  0  0  0  0  0
   21.3486   19.4057   24.4135 C   0  0  0  0  0  0  0  0  0  0  0  0
   21.1181   20.4568   24.6354 H   0  0  0  0  0  0  0  0  0  0  0  0
   22.2377   19.4029   23.7681 H   0  0  0  0  0  0  0  0  0  0  0  0
   21.6633   18.6592   25.7269 C   0  0  0  0  0  0  0  0  0  0  0  0
   20.7767   18.6616   26.3760 H   0  0  0  0  0  0  0  0  0  0  0  0
   21.8963   17.6077   25.5087 H   0  0  0  0  0  0  0  0  0  0  0  0
   22.8483   19.3017   26.4757 C   0  0  0  0  0  0  0  0  0  0  0  0
   23.0581   18.7587   27.4064 H   0  0  0  0  0  0  0  0  0  0  0  0
   23.7576   19.2841   25.8608 H   0  0  0  0  0  0  0  0  0  0  0  0
   22.6296   20.3460   26.7346 H   0  0  0  0  0  0  0  0  0  0  0  0
  1  2  1  0  0  0  0
  1  3  2  0  0  0  0
  1  4  1  0  0  0  0
  4  5  1  0  0  0  0
  4  6  1  0  0  0  0
  4  7  1  0  0  0  0
  7  8  1  0  0  0  0
  7  9  1  0  0  0  0
  7 10  1  0  0  0  0
 10 11  1  0  0  0  0
 10 12  1  0  0  0  0
 10 13  1  0  0  0  0
 13 14  1  0  0  0  0
 13 15  1  0  0  0  0
 13 16  1  0  0  0  0
 16 17  1  0  0  0  0
 16 18  1  0  0  0  0
 16 19  1  0  0  0  0
 19 20  1  0  0  0  0
 19 21  1  0  0  0  0
 19 22  1  0  0  0  0
 22 23  1  0  0  0  0
 22 24  1  0  0  0  0
 22 25  1  0  0  0  0
M  END
> <VConfSearch Rank>
822

> <Conf_Id>
27

> <Delta U+W>
-1.297

> <U+W>
-52.926

> <U>
5.617

> <W>
-58.543

> <W(PB)>
-61.065

> <W(SA)>
2.522

> <Valence>
7.531

> <Coulomb>
-2.818

> <VdW>
0.904

> <VdW6>
-7.640

> <VdW12>
8.544

> <Bond>
0.115

> <Angle>
2.271

> <Pdih>
5.144

> <Idih>
0.001

> <Tether>
0.000

$$$$
VeraChem MOL file


 25 24  0  0  0  0  0  0  0  0999 V2000     
   22.4824   21.8538   21.4702 C   0  0  0  0  0  0  0  0  0  0  0  0
   22.0244   22.2166   20.4045 O   0  5  0  0  0  0  0  0  0  0  0  0
   22.5793   22.5771   22.4420 O   0  0  0  0  0  0  0  0  0  0  0  0
   22.9782   20.4152   21.5870 C   0  0  0  0  0  0  0  0  0  0  0  0
   23.6529   20.3464   22.4488 H   0  0  0  0  0  0  0  0  0  0  0  0
   23.5794   20.2022   20.6953 H   0  0  0  0  0  0  0  0  0  0  0  0
   21.8433   19.3655   21.7098 C   0  0  0  0  0  0  0  0  0  0  0  0
   21.1609   19.4655   20.8542 H   0  0  0  0  0  0  0  0  0  0  0  0
   22.2803   18.3595   21.6497 H   0  0  0  0  0  0  0  0  0  0  0  0
   21.0509   19.4987   23.0297 C   0  0  0  0  0  0  0  0  0  0  0  0
   20.5958   20.4971   23.0891 H   0  0  0  0  0  0  0  0  0  0  0  0
   21.7392   19.4116   23.8815 H   0  0  0  0  0  0  0  0  0  0  0  0
   19.9478   18.4247   23.1452 C   0  0  0  0  0  0  0  0  0  0  0  0
   19.2599   18.5126   22.2931 H   0  0  0  0  0  0  0  0  0  0  0  0
   20.4009   17.4254   23.0891 H   0  0  0  0  0  0  0  0  0  0  0  0
   19.1550   18.5577   24.4634 C   0  0  0  0  0  0  0  0  0  0  0  0
   18.7019   19.5571   24.5198 H   0  0  0  0  0  0  0  0  0  0  0  0
   19.8428   18.4702   25.3158 H   0  0  0  0  0  0  0  0  0  0  0  0
   18.0520   17.4847   24.5792 C   0  0  0  0  0  0  0  0  0  0  0  0
   17.3611   17.5705   23.7291 H   0  0  0  0  0  0  0  0  0  0  0  0
   18.5019   16.4836   24.5251 H   0  0  0  0  0  0  0  0  0  0  0  0
   17.2627   17.6212   25.8967 C   0  0  0  0  0  0  0  0  0  0  0  0
   16.7755   18.6029   25.9629 H   0  0  0  0  0  0  0  0  0  0  0  0
   16.4832   16.8510   25.9623 H   0  0  0  0  0  0  0  0  0  0  0  0
   17.9250   17.5079   26.7650 H   0  0  0  0  0  0  0  0  0  0  0  0
  1  2  1  0  0  0  0
  1  3  2  0  0  0  0
  1  4  1  0  0  0  0
  4  5  1  0  0  0  0
  4  6  1  0  0  0  0
  4  7  1  0  0  0  0
  7  8  1  0  0  0  0
  7  9  1  0  0  0  0
  7 10  1  0  0  0  0
 10 11  1  0  0  0  0
 10 12  1  0  0  0  0
 10 13  1  0  0  0  0
 13 14  1  0  0  0  0
 13 15  1  0  0  0  0
 13 16  1  0  0  0  0
 16 17  1  0  0  0  0
 16 18  1  0  0  0  0
 16 19  1  0  0  0  0
 19 20  1  0  0  0  0
 19 21  1  0  0  0  0
 19 22  1  0  0  0  0
 22 23  1  0  0  0  0
 22 24  1  0  0  0  0
 22 25  1  0  0  0  0
M  END
> <VConfSearch Rank>
823

> <Conf_Id>
37

> <Delta U+W>
-0.230

> <U+W>
-51.860

> <U>
7.816

> <W>
-59.675

> <W(PB)>
-62.180

> <W(SA)>
2.505

> <Valence>
7.785

> <Coulomb>
-0.713

> <VdW>
0.744

> <VdW6>
-8.514

> <VdW12>
9.259

> <Bond>
0.136

> <Angle>
2.433

> <Pdih>
5.216

> <Idih>
0.000

> <Tether>
0.000

$$$$
VeraChem MOL file


 25 24  0  0  0  0  0  0  0  0999 V2000     
   23.9084   20.2658   23.3367 C   0  0  0  0  0  0  0  0  0  0  0  0
   24.4087   20.2677   22.2290 O   0  5  0  0  0  0  0  0  0  0  0  0
   24.1994   19.4669   24.2050 O   0  0  0  0  0  0  0  0  0  0  0  0
   22.8697   21.3367   23.6578 C   0  0  0  0  0  0  0  0  0  0  0  0
   23.2642   22.2944   23.2983 H   0  0  0  0  0  0  0  0  0  0  0  0
   22.7782   21.4200   24.7476 H   0  0  0  0  0  0  0  0  0  0  0  0
   21.4794   21.0773   23.0216 C   0  0  0  0  0  0  0  0  0  0  0  0
   20.8420   21.9563   23.1875 H   0  0  0  0  0  0  0  0  0  0  0  0
   21.5915   20.9687   21.9338 H   0  0  0  0  0  0  0  0  0  0  0  0
   20.7837   19.8263   23.6036 C   0  0  0  0  0  0  0  0  0  0  0  0
   20.6860   19.9339   24.6926 H   0  0  0  0  0  0  0  0  0  0  0  0
   21.4076   18.9394   23.4262 H   0  0  0  0  0  0  0  0  0  0  0  0
   19.3890   19.6054   22.9794 C   0  0  0  0  0  0  0  0  0  0  0  0
   18.7623   20.4899   23.1582 H   0  0  0  0  0  0  0  0  0  0  0  0
   19.4876   19.4978   21.8905 H   0  0  0  0  0  0  0  0  0  0  0  0
   18.6934   18.3551   23.5600 C   0  0  0  0  0  0  0  0  0  0  0  0
   18.5949   18.4624   24.6490 H   0  0  0  0  0  0  0  0  0  0  0  0
   19.3201   17.4705   23.3814 H   0  0  0  0  0  0  0  0  0  0  0  0
   17.2996   18.1335   22.9359 C   0  0  0  0  0  0  0  0  0  0  0  0
   16.6693   19.0158   23.1142 H   0  0  0  0  0  0  0  0  0  0  0  0
   17.3946   18.0239   21.8467 H   0  0  0  0  0  0  0  0  0  0  0  0
   16.6085   16.8842   23.5183 C   0  0  0  0  0  0  0  0  0  0  0  0
   16.4721   16.9806   24.6034 H   0  0  0  0  0  0  0  0  0  0  0  0
   15.6195   16.7418   23.0637 H   0  0  0  0  0  0  0  0  0  0  0  0
   17.2028   15.9812   23.3264 H   0  0  0  0  0  0  0  0  0  0  0  0
  1  2  1  0  0  0  0
  1  3  2  0  0  0  0
  1  4  1  0  0  0  0
  4  5  1  0  0  0  0
  4  6  1  0  0  0  0
  4  7  1  0  0  0  0
  7  8  1  0  0  0  0
  7  9  1  0  0  0  0
  7 10  1  0  0  0  0
 10 11  1  0  0  0  0
 10 12  1  0  0  0  0
 10 13  1  0  0  0  0
 13 14  1  0  0  0  0
 13 15  1  0  0  0  0
 13 16  1  0  0  0  0
 16 17  1  0  0  0  0
 16 18  1  0  0  0  0
 16 19  1  0  0  0  0
 19 20  1  0  0  0  0
 19 21  1  0  0  0  0
 19 22  1  0  0  0  0
 22 23  1  0  0  0  0
 22 24  1  0  0  0  0
 22 25  1  0  0  0  0
M  END
> <VConfSearch Rank>
824

> <Conf_Id>
54

> <Delta U+W>
-0.224

> <U+W>
-51.854

> <U>
7.816

> <W>
-59.670

> <W(PB)>
-62.157

> <W(SA)>
2.487

> <Valence>
7.785

> <Coulomb>
-0.713

> <VdW>
0.744

> <VdW6>
-8.515

> <VdW12>
9.259

> <Bond>
0.136

> <Angle>
2.433

> <Pdih>
5.215

> <Idih>
0.000

> <Tether>
0.000

$$$$
VeraChem MOL file


 25 24  0  0  0  0  0  0  0  0999 V2000     
   18.5479   19.1264   27.0475 C   0  0  0  0  0  0  0  0  0  0  0  0
   18.3185   17.9577   27.2894 O   0  5  0  0  0  0  0  0  0  0  0  0
   19.1567   19.8620   27.7994 O   0  0  0  0  0  0  0  0  0  0  0  0
   18.0277   19.7093   25.7365 C   0  0  0  0  0  0  0  0  0  0  0  0
   17.5560   20.6709   25.9708 H   0  0  0  0  0  0  0  0  0  0  0  0
   17.2376   19.0539   25.3504 H   0  0  0  0  0  0  0  0  0  0  0  0
   19.1233   19.9193   24.6589 C   0  0  0  0  0  0  0  0  0  0  0  0
   18.6851   20.4805   23.8241 H   0  0  0  0  0  0  0  0  0  0  0  0
   19.9268   20.5433   25.0741 H   0  0  0  0  0  0  0  0  0  0  0  0
   19.7101   18.5840   24.1408 C   0  0  0  0  0  0  0  0  0  0  0  0
   18.9137   17.9804   23.6847 H   0  0  0  0  0  0  0  0  0  0  0  0
   20.0878   18.0030   24.9933 H   0  0  0  0  0  0  0  0  0  0  0  0
   20.8668   18.7665   23.1289 C   0  0  0  0  0  0  0  0  0  0  0  0
   21.6545   19.3859   23.5788 H   0  0  0  0  0  0  0  0  0  0  0  0
   21.3133   17.7811   22.9448 H   0  0  0  0  0  0  0  0  0  0  0  0
   20.4187   19.3862   21.7821 C   0  0  0  0  0  0  0  0  0  0  0  0
   19.9785   20.3749   21.9627 H   0  0  0  0  0  0  0  0  0  0  0  0
   19.6274   18.7691   21.3352 H   0  0  0  0  0  0  0  0  0  0  0  0
   21.5754   19.5568   20.7694 C   0  0  0  0  0  0  0  0  0  0  0  0
   21.2041   20.1237   19.9046 H   0  0  0  0  0  0  0  0  0  0  0  0
   22.3746   20.1633   21.2174 H   0  0  0  0  0  0  0  0  0  0  0  0
   22.1570   18.2165   20.2692 C   0  0  0  0  0  0  0  0  0  0  0  0
   22.6508   17.6654   21.0791 H   0  0  0  0  0  0  0  0  0  0  0  0
   21.3689   17.5787   19.8483 H   0  0  0  0  0  0  0  0  0  0  0  0
   22.9043   18.3920   19.4845 H   0  0  0  0  0  0  0  0  0  0  0  0
  1  2  1  0  0  0  0
  1  3  2  0  0  0  0
  1  4  1  0  0  0  0
  4  5  1  0  0  0  0
  4  6  1  0  0  0  0
  4  7  1  0  0  0  0
  7  8  1  0  0  0  0
  7  9  1  0  0  0  0
  7 10  1  0  0  0  0
 10 11  1  0  0  0  0
 10 12  1  0  0  0  0
 10 13  1  0  0  0  0
 13 14  1  0  0  0  0
 13 15  1  0  0  0  0
 13 16  1  0  0  0  0
 16 17  1  0  0  0  0
 16 18  1  0  0  0  0
 16 19  1  0  0  0  0
 19 20  1  0  0  0  0
 19 21  1  0  0  0  0
 19 22  1  0  0  0  0
 22 23  1  0  0  0  0
 22 24  1  0  0  0  0
 22 25  1  0  0  0  0
M  END
> <VConfSearch Rank>
825

> <Conf_Id>
101

> <Delta U+W>
1.534

> <U+W>
-50.095

> <U>
9.416

> <W>
-59.512

> <W(PB)>
-61.988

> <W(SA)>
2.476

> <Valence>
8.939

> <Coulomb>
-0.615

> <VdW>
1.092

> <VdW6>
-9.710

> <VdW12>
10.802

> <Bond>
0.216

> <Angle>
2.979

> <Pdih>
5.743

> <Idih>
0.000

> <Tether>
0.000

$$$$
VeraChem MOL file


 25 24  0  0  0  0  0  0  0  0999 V2000     
   19.8559   19.7243   19.1201 C   0  0  0  0  0  0  0  0  0  0  0  0
   19.3582   18.7190   18.6527 O   0  5  0  0  0  0  0  0  0  0  0  0
   19.8754   20.7951   18.5459 O   0  0  0  0  0  0  0  0  0  0  0  0
   20.4698   19.6433   20.5132 C   0  0  0  0  0  0  0  0  0  0  0  0
   21.3034   20.3541   20.5591 H   0  0  0  0  0  0  0  0  0  0  0  0
   20.8910   18.6390   20.6328 H   0  0  0  0  0  0  0  0  0  0  0  0
   19.4455   19.9462   21.6378 C   0  0  0  0  0  0  0  0  0  0  0  0
   18.9735   20.9166   21.4304 H   0  0  0  0  0  0  0  0  0  0  0  0
   18.6405   19.1988   21.6132 H   0  0  0  0  0  0  0  0  0  0  0  0
   20.0718   19.9940   23.0521 C   0  0  0  0  0  0  0  0  0  0  0  0
   19.3044   20.3523   23.7500 H   0  0  0  0  0  0  0  0  0  0  0  0
   20.8826   20.7347   23.0716 H   0  0  0  0  0  0  0  0  0  0  0  0
   20.6037   18.6227   23.5364 C   0  0  0  0  0  0  0  0  0  0  0  0
   19.7932   17.8826   23.5176 H   0  0  0  0  0  0  0  0  0  0  0  0
   21.3651   18.2581   22.8356 H   0  0  0  0  0  0  0  0  0  0  0  0
   21.2439   18.6708   24.9471 C   0  0  0  0  0  0  0  0  0  0  0  0
   22.1063   19.3508   24.9229 H   0  0  0  0  0  0  0  0  0  0  0  0
   21.6490   17.6771   25.1820 H   0  0  0  0  0  0  0  0  0  0  0  0
   20.2982   19.1058   26.0942 C   0  0  0  0  0  0  0  0  0  0  0  0
   20.8665   19.1038   27.0345 H   0  0  0  0  0  0  0  0  0  0  0  0
   19.9689   20.1421   25.9429 H   0  0  0  0  0  0  0  0  0  0  0  0
   19.0683   18.1865   26.2562 C   0  0  0  0  0  0  0  0  0  0  0  0
   19.3740   17.1401   26.3848 H   0  0  0  0  0  0  0  0  0  0  0  0
   18.4830   18.4793   27.1373 H   0  0  0  0  0  0  0  0  0  0  0  0
   18.4072   18.2481   25.3826 H   0  0  0  0  0  0  0  0  0  0  0  0
  1  2  1  0  0  0  0
  1  3  2  0  0  0  0
  1  4  1  0  0  0  0
  4  5  1  0  0  0  0
  4  6  1  0  0  0  0
  4  7  1  0  0  0  0
  7  8  1  0  0  0  0
  7  9  1  0  0  0  0
  7 10  1  0  0  0  0
 10 11  1  0  0  0  0
 10 12  1  0  0  0  0
 10 13  1  0  0  0  0
 13 14  1  0  0  0  0
 13 15  1  0  0  0  0
 13 16  1  0  0  0  0
 16 17  1  0  0  0  0
 16 18  1  0  0  0  0
 16 19  1  0  0  0  0
 19 20  1  0  0  0  0
 19 21  1  0  0  0  0
 19 22  1  0  0  0  0
 22 23  1  0  0  0  0
 22 24  1  0  0  0  0
 22 25  1  0  0  0  0
M  END
> <VConfSearch Rank>
826

> <Conf_Id>
75

> <Delta U+W>
1.014

> <U+W>
-50.615

> <U>
8.474

> <W>
-59.089

> <W(PB)>
-61.530

> <W(SA)>
2.441

> <Valence>
9.080

> <Coulomb>
-1.772

> <VdW>
1.165

> <VdW6>
-9.830

> <VdW12>
10.996

> <Bond>
0.240

> <Angle>
3.225

> <Pdih>
5.615

> <Idih>
0.001

> <Tether>
0.000

$$$$
VeraChem MOL file


 25 24  0  0  0  0  0  0  0  0999 V2000     
   22.1830   16.9662   26.2291 C   0  0  0  0  0  0  0  0  0  0  0  0
   21.4447   16.0966   26.6478 O   0  5  0  0  0  0  0  0  0  0  0  0
   23.3955   16.8890   26.2524 O   0  0  0  0  0  0  0  0  0  0  0  0
   21.5528   18.2143   25.6213 C   0  0  0  0  0  0  0  0  0  0  0  0
   22.2169   19.0635   25.8221 H   0  0  0  0  0  0  0  0  0  0  0  0
   20.6095   18.4092   26.1454 H   0  0  0  0  0  0  0  0  0  0  0  0
   21.3009   18.0806   24.0993 C   0  0  0  0  0  0  0  0  0  0  0  0
   22.2525   17.8728   23.5906 H   0  0  0  0  0  0  0  0  0  0  0  0
   20.6452   17.2183   23.9145 H   0  0  0  0  0  0  0  0  0  0  0  0
   20.6613   19.3556   23.5082 C   0  0  0  0  0  0  0  0  0  0  0  0
   21.3197   20.2148   23.6956 H   0  0  0  0  0  0  0  0  0  0  0  0
   19.7185   19.5627   24.0283 H   0  0  0  0  0  0  0  0  0  0  0  0
   20.4173   19.2194   21.9868 C   0  0  0  0  0  0  0  0  0  0  0  0
   21.3862   19.0447   21.4994 H   0  0  0  0  0  0  0  0  0  0  0  0
   19.8042   18.3326   21.7756 H   0  0  0  0  0  0  0  0  0  0  0  0
   19.7687   20.4767   21.3536 C   0  0  0  0  0  0  0  0  0  0  0  0
   20.1919   20.6096   20.3486 H   0  0  0  0  0  0  0  0  0  0  0  0
   20.0511   21.3763   21.9174 H   0  0  0  0  0  0  0  0  0  0  0  0
   18.2287   20.4042   21.2042 C   0  0  0  0  0  0  0  0  0  0  0  0
   17.8873   21.3042   20.6744 H   0  0  0  0  0  0  0  0  0  0  0  0
   17.9607   19.5516   20.5652 H   0  0  0  0  0  0  0  0  0  0  0  0
   17.4677   20.3000   22.5422 C   0  0  0  0  0  0  0  0  0  0  0  0
   17.7653   21.1033   23.2286 H   0  0  0  0  0  0  0  0  0  0  0  0
   16.3857   20.3802   22.3756 H   0  0  0  0  0  0  0  0  0  0  0  0
   17.6560   19.3356   23.0302 H   0  0  0  0  0  0  0  0  0  0  0  0
  1  2  1  0  0  0  0
  1  3  2  0  0  0  0
  1  4  1  0  0  0  0
  4  5  1  0  0  0  0
  4  6  1  0  0  0  0
  4  7  1  0  0  0  0
  7  8  1  0  0  0  0
  7  9  1  0  0  0  0
  7 10  1  0  0  0  0
 10 11  1  0  0  0  0
 10 12  1  0  0  0  0
 10 13  1  0  0  0  0
 13 14  1  0  0  0  0
 13 15  1  0  0  0  0
 13 16  1  0  0  0  0
 16 17  1  0  0  0  0
 16 18  1  0  0  0  0
 16 19  1  0  0  0  0
 19 20  1  0  0  0  0
 19 21  1  0  0  0  0
 19 22  1  0  0  0  0
 22 23  1  0  0  0  0
 22 24  1  0  0  0  0
 22 25  1  0  0  0  0
M  END
> <VConfSearch Rank>
827

> <Conf_Id>
125

> <Delta U+W>
2.314

> <U+W>
-49.315

> <U>
9.740

> <W>
-59.054

> <W(PB)>
-61.488

> <W(SA)>
2.433

> <Valence>
10.506

> <Coulomb>
-1.761

> <VdW>
0.994

> <VdW6>
-9.209

> <VdW12>
10.203

> <Bond>
0.193

> <Angle>
2.979

> <Pdih>
7.334

> <Idih>
0.001

> <Tether>
0.000

$$$$
VeraChem MOL file


 25 24  0  0  0  0  0  0  0  0999 V2000     
   16.0671   19.1303   23.9428 C   0  0  0  0  0  0  0  0  0  0  0  0
   15.5981   19.8189   23.0582 O   0  5  0  0  0  0  0  0  0  0  0  0
   15.4174   18.6953   24.8732 O   0  0  0  0  0  0  0  0  0  0  0  0
   17.5577   18.8146   23.8961 C   0  0  0  0  0  0  0  0  0  0  0  0
   17.8491   18.7394   22.8425 H   0  0  0  0  0  0  0  0  0  0  0  0
   17.7106   17.8272   24.3478 H   0  0  0  0  0  0  0  0  0  0  0  0
   18.4188   19.8770   24.6276 C   0  0  0  0  0  0  0  0  0  0  0  0
   18.2933   20.8521   24.1370 H   0  0  0  0  0  0  0  0  0  0  0  0
   18.0387   19.9942   25.6520 H   0  0  0  0  0  0  0  0  0  0  0  0
   19.9217   19.5151   24.6953 C   0  0  0  0  0  0  0  0  0  0  0  0
   20.0444   18.5444   25.1949 H   0  0  0  0  0  0  0  0  0  0  0  0
   20.4299   20.2564   25.3271 H   0  0  0  0  0  0  0  0  0  0  0  0
   20.6084   19.4783   23.3103 C   0  0  0  0  0  0  0  0  0  0  0  0
   20.1523   18.6936   22.6948 H   0  0  0  0  0  0  0  0  0  0  0  0
   20.4418   20.4327   22.7926 H   0  0  0  0  0  0  0  0  0  0  0  0
   22.1275   19.2171   23.4347 C   0  0  0  0  0  0  0  0  0  0  0  0
   22.2973   18.2414   23.9101 H   0  0  0  0  0  0  0  0  0  0  0  0
   22.5664   19.9698   24.1039 H   0  0  0  0  0  0  0  0  0  0  0  0
   22.8738   19.2700   22.0812 C   0  0  0  0  0  0  0  0  0  0  0  0
   22.7105   20.2468   21.6054 H   0  0  0  0  0  0  0  0  0  0  0  0
   23.9533   19.1941   22.2710 H   0  0  0  0  0  0  0  0  0  0  0  0
   22.4599   18.1433   21.1097 C   0  0  0  0  0  0  0  0  0  0  0  0
   21.4132   18.2473   20.7978 H   0  0  0  0  0  0  0  0  0  0  0  0
   23.0801   18.1701   20.2044 H   0  0  0  0  0  0  0  0  0  0  0  0
   22.5846   17.1571   21.5756 H   0  0  0  0  0  0  0  0  0  0  0  0
  1  2  1  0  0  0  0
  1  3  2  0  0  0  0
  1  4  1  0  0  0  0
  4  5  1  0  0  0  0
  4  6  1  0  0  0  0
  4  7  1  0  0  0  0
  7  8  1  0  0  0  0
  7  9  1  0  0  0  0
  7 10  1  0  0  0  0
 10 11  1  0  0  0  0
 10 12  1  0  0  0  0
 10 13  1  0  0  0  0
 13 14  1  0  0  0  0
 13 15  1  0  0  0  0
 13 16  1  0  0  0  0
 16 17  1  0  0  0  0
 16 18  1  0  0  0  0
 16 19  1  0  0  0  0
 19 20  1  0  0  0  0
 19 21  1  0  0  0  0
 19 22  1  0  0  0  0
 22 23  1  0  0  0  0
 22 24  1  0  0  0  0
 22 25  1  0  0  0  0
M  END
> <VConfSearch Rank>
828

> <Conf_Id>
4

> <Delta U+W>
0.189

> <U+W>
-51.441

> <U>
7.701

> <W>
-59.141

> <W(PB)>
-61.609

> <W(SA)>
2.467

> <Valence>
8.550

> <Coulomb>
-1.988

> <VdW>
1.139

> <VdW6>
-8.988

> <VdW12>
10.127

> <Bond>
0.191

> <Angle>
2.738

> <Pdih>
5.621

> <Idih>
0.001

> <Tether>
0.000

$$$$
VeraChem MOL file


 25 24  0  0  0  0  0  0  0  0999 V2000     
   17.9253   16.7340   20.8240 C   0  0  0  0  0  0  0  0  0  0  0  0
   17.4775   17.4533   19.9530 O   0  5  0  0  0  0  0  0  0  0  0  0
   17.8446   15.5216   20.8035 O   0  0  0  0  0  0  0  0  0  0  0  0
   18.6492   17.3872   21.9959 C   0  0  0  0  0  0  0  0  0  0  0  0
   18.4912   16.7633   22.8837 H   0  0  0  0  0  0  0  0  0  0  0  0
   18.1688   18.3534   22.1870 H   0  0  0  0  0  0  0  0  0  0  0  0
   20.1667   17.5726   21.7351 C   0  0  0  0  0  0  0  0  0  0  0  0
   20.5974   16.6014   21.4545 H   0  0  0  0  0  0  0  0  0  0  0  0
   20.3122   18.2371   20.8722 H   0  0  0  0  0  0  0  0  0  0  0  0
   20.9412   18.1238   22.9560 C   0  0  0  0  0  0  0  0  0  0  0  0
   22.0145   18.1105   22.7219 H   0  0  0  0  0  0  0  0  0  0  0  0
   20.8019   17.4521   23.8141 H   0  0  0  0  0  0  0  0  0  0  0  0
   20.5289   19.5616   23.3480 C   0  0  0  0  0  0  0  0  0  0  0  0
   20.6219   20.2211   22.4745 H   0  0  0  0  0  0  0  0  0  0  0  0
   19.4745   19.5722   23.6493 H   0  0  0  0  0  0  0  0  0  0  0  0
   21.3998   20.1089   24.5027 C   0  0  0  0  0  0  0  0  0  0  0  0
   22.4584   20.0360   24.2182 H   0  0  0  0  0  0  0  0  0  0  0  0
   21.2728   19.4777   25.3929 H   0  0  0  0  0  0  0  0  0  0  0  0
   21.0894   21.5804   24.8634 C   0  0  0  0  0  0  0  0  0  0  0  0
   21.8257   21.9246   25.6028 H   0  0  0  0  0  0  0  0  0  0  0  0
   21.2206   22.2154   23.9763 H   0  0  0  0  0  0  0  0  0  0  0  0
   19.6722   21.7828   25.4422 C   0  0  0  0  0  0  0  0  0  0  0  0
   19.5066   21.1340   26.3121 H   0  0  0  0  0  0  0  0  0  0  0  0
   19.5346   22.8228   25.7653 H   0  0  0  0  0  0  0  0  0  0  0  0
   18.8990   21.5625   24.6957 H   0  0  0  0  0  0  0  0  0  0  0  0
  1  2  1  0  0  0  0
  1  3  2  0  0  0  0
  1  4  1  0  0  0  0
  4  5  1  0  0  0  0
  4  6  1  0  0  0  0
  4  7  1  0  0  0  0
  7  8  1  0  0  0  0
  7  9  1  0  0  0  0
  7 10  1  0  0  0  0
 10 11  1  0  0  0  0
 10 12  1  0  0  0  0
 10 13  1  0  0  0  0
 13 14  1  0  0  0  0
 13 15  1  0  0  0  0
 13 16  1  0  0  0  0
 16 17  1  0  0  0  0
 16 18  1  0  0  0  0
 16 19  1  0  0  0  0
 19 20  1  0  0  0  0
 19 21  1  0  0  0  0
 19 22  1  0  0  0  0
 22 23  1  0  0  0  0
 22 24  1  0  0  0  0
 22 25  1  0  0  0  0
M  END
> <VConfSearch Rank>
829

> <Conf_Id>
17

> <Delta U+W>
0.219

> <U+W>
-51.411

> <U>
7.701

> <W>
-59.111

> <W(PB)>
-61.599

> <W(SA)>
2.488

> <Valence>
8.550

> <Coulomb>
-1.988

> <VdW>
1.139

> <VdW6>
-8.988

> <VdW12>
10.127

> <Bond>
0.191

> <Angle>
2.738

> <Pdih>
5.621

> <Idih>
0.001

> <Tether>
0.000

$$$$
VeraChem MOL file


 25 24  0  0  0  0  0  0  0  0999 V2000     
   22.1471   22.2514   24.4597 C   0  0  0  0  0  0  0  0  0  0  0  0
   23.1537   22.3009   23.7804 O   0  5  0  0  0  0  0  0  0  0  0  0
   22.1531   22.0433   25.6571 O   0  0  0  0  0  0  0  0  0  0  0  0
   20.8019   22.4823   23.7771 C   0  0  0  0  0  0  0  0  0  0  0  0
   20.9766   22.9969   22.8245 H   0  0  0  0  0  0  0  0  0  0  0  0
   20.2270   23.1700   24.4084 H   0  0  0  0  0  0  0  0  0  0  0  0
   19.9837   21.1856   23.5445 C   0  0  0  0  0  0  0  0  0  0  0  0
   19.8387   20.6794   24.5080 H   0  0  0  0  0  0  0  0  0  0  0  0
   18.9858   21.4551   23.1734 H   0  0  0  0  0  0  0  0  0  0  0  0
   20.6635   20.2299   22.5349 C   0  0  0  0  0  0  0  0  0  0  0  0
   21.6336   19.8981   22.9301 H   0  0  0  0  0  0  0  0  0  0  0  0
   20.8792   20.7823   21.6101 H   0  0  0  0  0  0  0  0  0  0  0  0
   19.8022   18.9947   22.1799 C   0  0  0  0  0  0  0  0  0  0  0  0
   18.8350   19.3239   21.7762 H   0  0  0  0  0  0  0  0  0  0  0  0
   20.3032   18.4417   21.3736 H   0  0  0  0  0  0  0  0  0  0  0  0
   19.5713   18.0408   23.3748 C   0  0  0  0  0  0  0  0  0  0  0  0
   19.0042   18.5556   24.1612 H   0  0  0  0  0  0  0  0  0  0  0  0
   20.5391   17.7572   23.8104 H   0  0  0  0  0  0  0  0  0  0  0  0
   18.8052   16.7701   22.9504 C   0  0  0  0  0  0  0  0  0  0  0  0
   17.8372   17.0505   22.5126 H   0  0  0  0  0  0  0  0  0  0  0  0
   19.3681   16.2413   22.1688 H   0  0  0  0  0  0  0  0  0  0  0  0
   18.5725   15.8217   24.1438 C   0  0  0  0  0  0  0  0  0  0  0  0
   17.9833   16.3146   24.9282 H   0  0  0  0  0  0  0  0  0  0  0  0
   18.0274   14.9241   23.8241 H   0  0  0  0  0  0  0  0  0  0  0  0
   19.5265   15.5008   24.5822 H   0  0  0  0  0  0  0  0  0  0  0  0
  1  2  1  0  0  0  0
  1  3  2  0  0  0  0
  1  4  1  0  0  0  0
  4  5  1  0  0  0  0
  4  6  1  0  0  0  0
  4  7  1  0  0  0  0
  7  8  1  0  0  0  0
  7  9  1  0  0  0  0
  7 10  1  0  0  0  0
 10 11  1  0  0  0  0
 10 12  1  0  0  0  0
 10 13  1  0  0  0  0
 13 14  1  0  0  0  0
 13 15  1  0  0  0  0
 13 16  1  0  0  0  0
 16 17  1  0  0  0  0
 16 18  1  0  0  0  0
 16 19  1  0  0  0  0
 19 20  1  0  0  0  0
 19 21  1  0  0  0  0
 19 22  1  0  0  0  0
 22 23  1  0  0  0  0
 22 24  1  0  0  0  0
 22 25  1  0  0  0  0
M  END
> <VConfSearch Rank>
830

> <Conf_Id>
142

> <Delta U+W>
0.593

> <U+W>
-51.037

> <U>
8.903

> <W>
-59.940

> <W(PB)>
-62.418

> <W(SA)>
2.478

> <Valence>
8.305

> <Coulomb>
-0.223

> <VdW>
0.821

> <VdW6>
-9.236

> <VdW12>
10.057

> <Bond>
0.173

> <Angle>
2.663

> <Pdih>
5.469

> <Idih>
0.001

> <Tether>
0.000

$$$$
VeraChem MOL file


 25 24  0  0  0  0  0  0  0  0999 V2000     
   21.1112   16.2488   25.1708 C   0  0  0  0  0  0  0  0  0  0  0  0
   21.4967   15.9185   26.2752 O   0  5  0  0  0  0  0  0  0  0  0  0
   20.2540   15.6501   24.5513 O   0  0  0  0  0  0  0  0  0  0  0  0
   21.7603   17.4657   24.5175 C   0  0  0  0  0  0  0  0  0  0  0  0
   21.5155   17.4635   23.4491 H   0  0  0  0  0  0  0  0  0  0  0  0
   22.8462   17.3333   24.5875 H   0  0  0  0  0  0  0  0  0  0  0  0
   21.3644   18.8202   25.1662 C   0  0  0  0  0  0  0  0  0  0  0  0
   21.6854   18.8142   26.2169 H   0  0  0  0  0  0  0  0  0  0  0  0
   21.9275   19.6301   24.6847 H   0  0  0  0  0  0  0  0  0  0  0  0
   19.8472   19.1365   25.1136 C   0  0  0  0  0  0  0  0  0  0  0  0
   19.6720   20.1054   25.6005 H   0  0  0  0  0  0  0  0  0  0  0  0
   19.3062   18.3942   25.7164 H   0  0  0  0  0  0  0  0  0  0  0  0
   19.2265   19.1687   23.6944 C   0  0  0  0  0  0  0  0  0  0  0  0
   19.2932   18.1733   23.2350 H   0  0  0  0  0  0  0  0  0  0  0  0
   18.1542   19.3857   23.7918 H   0  0  0  0  0  0  0  0  0  0  0  0
   19.8696   20.2212   22.7621 C   0  0  0  0  0  0  0  0  0  0  0  0
   20.9268   19.9764   22.5961 H   0  0  0  0  0  0  0  0  0  0  0  0
   19.8396   21.2071   23.2455 H   0  0  0  0  0  0  0  0  0  0  0  0
   19.1488   20.2923   21.3994 C   0  0  0  0  0  0  0  0  0  0  0  0
   19.1754   19.3062   20.9153 H   0  0  0  0  0  0  0  0  0  0  0  0
   18.0904   20.5446   21.5525 H   0  0  0  0  0  0  0  0  0  0  0  0
   19.7951   21.3380   20.4686 C   0  0  0  0  0  0  0  0  0  0  0  0
   20.8470   21.0923   20.2723 H   0  0  0  0  0  0  0  0  0  0  0  0
   19.2703   21.3753   19.5051 H   0  0  0  0  0  0  0  0  0  0  0  0
   19.7547   22.3400   20.9156 H   0  0  0  0  0  0  0  0  0  0  0  0
  1  2  1  0  0  0  0
  1  3  2  0  0  0  0
  1  4  1  0  0  0  0
  4  5  1  0  0  0  0
  4  6  1  0  0  0  0
  4  7  1  0  0  0  0
  7  8  1  0  0  0  0
  7  9  1  0  0  0  0
  7 10  1  0  0  0  0
 10 11  1  0  0  0  0
 10 12  1  0  0  0  0
 10 13  1  0  0  0  0
 13 14  1  0  0  0  0
 13 15  1  0  0  0  0
 13 16  1  0  0  0  0
 16 17  1  0  0  0  0
 16 18  1  0  0  0  0
 16 19  1  0  0  0  0
 19 20  1  0  0  0  0
 19 21  1  0  0  0  0
 19 22  1  0  0  0  0
 22 23  1  0  0  0  0
 22 24  1  0  0  0  0
 22 25  1  0  0  0  0
M  END
> <VConfSearch Rank>
831

> <Conf_Id>
135

> <Delta U+W>
1.314

> <U+W>
-50.316

> <U>
9.773

> <W>
-60.088

> <W(PB)>
-62.535

> <W(SA)>
2.447

> <Valence>
8.741

> <Coulomb>
0.479

> <VdW>
0.552

> <VdW6>
-10.627

> <VdW12>
11.179

> <Bond>
0.227

> <Angle>
3.155

> <Pdih>
5.358

> <Idih>
0.001

> <Tether>
0.000

$$$$
VeraChem MOL file


 25 24  0  0  0  0  0  0  0  0999 V2000     
   17.4017   17.7029   26.1352 C   0  0  0  0  0  0  0  0  0  0  0  0
   16.6562   16.8457   25.7037 O   0  5  0  0  0  0  0  0  0  0  0  0
   17.6302   17.8629   27.3179 O   0  0  0  0  0  0  0  0  0  0  0  0
   18.1070   18.6132   25.1362 C   0  0  0  0  0  0  0  0  0  0  0  0
   18.2526   19.5906   25.6114 H   0  0  0  0  0  0  0  0  0  0  0  0
   17.4307   18.7616   24.2872 H   0  0  0  0  0  0  0  0  0  0  0  0
   19.4683   18.0409   24.6615 C   0  0  0  0  0  0  0  0  0  0  0  0
   20.0802   17.8147   25.5458 H   0  0  0  0  0  0  0  0  0  0  0  0
   19.3060   17.0850   24.1446 H   0  0  0  0  0  0  0  0  0  0  0  0
   20.2619   19.0037   23.7460 C   0  0  0  0  0  0  0  0  0  0  0  0
   21.2619   18.5776   23.5963 H   0  0  0  0  0  0  0  0  0  0  0  0
   20.4011   19.9671   24.2549 H   0  0  0  0  0  0  0  0  0  0  0  0
   19.5991   19.2291   22.3660 C   0  0  0  0  0  0  0  0  0  0  0  0
   19.5177   18.2684   21.8397 H   0  0  0  0  0  0  0  0  0  0  0  0
   18.5732   19.5917   22.5062 H   0  0  0  0  0  0  0  0  0  0  0  0
   20.3406   20.2482   21.4644 C   0  0  0  0  0  0  0  0  0  0  0  0
   20.3457   21.2380   21.9410 H   0  0  0  0  0  0  0  0  0  0  0  0
   19.7519   20.3640   20.5441 H   0  0  0  0  0  0  0  0  0  0  0  0
   21.7803   19.8368   21.0663 C   0  0  0  0  0  0  0  0  0  0  0  0
   21.8815   18.7428   21.0783 H   0  0  0  0  0  0  0  0  0  0  0  0
   21.9607   20.1484   20.0282 H   0  0  0  0  0  0  0  0  0  0  0  0
   22.8651   20.4856   21.9549 C   0  0  0  0  0  0  0  0  0  0  0  0
   22.7492   20.2081   23.0087 H   0  0  0  0  0  0  0  0  0  0  0  0
   23.8654   20.1691   21.6325 H   0  0  0  0  0  0  0  0  0  0  0  0
   22.8214   21.5804   21.8869 H   0  0  0  0  0  0  0  0  0  0  0  0
  1  2  1  0  0  0  0
  1  3  2  0  0  0  0
  1  4  1  0  0  0  0
  4  5  1  0  0  0  0
  4  6  1  0  0  0  0
  4  7  1  0  0  0  0
  7  8  1  0  0  0  0
  7  9  1  0  0  0  0
  7 10  1  0  0  0  0
 10 11  1  0  0  0  0
 10 12  1  0  0  0  0
 10 13  1  0  0  0  0
 13 14  1  0  0  0  0
 13 15  1  0  0  0  0
 13 16  1  0  0  0  0
 16 17  1  0  0  0  0
 16 18  1  0  0  0  0
 16 19  1  0  0  0  0
 19 20  1  0  0  0  0
 19 21  1  0  0  0  0
 19 22  1  0  0  0  0
 22 23  1  0  0  0  0
 22 24  1  0  0  0  0
 22 25  1  0  0  0  0
M  END
> <VConfSearch Rank>
832

> <Conf_Id>
19

> <Delta U+W>
3.222

> <U+W>
-48.407

> <U>
10.617

> <W>
-59.025

> <W(PB)>
-61.462

> <W(SA)>
2.437

> <Valence>
11.188

> <Coulomb>
-1.778

> <VdW>
1.208

> <VdW6>
-9.786

> <VdW12>
10.993

> <Bond>
0.241

> <Angle>
3.294

> <Pdih>
7.653

> <Idih>
0.001

> <Tether>
0.000

$$$$
VeraChem MOL file


 25 24  0  0  0  0  0  0  0  0999 V2000     
   20.8582   16.2558   26.1772 C   0  0  0  0  0  0  0  0  0  0  0  0
   21.9732   15.7779   26.1052 O   0  5  0  0  0  0  0  0  0  0  0  0
   19.9316   15.7187   26.7514 O   0  0  0  0  0  0  0  0  0  0  0  0
   20.6015   17.5919   25.4893 C   0  0  0  0  0  0  0  0  0  0  0  0
   21.5240   18.1796   25.5508 H   0  0  0  0  0  0  0  0  0  0  0  0
   19.8353   18.1273   26.0624 H   0  0  0  0  0  0  0  0  0  0  0  0
   20.1503   17.4293   24.0143 C   0  0  0  0  0  0  0  0  0  0  0  0
   20.9446   16.9349   23.4382 H   0  0  0  0  0  0  0  0  0  0  0  0
   19.2825   16.7557   23.9861 H   0  0  0  0  0  0  0  0  0  0  0  0
   19.7613   18.7631   23.3328 C   0  0  0  0  0  0  0  0  0  0  0  0
   18.9850   19.2677   23.9238 H   0  0  0  0  0  0  0  0  0  0  0  0
   19.3136   18.5256   22.3596 H   0  0  0  0  0  0  0  0  0  0  0  0
   20.9600   19.7174   23.1159 C   0  0  0  0  0  0  0  0  0  0  0  0
   21.4563   19.9075   24.0756 H   0  0  0  0  0  0  0  0  0  0  0  0
   21.7050   19.2266   22.4751 H   0  0  0  0  0  0  0  0  0  0  0  0
   20.5775   21.0882   22.5027 C   0  0  0  0  0  0  0  0  0  0  0  0
   21.4934   21.6922   22.4480 H   0  0  0  0  0  0  0  0  0  0  0  0
   19.9044   21.6291   23.1819 H   0  0  0  0  0  0  0  0  0  0  0  0
   19.9627   21.0162   21.0825 C   0  0  0  0  0  0  0  0  0  0  0  0
   20.3318   21.8687   20.4959 H   0  0  0  0  0  0  0  0  0  0  0  0
   20.3110   20.1138   20.5613 H   0  0  0  0  0  0  0  0  0  0  0  0
   18.4186   21.0713   21.0855 C   0  0  0  0  0  0  0  0  0  0  0  0
   18.0628   22.0079   21.5343 H   0  0  0  0  0  0  0  0  0  0  0  0
   18.0305   21.0221   20.0599 H   0  0  0  0  0  0  0  0  0  0  0  0
   17.9815   20.2395   21.6495 H   0  0  0  0  0  0  0  0  0  0  0  0
  1  2  1  0  0  0  0
  1  3  2  0  0  0  0
  1  4  1  0  0  0  0
  4  5  1  0  0  0  0
  4  6  1  0  0  0  0
  4  7  1  0  0  0  0
  7  8  1  0  0  0  0
  7  9  1  0  0  0  0
  7 10  1  0  0  0  0
 10 11  1  0  0  0  0
 10 12  1  0  0  0  0
 10 13  1  0  0  0  0
 13 14  1  0  0  0  0
 13 15  1  0  0  0  0
 13 16  1  0  0  0  0
 16 17  1  0  0  0  0
 16 18  1  0  0  0  0
 16 19  1  0  0  0  0
 19 20  1  0  0  0  0
 19 21  1  0  0  0  0
 19 22  1  0  0  0  0
 22 23  1  0  0  0  0
 22 24  1  0  0  0  0
 22 25  1  0  0  0  0
M  END
> <VConfSearch Rank>
833

> <Conf_Id>
20

> <Delta U+W>
3.224

> <U+W>
-48.406

> <U>
10.617

> <W>
-59.023

> <W(PB)>
-61.467

> <W(SA)>
2.444

> <Valence>
11.188

> <Coulomb>
-1.778

> <VdW>
1.208

> <VdW6>
-9.786

> <VdW12>
10.993

> <Bond>
0.241

> <Angle>
3.294

> <Pdih>
7.653

> <Idih>
0.001

> <Tether>
0.000

$$$$
VeraChem MOL file


 25 24  0  0  0  0  0  0  0  0999 V2000     
   22.3148   18.1203   25.3101 C   0  0  0  0  0  0  0  0  0  0  0  0
   22.0995   18.4622   26.4565 O   0  5  0  0  0  0  0  0  0  0  0  0
   23.1230   18.6693   24.5871 O   0  0  0  0  0  0  0  0  0  0  0  0
   21.5803   16.8953   24.7687 C   0  0  0  0  0  0  0  0  0  0  0  0
   21.9053   16.0459   25.3806 H   0  0  0  0  0  0  0  0  0  0  0  0
   21.9248   16.6958   23.7468 H   0  0  0  0  0  0  0  0  0  0  0  0
   20.0285   16.9817   24.8067 C   0  0  0  0  0  0  0  0  0  0  0  0
   19.6305   15.9594   24.7534 H   0  0  0  0  0  0  0  0  0  0  0  0
   19.6994   17.3837   25.7750 H   0  0  0  0  0  0  0  0  0  0  0  0
   19.3946   17.7953   23.6510 C   0  0  0  0  0  0  0  0  0  0  0  0
   18.3053   17.6598   23.6950 H   0  0  0  0  0  0  0  0  0  0  0  0
   19.7183   17.3811   22.6864 H   0  0  0  0  0  0  0  0  0  0  0  0
   19.7092   19.3077   23.6985 C   0  0  0  0  0  0  0  0  0  0  0  0
   19.4824   19.7004   24.6992 H   0  0  0  0  0  0  0  0  0  0  0  0
   20.7800   19.4713   23.5238 H   0  0  0  0  0  0  0  0  0  0  0  0
   18.9039   20.0921   22.6398 C   0  0  0  0  0  0  0  0  0  0  0  0
   17.8289   19.9425   22.8099 H   0  0  0  0  0  0  0  0  0  0  0  0
   19.1283   19.6948   21.6404 H   0  0  0  0  0  0  0  0  0  0  0  0
   19.2258   21.6008   22.6788 C   0  0  0  0  0  0  0  0  0  0  0  0
   19.0017   22.0015   23.6771 H   0  0  0  0  0  0  0  0  0  0  0  0
   20.3003   21.7546   22.5073 H   0  0  0  0  0  0  0  0  0  0  0  0
   18.4208   22.3814   21.6203 C   0  0  0  0  0  0  0  0  0  0  0  0
   17.3413   22.2705   21.7874 H   0  0  0  0  0  0  0  0  0  0  0  0
   18.6621   23.4515   21.6623 H   0  0  0  0  0  0  0  0  0  0  0  0
   18.6499   22.0217   20.6086 H   0  0  0  0  0  0  0  0  0  0  0  0
  1  2  1  0  0  0  0
  1  3  2  0  0  0  0
  1  4  1  0  0  0  0
  4  5  1  0  0  0  0
  4  6  1  0  0  0  0
  4  7  1  0  0  0  0
  7  8  1  0  0  0  0
  7  9  1  0  0  0  0
  7 10  1  0  0  0  0
 10 11  1  0  0  0  0
 10 12  1  0  0  0  0
 10 13  1  0  0  0  0
 13 14  1  0  0  0  0
 13 15  1  0  0  0  0
 13 16  1  0  0  0  0
 16 17  1  0  0  0  0
 16 18  1  0  0  0  0
 16 19  1  0  0  0  0
 19 20  1  0  0  0  0
 19 21  1  0  0  0  0
 19 22  1  0  0  0  0
 22 23  1  0  0  0  0
 22 24  1  0  0  0  0
 22 25  1  0  0  0  0
M  END
> <VConfSearch Rank>
834

> <Conf_Id>
24

> <Delta U+W>
1.784

> <U+W>
-49.846

> <U>
10.904

> <W>
-60.749

> <W(PB)>
-63.220

> <W(SA)>
2.471

> <Valence>
9.445

> <Coulomb>
0.780

> <VdW>
0.679

> <VdW6>
-10.008

> <VdW12>
10.687

> <Bond>
0.201

> <Angle>
3.198

> <Pdih>
6.039

> <Idih>
0.006

> <Tether>
0.000

$$$$
VeraChem MOL file


 25 24  0  0  0  0  0  0  0  0999 V2000     
   22.1738   18.2618   25.9445 C   0  0  0  0  0  0  0  0  0  0  0  0
   22.9846   17.4899   25.4709 O   0  5  0  0  0  0  0  0  0  0  0  0
   22.4043   19.4387   26.1423 O   0  0  0  0  0  0  0  0  0  0  0  0
   20.8157   17.7119   26.3764 C   0  0  0  0  0  0  0  0  0  0  0  0
   20.2293   18.5226   26.8257 H   0  0  0  0  0  0  0  0  0  0  0  0
   21.0161   16.9894   27.1760 H   0  0  0  0  0  0  0  0  0  0  0  0
   19.9965   17.0119   25.2557 C   0  0  0  0  0  0  0  0  0  0  0  0
   20.6504   16.3486   24.6725 H   0  0  0  0  0  0  0  0  0  0  0  0
   19.2548   16.3590   25.7352 H   0  0  0  0  0  0  0  0  0  0  0  0
   19.2361   17.9739   24.3094 C   0  0  0  0  0  0  0  0  0  0  0  0
   18.5757   18.6256   24.8975 H   0  0  0  0  0  0  0  0  0  0  0  0
   18.5812   17.3722   23.6644 H   0  0  0  0  0  0  0  0  0  0  0  0
   20.1558   18.8369   23.4160 C   0  0  0  0  0  0  0  0  0  0  0  0
   20.7251   19.5402   24.0367 H   0  0  0  0  0  0  0  0  0  0  0  0
   20.8859   18.1927   22.9071 H   0  0  0  0  0  0  0  0  0  0  0  0
   19.3495   19.6340   22.3677 C   0  0  0  0  0  0  0  0  0  0  0  0
   18.6167   20.2739   22.8783 H   0  0  0  0  0  0  0  0  0  0  0  0
   18.7813   18.9391   21.7343 H   0  0  0  0  0  0  0  0  0  0  0  0
   20.2659   20.5048   21.4827 C   0  0  0  0  0  0  0  0  0  0  0  0
   20.8347   21.2026   22.1129 H   0  0  0  0  0  0  0  0  0  0  0  0
   20.9997   19.8676   20.9700 H   0  0  0  0  0  0  0  0  0  0  0  0
   19.4580   21.2999   20.4372 C   0  0  0  0  0  0  0  0  0  0  0  0
   18.7372   21.9697   20.9243 H   0  0  0  0  0  0  0  0  0  0  0  0
   20.1251   21.9130   19.8174 H   0  0  0  0  0  0  0  0  0  0  0  0
   18.9036   20.6244   19.7727 H   0  0  0  0  0  0  0  0  0  0  0  0
  1  2  1  0  0  0  0
  1  3  2  0  0  0  0
  1  4  1  0  0  0  0
  4  5  1  0  0  0  0
  4  6  1  0  0  0  0
  4  7  1  0  0  0  0
  7  8  1  0  0  0  0
  7  9  1  0  0  0  0
  7 10  1  0  0  0  0
 10 11  1  0  0  0  0
 10 12  1  0  0  0  0
 10 13  1  0  0  0  0
 13 14  1  0  0  0  0
 13 15  1  0  0  0  0
 13 16  1  0  0  0  0
 16 17  1  0  0  0  0
 16 18  1  0  0  0  0
 16 19  1  0  0  0  0
 19 20  1  0  0  0  0
 19 21  1  0  0  0  0
 19 22  1  0  0  0  0
 22 23  1  0  0  0  0
 22 24  1  0  0  0  0
 22 25  1  0  0  0  0
M  END
> <VConfSearch Rank>
835

> <Conf_Id>
9

> <Delta U+W>
1.764

> <U+W>
-49.865

> <U>
10.902

> <W>
-60.768

> <W(PB)>
-63.223

> <W(SA)>
2.456

> <Valence>
9.445

> <Coulomb>
0.778

> <VdW>
0.679

> <VdW6>
-10.007

> <VdW12>
10.687

> <Bond>
0.201

> <Angle>
3.198

> <Pdih>
6.040

> <Idih>
0.006

> <Tether>
0.000

$$$$
VeraChem MOL file


 25 24  0  0  0  0  0  0  0  0999 V2000     
   17.4348   21.0748   21.5396 C   0  0  0  0  0  0  0  0  0  0  0  0
   16.8420   20.0582   21.2369 O   0  5  0  0  0  0  0  0  0  0  0  0
   16.9549   22.1874   21.4461 O   0  0  0  0  0  0  0  0  0  0  0  0
   18.8520   20.9464   22.0864 C   0  0  0  0  0  0  0  0  0  0  0  0
   19.4179   21.8303   21.7692 H   0  0  0  0  0  0  0  0  0  0  0  0
   19.3183   20.0802   21.6070 H   0  0  0  0  0  0  0  0  0  0  0  0
   18.8887   20.8180   23.6323 C   0  0  0  0  0  0  0  0  0  0  0  0
   18.4158   21.7145   24.0567 H   0  0  0  0  0  0  0  0  0  0  0  0
   18.2744   19.9665   23.9560 H   0  0  0  0  0  0  0  0  0  0  0  0
   20.3224   20.6949   24.2083 C   0  0  0  0  0  0  0  0  0  0  0  0
   20.3486   21.2196   25.1731 H   0  0  0  0  0  0  0  0  0  0  0  0
   21.0392   21.2211   23.5632 H   0  0  0  0  0  0  0  0  0  0  0  0
   20.7964   19.2409   24.4572 C   0  0  0  0  0  0  0  0  0  0  0  0
   21.7822   19.2776   24.9403 H   0  0  0  0  0  0  0  0  0  0  0  0
   20.1180   18.7611   25.1747 H   0  0  0  0  0  0  0  0  0  0  0  0
   20.8969   18.3777   23.1773 C   0  0  0  0  0  0  0  0  0  0  0  0
   21.4500   18.9357   22.4098 H   0  0  0  0  0  0  0  0  0  0  0  0
   19.8924   18.1922   22.7750 H   0  0  0  0  0  0  0  0  0  0  0  0
   21.6049   17.0223   23.4078 C   0  0  0  0  0  0  0  0  0  0  0  0
   21.7233   16.5168   22.4394 H   0  0  0  0  0  0  0  0  0  0  0  0
   22.6190   17.1940   23.7940 H   0  0  0  0  0  0  0  0  0  0  0  0
   20.8354   16.0881   24.3667 C   0  0  0  0  0  0  0  0  0  0  0  0
   19.8092   15.9221   24.0137 H   0  0  0  0  0  0  0  0  0  0  0  0
   21.3324   15.1117   24.4331 H   0  0  0  0  0  0  0  0  0  0  0  0
   20.7875   16.5066   25.3799 H   0  0  0  0  0  0  0  0  0  0  0  0
  1  2  1  0  0  0  0
  1  3  2  0  0  0  0
  1  4  1  0  0  0  0
  4  5  1  0  0  0  0
  4  6  1  0  0  0  0
  4  7  1  0  0  0  0
  7  8  1  0  0  0  0
  7  9  1  0  0  0  0
  7 10  1  0  0  0  0
 10 11  1  0  0  0  0
 10 12  1  0  0  0  0
 10 13  1  0  0  0  0
 13 14  1  0  0  0  0
 13 15  1  0  0  0  0
 13 16  1  0  0  0  0
 16 17  1  0  0  0  0
 16 18  1  0  0  0  0
 16 19  1  0  0  0  0
 19 20  1  0  0  0  0
 19 21  1  0  0  0  0
 19 22  1  0  0  0  0
 22 23  1  0  0  0  0
 22 24  1  0  0  0  0
 22 25  1  0  0  0  0
M  END
> <VConfSearch Rank>
836

> <Conf_Id>
89

> <Delta U+W>
2.903

> <U+W>
-48.726

> <U>
10.996

> <W>
-59.723

> <W(PB)>
-62.151

> <W(SA)>
2.428

> <Valence>
10.985

> <Coulomb>
-0.995

> <VdW>
1.006

> <VdW6>
-10.062

> <VdW12>
11.069

> <Bond>
0.238

> <Angle>
3.202

> <Pdih>
7.544

> <Idih>
0.001

> <Tether>
0.000

$$$$
VeraChem MOL file


 25 24  0  0  0  0  0  0  0  0999 V2000     
   18.7780   16.9876   21.0001 C   0  0  0  0  0  0  0  0  0  0  0  0
   17.6956   17.5244   20.8674 O   0  5  0  0  0  0  0  0  0  0  0  0
   19.6216   16.9545   20.1255 O   0  0  0  0  0  0  0  0  0  0  0  0
   19.0654   16.2616   22.3129 C   0  0  0  0  0  0  0  0  0  0  0  0
   19.1688   15.2000   22.0606 H   0  0  0  0  0  0  0  0  0  0  0  0
   18.1883   16.3446   22.9661 H   0  0  0  0  0  0  0  0  0  0  0  0
   20.3437   16.7293   23.0643 C   0  0  0  0  0  0  0  0  0  0  0  0
   20.6519   15.9212   23.7414 H   0  0  0  0  0  0  0  0  0  0  0  0
   21.1713   16.8584   22.3529 H   0  0  0  0  0  0  0  0  0  0  0  0
   20.1685   18.0128   23.9139 C   0  0  0  0  0  0  0  0  0  0  0  0
   21.0751   18.1368   24.5190 H   0  0  0  0  0  0  0  0  0  0  0  0
   19.3403   17.8764   24.6226 H   0  0  0  0  0  0  0  0  0  0  0  0
   19.9319   19.2941   23.0781 C   0  0  0  0  0  0  0  0  0  0  0  0
   20.7258   19.4020   22.3265 H   0  0  0  0  0  0  0  0  0  0  0  0
   18.9900   19.1958   22.5250 H   0  0  0  0  0  0  0  0  0  0  0  0
   19.8447   20.5819   23.9322 C   0  0  0  0  0  0  0  0  0  0  0  0
   19.0727   20.4604   24.7042 H   0  0  0  0  0  0  0  0  0  0  0  0
   19.5088   21.4036   23.2848 H   0  0  0  0  0  0  0  0  0  0  0  0
   21.1849   20.9827   24.5900 C   0  0  0  0  0  0  0  0  0  0  0  0
   21.5021   20.2137   25.3061 H   0  0  0  0  0  0  0  0  0  0  0  0
   21.9686   21.0497   23.8229 H   0  0  0  0  0  0  0  0  0  0  0  0
   21.0717   22.3337   25.3251 C   0  0  0  0  0  0  0  0  0  0  0  0
   20.3126   22.2871   26.1169 H   0  0  0  0  0  0  0  0  0  0  0  0
   22.0294   22.6029   25.7891 H   0  0  0  0  0  0  0  0  0  0  0  0
   20.7941   23.1374   24.6306 H   0  0  0  0  0  0  0  0  0  0  0  0
  1  2  1  0  0  0  0
  1  3  2  0  0  0  0
  1  4  1  0  0  0  0
  4  5  1  0  0  0  0
  4  6  1  0  0  0  0
  4  7  1  0  0  0  0
  7  8  1  0  0  0  0
  7  9  1  0  0  0  0
  7 10  1  0  0  0  0
 10 11  1  0  0  0  0
 10 12  1  0  0  0  0
 10 13  1  0  0  0  0
 13 14  1  0  0  0  0
 13 15  1  0  0  0  0
 13 16  1  0  0  0  0
 16 17  1  0  0  0  0
 16 18  1  0  0  0  0
 16 19  1  0  0  0  0
 19 20  1  0  0  0  0
 19 21  1  0  0  0  0
 19 22  1  0  0  0  0
 22 23  1  0  0  0  0
 22 24  1  0  0  0  0
 22 25  1  0  0  0  0
M  END
> <VConfSearch Rank>
837

> <Conf_Id>
114

> <Delta U+W>
2.758

> <U+W>
-48.871

> <U>
11.422

> <W>
-60.293

> <W(PB)>
-62.719

> <W(SA)>
2.425

> <Valence>
10.135

> <Coulomb>
0.369

> <VdW>
0.918

> <VdW6>
-10.482

> <VdW12>
11.400

> <Bond>
0.245

> <Angle>
3.539

> <Pdih>
6.346

> <Idih>
0.006

> <Tether>
0.000

$$$$
VeraChem MOL file


 25 24  0  0  0  0  0  0  0  0999 V2000     
   22.2370   16.1724   21.9679 C   0  0  0  0  0  0  0  0  0  0  0  0
   23.3166   16.2238   22.5237 O   0  5  0  0  0  0  0  0  0  0  0  0
   21.4774   15.2281   22.0595 O   0  0  0  0  0  0  0  0  0  0  0  0
   21.8190   17.3484   21.0897 C   0  0  0  0  0  0  0  0  0  0  0  0
   21.4192   16.9353   20.1562 H   0  0  0  0  0  0  0  0  0  0  0  0
   22.7148   17.9229   20.8244 H   0  0  0  0  0  0  0  0  0  0  0  0
   20.7603   18.2754   21.7415 C   0  0  0  0  0  0  0  0  0  0  0  0
   20.4245   19.0111   20.9984 H   0  0  0  0  0  0  0  0  0  0  0  0
   19.8825   17.6747   22.0136 H   0  0  0  0  0  0  0  0  0  0  0  0
   21.3087   19.0177   22.9839 C   0  0  0  0  0  0  0  0  0  0  0  0
   22.2382   19.5341   22.7078 H   0  0  0  0  0  0  0  0  0  0  0  0
   21.5787   18.2923   23.7638 H   0  0  0  0  0  0  0  0  0  0  0  0
   20.3244   20.0595   23.5673 C   0  0  0  0  0  0  0  0  0  0  0  0
   20.8537   20.6287   24.3419 H   0  0  0  0  0  0  0  0  0  0  0  0
   20.0458   20.7804   22.7867 H   0  0  0  0  0  0  0  0  0  0  0  0
   19.0479   19.4281   24.1760 C   0  0  0  0  0  0  0  0  0  0  0  0
   19.3273   18.7047   24.9540 H   0  0  0  0  0  0  0  0  0  0  0  0
   18.5151   18.8623   23.4014 H   0  0  0  0  0  0  0  0  0  0  0  0
   18.0683   20.4698   24.7657 C   0  0  0  0  0  0  0  0  0  0  0  0
   17.7957   21.2020   23.9932 H   0  0  0  0  0  0  0  0  0  0  0  0
   17.1386   19.9569   25.0483 H   0  0  0  0  0  0  0  0  0  0  0  0
   18.6247   21.2037   26.0054 C   0  0  0  0  0  0  0  0  0  0  0  0
   17.8578   21.8578   26.4399 H   0  0  0  0  0  0  0  0  0  0  0  0
   18.9363   20.4890   26.7782 H   0  0  0  0  0  0  0  0  0  0  0  0
   19.4872   21.8306   25.7477 H   0  0  0  0  0  0  0  0  0  0  0  0
  1  2  1  0  0  0  0
  1  3  2  0  0  0  0
  1  4  1  0  0  0  0
  4  5  1  0  0  0  0
  4  6  1  0  0  0  0
  4  7  1  0  0  0  0
  7  8  1  0  0  0  0
  7  9  1  0  0  0  0
  7 10  1  0  0  0  0
 10 11  1  0  0  0  0
 10 12  1  0  0  0  0
 10 13  1  0  0  0  0
 13 14  1  0  0  0  0
 13 15  1  0  0  0  0
 13 16  1  0  0  0  0
 16 17  1  0  0  0  0
 16 18  1  0  0  0  0
 16 19  1  0  0  0  0
 19 20  1  0  0  0  0
 19 21  1  0  0  0  0
 19 22  1  0  0  0  0
 22 23  1  0  0  0  0
 22 24  1  0  0  0  0
 22 25  1  0  0  0  0
M  END
> <VConfSearch Rank>
838

> <Conf_Id>
87

> <Delta U+W>
1.453

> <U+W>
-50.176

> <U>
9.763

> <W>
-59.940

> <W(PB)>
-62.392

> <W(SA)>
2.452

> <Valence>
8.883

> <Coulomb>
-0.122

> <VdW>
1.003

> <VdW6>
-9.782

> <VdW12>
10.785

> <Bond>
0.212

> <Angle>
2.940

> <Pdih>
5.730

> <Idih>
0.001

> <Tether>
0.000

$$$$
VeraChem MOL file


 25 24  0  0  0  0  0  0  0  0999 V2000     
   16.4372   20.0564   22.0706 C   0  0  0  0  0  0  0  0  0  0  0  0
   15.8638   20.3032   23.1131 O   0  5  0  0  0  0  0  0  0  0  0  0
   16.1856   20.6073   21.0170 O   0  0  0  0  0  0  0  0  0  0  0  0
   17.5463   19.0106   22.0890 C   0  0  0  0  0  0  0  0  0  0  0  0
   17.5517   18.5027   21.1171 H   0  0  0  0  0  0  0  0  0  0  0  0
   17.2935   18.2591   22.8466 H   0  0  0  0  0  0  0  0  0  0  0  0
   18.9401   19.6175   22.3837 C   0  0  0  0  0  0  0  0  0  0  0  0
   19.1759   20.3737   21.6224 H   0  0  0  0  0  0  0  0  0  0  0  0
   18.9041   20.1364   23.3507 H   0  0  0  0  0  0  0  0  0  0  0  0
   20.0444   18.5354   22.4036 C   0  0  0  0  0  0  0  0  0  0  0  0
   20.0190   17.9814   21.4554 H   0  0  0  0  0  0  0  0  0  0  0  0
   19.8308   17.8008   23.1911 H   0  0  0  0  0  0  0  0  0  0  0  0
   21.4697   19.1124   22.5933 C   0  0  0  0  0  0  0  0  0  0  0  0
   22.1953   18.2904   22.5363 H   0  0  0  0  0  0  0  0  0  0  0  0
   21.7006   19.7713   21.7455 H   0  0  0  0  0  0  0  0  0  0  0  0
   21.6951   19.9025   23.9096 C   0  0  0  0  0  0  0  0  0  0  0  0
   21.0869   20.8164   23.8935 H   0  0  0  0  0  0  0  0  0  0  0  0
   22.7392   20.2422   23.9391 H   0  0  0  0  0  0  0  0  0  0  0  0
   21.3891   19.1190   25.2098 C   0  0  0  0  0  0  0  0  0  0  0  0
   21.5595   19.7837   26.0677 H   0  0  0  0  0  0  0  0  0  0  0  0
   20.3263   18.8449   25.2445 H   0  0  0  0  0  0  0  0  0  0  0  0
   22.2595   17.8550   25.3797 C   0  0  0  0  0  0  0  0  0  0  0  0
   23.3274   18.1043   25.3316 H   0  0  0  0  0  0  0  0  0  0  0  0
   22.0652   17.3822   26.3510 H   0  0  0  0  0  0  0  0  0  0  0  0
   22.0430   17.1144   24.5996 H   0  0  0  0  0  0  0  0  0  0  0  0
  1  2  1  0  0  0  0
  1  3  2  0  0  0  0
  1  4  1  0  0  0  0
  4  5  1  0  0  0  0
  4  6  1  0  0  0  0
  4  7  1  0  0  0  0
  7  8  1  0  0  0  0
  7  9  1  0  0  0  0
  7 10  1  0  0  0  0
 10 11  1  0  0  0  0
 10 12  1  0  0  0  0
 10 13  1  0  0  0  0
 13 14  1  0  0  0  0
 13 15  1  0  0  0  0
 13 16  1  0  0  0  0
 16 17  1  0  0  0  0
 16 18  1  0  0  0  0
 16 19  1  0  0  0  0
 19 20  1  0  0  0  0
 19 21  1  0  0  0  0
 19 22  1  0  0  0  0
 22 23  1  0  0  0  0
 22 24  1  0  0  0  0
 22 25  1  0  0  0  0
M  END
> <VConfSearch Rank>
839

> <Conf_Id>
29

> <Delta U+W>
0.850

> <U+W>
-50.780

> <U>
8.646

> <W>
-59.426

> <W(PB)>
-61.868

> <W(SA)>
2.442

> <Valence>
8.924

> <Coulomb>
-1.171

> <VdW>
0.894

> <VdW6>
-10.223

> <VdW12>
11.117

> <Bond>
0.231

> <Angle>
3.232

> <Pdih>
5.461

> <Idih>
0.001

> <Tether>
0.000

$$$$
VeraChem MOL file


 25 24  0  0  0  0  0  0  0  0999 V2000     
   23.0638   18.7745   25.8063 C   0  0  0  0  0  0  0  0  0  0  0  0
   24.0094   18.9073   25.0547 O   0  5  0  0  0  0  0  0  0  0  0  0
   23.0818   18.0638   26.7919 O   0  0  0  0  0  0  0  0  0  0  0  0
   21.7772   19.5263   25.4846 C   0  0  0  0  0  0  0  0  0  0  0  0
   22.0472   20.4692   24.9939 H   0  0  0  0  0  0  0  0  0  0  0  0
   21.2863   19.7819   26.4312 H   0  0  0  0  0  0  0  0  0  0  0  0
   20.8145   18.7131   24.5846 C   0  0  0  0  0  0  0  0  0  0  0  0
   21.3343   18.4525   23.6532 H   0  0  0  0  0  0  0  0  0  0  0  0
   20.5597   17.7687   25.0848 H   0  0  0  0  0  0  0  0  0  0  0  0
   19.5223   19.5009   24.2680 C   0  0  0  0  0  0  0  0  0  0  0  0
   19.7728   20.4260   23.7324 H   0  0  0  0  0  0  0  0  0  0  0  0
   19.0536   19.8125   25.2113 H   0  0  0  0  0  0  0  0  0  0  0  0
   18.4863   18.6850   23.4548 C   0  0  0  0  0  0  0  0  0  0  0  0
   18.1772   17.8138   24.0481 H   0  0  0  0  0  0  0  0  0  0  0  0
   17.5806   19.2916   23.3246 H   0  0  0  0  0  0  0  0  0  0  0  0
   18.9739   18.1904   22.0671 C   0  0  0  0  0  0  0  0  0  0  0  0
   18.1526   17.6462   21.5815 H   0  0  0  0  0  0  0  0  0  0  0  0
   19.7761   17.4538   22.2052 H   0  0  0  0  0  0  0  0  0  0  0  0
   19.4714   19.3005   21.1089 C   0  0  0  0  0  0  0  0  0  0  0  0
   20.3507   19.8014   21.5351 H   0  0  0  0  0  0  0  0  0  0  0  0
   19.8117   18.8311   20.1758 H   0  0  0  0  0  0  0  0  0  0  0  0
   18.3871   20.3470   20.7722 C   0  0  0  0  0  0  0  0  0  0  0  0
   18.0927   20.9164   21.6628 H   0  0  0  0  0  0  0  0  0  0  0  0
   18.7610   21.0621   20.0282 H   0  0  0  0  0  0  0  0  0  0  0  0
   17.4913   19.8654   20.3592 H   0  0  0  0  0  0  0  0  0  0  0  0
  1  2  1  0  0  0  0
  1  3  2  0  0  0  0
  1  4  1  0  0  0  0
  4  5  1  0  0  0  0
  4  6  1  0  0  0  0
  4  7  1  0  0  0  0
  7  8  1  0  0  0  0
  7  9  1  0  0  0  0
  7 10  1  0  0  0  0
 10 11  1  0  0  0  0
 10 12  1  0  0  0  0
 10 13  1  0  0  0  0
 13 14  1  0  0  0  0
 13 15  1  0  0  0  0
 13 16  1  0  0  0  0
 16 17  1  0  0  0  0
 16 18  1  0  0  0  0
 16 19  1  0  0  0  0
 19 20  1  0  0  0  0
 19 21  1  0  0  0  0
 19 22  1  0  0  0  0
 22 23  1  0  0  0  0
 22 24  1  0  0  0  0
 22 25  1  0  0  0  0
M  END
> <VConfSearch Rank>
840

> <Conf_Id>
30

> <Delta U+W>
0.843

> <U+W>
-50.787

> <U>
8.647

> <W>
-59.434

> <W(PB)>
-61.861

> <W(SA)>
2.428

> <Valence>
8.924

> <Coulomb>
-1.170

> <VdW>
0.894

> <VdW6>
-10.224

> <VdW12>
11.118

> <Bond>
0.231

> <Angle>
3.232

> <Pdih>
5.460

> <Idih>
0.000

> <Tether>
0.000

$$$$
VeraChem MOL file


 25 24  0  0  0  0  0  0  0  0999 V2000     
   16.7142   18.6969   26.3873 C   0  0  0  0  0  0  0  0  0  0  0  0
   16.9225   19.7918   26.8736 O   0  5  0  0  0  0  0  0  0  0  0  0
   15.8615   17.9376   26.8024 O   0  0  0  0  0  0  0  0  0  0  0  0
   17.5489   18.2248   25.1958 C   0  0  0  0  0  0  0  0  0  0  0  0
   16.8535   17.9952   24.3799 H   0  0  0  0  0  0  0  0  0  0  0  0
   18.0272   17.2817   25.4849 H   0  0  0  0  0  0  0  0  0  0  0  0
   18.6245   19.2286   24.7016 C   0  0  0  0  0  0  0  0  0  0  0  0
   18.1392   20.1733   24.4196 H   0  0  0  0  0  0  0  0  0  0  0  0
   19.3139   19.4590   25.5256 H   0  0  0  0  0  0  0  0  0  0  0  0
   19.4188   18.6735   23.4993 C   0  0  0  0  0  0  0  0  0  0  0  0
   18.7275   18.4438   22.6768 H   0  0  0  0  0  0  0  0  0  0  0  0
   19.9031   17.7291   23.7835 H   0  0  0  0  0  0  0  0  0  0  0  0
   20.4881   19.6735   23.0093 C   0  0  0  0  0  0  0  0  0  0  0  0
   20.0041   20.6180   22.7250 H   0  0  0  0  0  0  0  0  0  0  0  0
   21.1796   19.9034   23.8315 H   0  0  0  0  0  0  0  0  0  0  0  0
   21.2827   19.1192   21.8072 C   0  0  0  0  0  0  0  0  0  0  0  0
   20.5914   18.8892   20.9848 H   0  0  0  0  0  0  0  0  0  0  0  0
   21.7668   18.1747   22.0913 H   0  0  0  0  0  0  0  0  0  0  0  0
   22.3515   20.1187   21.3173 C   0  0  0  0  0  0  0  0  0  0  0  0
   21.8707   21.0642   21.0304 H   0  0  0  0  0  0  0  0  0  0  0  0
   23.0461   20.3496   22.1369 H   0  0  0  0  0  0  0  0  0  0  0  0
   23.1428   19.5615   20.1169 C   0  0  0  0  0  0  0  0  0  0  0  0
   22.4760   19.3510   19.2704 H   0  0  0  0  0  0  0  0  0  0  0  0
   23.8977   20.2846   19.7818 H   0  0  0  0  0  0  0  0  0  0  0  0
   23.6602   18.6311   20.3853 H   0  0  0  0  0  0  0  0  0  0  0  0
  1  2  1  0  0  0  0
  1  3  2  0  0  0  0
  1  4  1  0  0  0  0
  4  5  1  0  0  0  0
  4  6  1  0  0  0  0
  4  7  1  0  0  0  0
  7  8  1  0  0  0  0
  7  9  1  0  0  0  0
  7 10  1  0  0  0  0
 10 11  1  0  0  0  0
 10 12  1  0  0  0  0
 10 13  1  0  0  0  0
 13 14  1  0  0  0  0
 13 15  1  0  0  0  0
 13 16  1  0  0  0  0
 16 17  1  0  0  0  0
 16 18  1  0  0  0  0
 16 19  1  0  0  0  0
 19 20  1  0  0  0  0
 19 21  1  0  0  0  0
 19 22  1  0  0  0  0
 22 23  1  0  0  0  0
 22 24  1  0  0  0  0
 22 25  1  0  0  0  0
M  END
> <VConfSearch Rank>
841

> <Conf_Id>
0

> <Delta U+W>
0.000

> <U+W>
-51.629

> <U>
6.586

> <W>
-58.216

> <W(PB)>
-60.757

> <W(SA)>
2.541

> <Valence>
8.027

> <Coulomb>
-2.892

> <VdW>
1.451

> <VdW6>
-7.931

> <VdW12>
9.383

> <Bond>
0.149

> <Angle>
2.726

> <Pdih>
5.152

> <Idih>
0.000

> <Tether>
0.000

$$$$
VeraChem MOL file


 25 24  0  0  0  0  0  0  0  0999 V2000     
   23.3968   15.8175   23.1889 C   0  0  0  0  0  0  0  0  0  0  0  0
   22.9629   14.6852   23.1102 O   0  5  0  0  0  0  0  0  0  0  0  0
   24.4695   16.1609   22.7328 O   0  0  0  0  0  0  0  0  0  0  0  0
   22.5373   16.8712   23.8782 C   0  0  0  0  0  0  0  0  0  0  0  0
   23.2062   17.5936   24.3612 H   0  0  0  0  0  0  0  0  0  0  0  0
   21.9651   16.3775   24.6727 H   0  0  0  0  0  0  0  0  0  0  0  0
   21.5798   17.5984   22.9023 C   0  0  0  0  0  0  0  0  0  0  0  0
   22.1674   18.0761   22.1059 H   0  0  0  0  0  0  0  0  0  0  0  0
   20.9263   16.8600   22.4173 H   0  0  0  0  0  0  0  0  0  0  0  0
   20.7209   18.6596   23.6236 C   0  0  0  0  0  0  0  0  0  0  0  0
   21.3771   19.3956   24.1082 H   0  0  0  0  0  0  0  0  0  0  0  0
   20.1359   18.1791   24.4199 H   0  0  0  0  0  0  0  0  0  0  0  0
   19.7672   19.3827   22.6483 C   0  0  0  0  0  0  0  0  0  0  0  0
   20.3520   19.8633   21.8520 H   0  0  0  0  0  0  0  0  0  0  0  0
   19.1110   18.6469   22.1636 H   0  0  0  0  0  0  0  0  0  0  0  0
   18.9080   20.4440   23.3689 C   0  0  0  0  0  0  0  0  0  0  0  0
   19.5640   21.1801   23.8536 H   0  0  0  0  0  0  0  0  0  0  0  0
   18.3230   19.9637   24.1653 H   0  0  0  0  0  0  0  0  0  0  0  0
   17.9546   21.1669   22.3942 C   0  0  0  0  0  0  0  0  0  0  0  0
   18.5364   21.6502   21.5971 H   0  0  0  0  0  0  0  0  0  0  0  0
   17.2954   20.4338   21.9088 H   0  0  0  0  0  0  0  0  0  0  0  0
   17.0984   22.2258   23.1175 C   0  0  0  0  0  0  0  0  0  0  0  0
   16.4269   22.7295   22.4101 H   0  0  0  0  0  0  0  0  0  0  0  0
   16.4818   21.7646   23.9002 H   0  0  0  0  0  0  0  0  0  0  0  0
   17.7321   22.9901   23.5862 H   0  0  0  0  0  0  0  0  0  0  0  0
  1  2  1  0  0  0  0
  1  3  2  0  0  0  0
  1  4  1  0  0  0  0
  4  5  1  0  0  0  0
  4  6  1  0  0  0  0
  4  7  1  0  0  0  0
  7  8  1  0  0  0  0
  7  9  1  0  0  0  0
  7 10  1  0  0  0  0
 10 11  1  0  0  0  0
 10 12  1  0  0  0  0
 10 13  1  0  0  0  0
 13 14  1  0  0  0  0
 13 15  1  0  0  0  0
 13 16  1  0  0  0  0
 16 17  1  0  0  0  0
 16 18  1  0  0  0  0
 16 19  1  0  0  0  0
 19 20  1  0  0  0  0
 19 21  1  0  0  0  0
 19 22  1  0  0  0  0
 22 23  1  0  0  0  0
 22 24  1  0  0  0  0
 22 25  1  0  0  0  0
M  END
> <VConfSearch Rank>
842

> <Conf_Id>
27

> <Delta U+W>
-1.297

> <U+W>
-52.926

> <U>
5.617

> <W>
-58.543

> <W(PB)>
-61.065

> <W(SA)>
2.522

> <Valence>
7.531

> <Coulomb>
-2.818

> <VdW>
0.904

> <VdW6>
-7.640

> <VdW12>
8.544

> <Bond>
0.115

> <Angle>
2.271

> <Pdih>
5.144

> <Idih>
0.001

> <Tether>
0.000

$$$$
VeraChem MOL file


 25 24  0  0  0  0  0  0  0  0999 V2000     
   16.9878   16.6950   23.3453 C   0  0  0  0  0  0  0  0  0  0  0  0
   16.8315   16.0898   24.3875 O   0  5  0  0  0  0  0  0  0  0  0  0
   16.2274   17.5549   22.9460 O   0  0  0  0  0  0  0  0  0  0  0  0
   18.1971   16.3422   22.4838 C   0  0  0  0  0  0  0  0  0  0  0  0
   18.0164   16.7008   21.4631 H   0  0  0  0  0  0  0  0  0  0  0  0
   18.2539   15.2486   22.4306 H   0  0  0  0  0  0  0  0  0  0  0  0
   19.5388   16.9055   23.0199 C   0  0  0  0  0  0  0  0  0  0  0  0
   19.6920   16.5604   24.0519 H   0  0  0  0  0  0  0  0  0  0  0  0
   20.3629   16.4922   22.4227 H   0  0  0  0  0  0  0  0  0  0  0  0
   19.5977   18.4488   22.9700 C   0  0  0  0  0  0  0  0  0  0  0  0
   18.7864   18.8702   23.5796 H   0  0  0  0  0  0  0  0  0  0  0  0
   19.4306   18.7893   21.9389 H   0  0  0  0  0  0  0  0  0  0  0  0
   20.9530   18.9860   23.4780 C   0  0  0  0  0  0  0  0  0  0  0  0
   21.1192   18.6450   24.5091 H   0  0  0  0  0  0  0  0  0  0  0  0
   21.7656   18.5684   22.8678 H   0  0  0  0  0  0  0  0  0  0  0  0
   21.0123   20.5281   23.4292 C   0  0  0  0  0  0  0  0  0  0  0  0
   20.1996   20.9459   24.0392 H   0  0  0  0  0  0  0  0  0  0  0  0
   20.8458   20.8693   22.3982 H   0  0  0  0  0  0  0  0  0  0  0  0
   22.3666   21.0656   23.9373 C   0  0  0  0  0  0  0  0  0  0  0  0
   22.5357   20.7276   24.9692 H   0  0  0  0  0  0  0  0  0  0  0  0
   23.1818   20.6511   23.3281 H   0  0  0  0  0  0  0  0  0  0  0  0
   22.4216   22.6057   23.8872 C   0  0  0  0  0  0  0  0  0  0  0  0
   21.6358   23.0474   24.5139 H   0  0  0  0  0  0  0  0  0  0  0  0
   23.3907   22.9704   24.2517 H   0  0  0  0  0  0  0  0  0  0  0  0
   22.2867   22.9704   22.8604 H   0  0  0  0  0  0  0  0  0  0  0  0
  1  2  1  0  0  0  0
  1  3  2  0  0  0  0
  1  4  1  0  0  0  0
  4  5  1  0  0  0  0
  4  6  1  0  0  0  0
  4  7  1  0  0  0  0
  7  8  1  0  0  0  0
  7  9  1  0  0  0  0
  7 10  1  0  0  0  0
 10 11  1  0  0  0  0
 10 12  1  0  0  0  0
 10 13  1  0  0  0  0
 13 14  1  0  0  0  0
 13 15  1  0  0  0  0
 13 16  1  0  0  0  0
 16 17  1  0  0  0  0
 16 18  1  0  0  0  0
 16 19  1  0  0  0  0
 19 20  1  0  0  0  0
 19 21  1  0  0  0  0
 19 22  1  0  0  0  0
 22 23  1  0  0  0  0
 22 24  1  0  0  0  0
 22 25  1  0  0  0  0
M  END
> <VConfSearch Rank>
843

> <Conf_Id>
37

> <Delta U+W>
-0.230

> <U+W>
-51.860

> <U>
7.816

> <W>
-59.675

> <W(PB)>
-62.180

> <W(SA)>
2.505

> <Valence>
7.785

> <Coulomb>
-0.713

> <VdW>
0.744

> <VdW6>
-8.514

> <VdW12>
9.259

> <Bond>
0.136

> <Angle>
2.433

> <Pdih>
5.216

> <Idih>
0.000

> <Tether>
0.000

$$$$
VeraChem MOL file


 25 24  0  0  0  0  0  0  0  0999 V2000     
   18.8594   22.6555   25.3164 C   0  0  0  0  0  0  0  0  0  0  0  0
   19.7909   23.3478   25.6770 O   0  5  0  0  0  0  0  0  0  0  0  0
   18.1221   22.0673   26.0828 O   0  0  0  0  0  0  0  0  0  0  0  0
   18.5928   22.5327   23.8188 C   0  0  0  0  0  0  0  0  0  0  0  0
   18.6501   23.5409   23.3919 H   0  0  0  0  0  0  0  0  0  0  0  0
   17.5629   22.1846   23.6739 H   0  0  0  0  0  0  0  0  0  0  0  0
   19.5835   21.5986   23.0767 C   0  0  0  0  0  0  0  0  0  0  0  0
   19.4058   21.6772   21.9956 H   0  0  0  0  0  0  0  0  0  0  0  0
   20.6116   21.9439   23.2541 H   0  0  0  0  0  0  0  0  0  0  0  0
   19.4454   20.1217   23.5096 C   0  0  0  0  0  0  0  0  0  0  0  0
   18.4129   19.7853   23.3427 H   0  0  0  0  0  0  0  0  0  0  0  0
   19.6390   20.0321   24.5875 H   0  0  0  0  0  0  0  0  0  0  0  0
   20.4182   19.2057   22.7360 C   0  0  0  0  0  0  0  0  0  0  0  0
   20.2246   19.2914   21.6580 H   0  0  0  0  0  0  0  0  0  0  0  0
   21.4504   19.5428   22.9036 H   0  0  0  0  0  0  0  0  0  0  0  0
   20.2813   17.7299   23.1686 C   0  0  0  0  0  0  0  0  0  0  0  0
   19.2491   17.3928   23.0014 H   0  0  0  0  0  0  0  0  0  0  0  0
   20.4748   17.6441   24.2467 H   0  0  0  0  0  0  0  0  0  0  0  0
   21.2539   16.8141   22.3961 C   0  0  0  0  0  0  0  0  0  0  0  0
   21.0619   16.8961   21.3172 H   0  0  0  0  0  0  0  0  0  0  0  0
   22.2877   17.1473   22.5626 H   0  0  0  0  0  0  0  0  0  0  0  0
   21.1139   15.3414   22.8309 C   0  0  0  0  0  0  0  0  0  0  0  0
   20.0967   14.9722   22.6459 H   0  0  0  0  0  0  0  0  0  0  0  0
   21.8123   14.7049   22.2721 H   0  0  0  0  0  0  0  0  0  0  0  0
   21.3315   15.2253   23.9008 H   0  0  0  0  0  0  0  0  0  0  0  0
  1  2  1  0  0  0  0
  1  3  2  0  0  0  0
  1  4  1  0  0  0  0
  4  5  1  0  0  0  0
  4  6  1  0  0  0  0
  4  7  1  0  0  0  0
  7  8  1  0  0  0  0
  7  9  1  0  0  0  0
  7 10  1  0  0  0  0
 10 11  1  0  0  0  0
 10 12  1  0  0  0  0
 10 13  1  0  0  0  0
 13 14  1  0  0  0  0
 13 15  1  0  0  0  0
 13 16  1  0  0  0  0
 16 17  1  0  0  0  0
 16 18  1  0  0  0  0
 16 19  1  0  0  0  0
 19 20  1  0  0  0  0
 19 21  1  0  0  0  0
 19 22  1  0  0  0  0
 22 23  1  0  0  0  0
 22 24  1  0  0  0  0
 22 25  1  0  0  0  0
M  END
> <VConfSearch Rank>
844

> <Conf_Id>
54

> <Delta U+W>
-0.224

> <U+W>
-51.854

> <U>
7.816

> <W>
-59.670

> <W(PB)>
-62.157

> <W(SA)>
2.487

> <Valence>
7.785

> <Coulomb>
-0.713

> <VdW>
0.744

> <VdW6>
-8.515

> <VdW12>
9.259

> <Bond>
0.136

> <Angle>
2.433

> <Pdih>
5.215

> <Idih>
0.000

> <Tether>
0.000

$$$$
VeraChem MOL file


 25 24  0  0  0  0  0  0  0  0999 V2000     
   20.0659   19.0248   27.3693 C   0  0  0  0  0  0  0  0  0  0  0  0
   20.3292   17.8738   27.6575 O   0  5  0  0  0  0  0  0  0  0  0  0
   20.6284   19.9857   27.8566 O   0  0  0  0  0  0  0  0  0  0  0  0
   18.9557   19.2803   26.3538 C   0  0  0  0  0  0  0  0  0  0  0  0
   18.3136   20.0691   26.7632 H   0  0  0  0  0  0  0  0  0  0  0  0
   18.3382   18.3774   26.2748 H   0  0  0  0  0  0  0  0  0  0  0  0
   19.4662   19.7042   24.9519 C   0  0  0  0  0  0  0  0  0  0  0  0
   18.6039   20.0137   24.3482 H   0  0  0  0  0  0  0  0  0  0  0  0
   20.1161   20.5845   25.0524 H   0  0  0  0  0  0  0  0  0  0  0  0
   20.2297   18.5679   24.2295 C   0  0  0  0  0  0  0  0  0  0  0  0
   19.5650   17.7048   24.0887 H   0  0  0  0  0  0  0  0  0  0  0  0
   21.0516   18.2229   24.8716 H   0  0  0  0  0  0  0  0  0  0  0  0
   20.8260   18.9914   22.8656 C   0  0  0  0  0  0  0  0  0  0  0  0
   21.4758   19.8661   23.0041 H   0  0  0  0  0  0  0  0  0  0  0  0
   21.4715   18.1775   22.5117 H   0  0  0  0  0  0  0  0  0  0  0  0
   19.7544   19.3001   21.7909 C   0  0  0  0  0  0  0  0  0  0  0  0
   19.1121   20.1187   22.1392 H   0  0  0  0  0  0  0  0  0  0  0  0
   19.1018   18.4268   21.6565 H   0  0  0  0  0  0  0  0  0  0  0  0
   20.3543   19.7123   20.4260 C   0  0  0  0  0  0  0  0  0  0  0  0
   19.5381   20.0447   19.7698 H   0  0  0  0  0  0  0  0  0  0  0  0
   21.0176   20.5781   20.5583 H   0  0  0  0  0  0  0  0  0  0  0  0
   21.1212   18.5715   19.7221 C   0  0  0  0  0  0  0  0  0  0  0  0
   22.0201   18.2860   20.2823 H   0  0  0  0  0  0  0  0  0  0  0  0
   20.4873   17.6823   19.6103 H   0  0  0  0  0  0  0  0  0  0  0  0
   21.4413   18.8860   18.7203 H   0  0  0  0  0  0  0  0  0  0  0  0
  1  2  1  0  0  0  0
  1  3  2  0  0  0  0
  1  4  1  0  0  0  0
  4  5  1  0  0  0  0
  4  6  1  0  0  0  0
  4  7  1  0  0  0  0
  7  8  1  0  0  0  0
  7  9  1  0  0  0  0
  7 10  1  0  0  0  0
 10 11  1  0  0  0  0
 10 12  1  0  0  0  0
 10 13  1  0  0  0  0
 13 14  1  0  0  0  0
 13 15  1  0  0  0  0
 13 16  1  0  0  0  0
 16 17  1  0  0  0  0
 16 18  1  0  0  0  0
 16 19  1  0  0  0  0
 19 20  1  0  0  0  0
 19 21  1  0  0  0  0
 19 22  1  0  0  0  0
 22 23  1  0  0  0  0
 22 24  1  0  0  0  0
 22 25  1  0  0  0  0
M  END
> <VConfSearch Rank>
845

> <Conf_Id>
101

> <Delta U+W>
1.534

> <U+W>
-50.095

> <U>
9.416

> <W>
-59.512

> <W(PB)>
-61.988

> <W(SA)>
2.476

> <Valence>
8.939

> <Coulomb>
-0.615

> <VdW>
1.092

> <VdW6>
-9.710

> <VdW12>
10.802

> <Bond>
0.216

> <Angle>
2.979

> <Pdih>
5.743

> <Idih>
0.000

> <Tether>
0.000

$$$$
VeraChem MOL file


 25 24  0  0  0  0  0  0  0  0999 V2000     
   20.8079   23.3237   23.2141 C   0  0  0  0  0  0  0  0  0  0  0  0
   20.0982   23.8278   24.0620 O   0  5  0  0  0  0  0  0  0  0  0  0
   21.8016   23.8585   22.7633 O   0  0  0  0  0  0  0  0  0  0  0  0
   20.4442   21.9339   22.7038 C   0  0  0  0  0  0  0  0  0  0  0  0
   20.7645   21.8613   21.6577 H   0  0  0  0  0  0  0  0  0  0  0  0
   19.3519   21.8505   22.7166 H   0  0  0  0  0  0  0  0  0  0  0  0
   21.0910   20.8000   23.5414 C   0  0  0  0  0  0  0  0  0  0  0  0
   22.1752   20.9723   23.5873 H   0  0  0  0  0  0  0  0  0  0  0  0
   20.7251   20.8524   24.5761 H   0  0  0  0  0  0  0  0  0  0  0  0
   20.8399   19.3843   22.9691 C   0  0  0  0  0  0  0  0  0  0  0  0
   21.4498   18.6745   23.5424 H   0  0  0  0  0  0  0  0  0  0  0  0
   21.1976   19.3371   21.9316 H   0  0  0  0  0  0  0  0  0  0  0  0
   19.3549   18.9497   23.0312 C   0  0  0  0  0  0  0  0  0  0  0  0
   18.9976   18.9961   24.0681 H   0  0  0  0  0  0  0  0  0  0  0  0
   18.7418   19.6625   22.4658 H   0  0  0  0  0  0  0  0  0  0  0  0
   19.0987   17.5375   22.4458 C   0  0  0  0  0  0  0  0  0  0  0  0
   19.3816   17.5362   21.3844 H   0  0  0  0  0  0  0  0  0  0  0  0
   18.0187   17.3386   22.4710 H   0  0  0  0  0  0  0  0  0  0  0  0
   19.8347   16.3762   23.1594 C   0  0  0  0  0  0  0  0  0  0  0  0
   19.5766   15.4362   22.6528 H   0  0  0  0  0  0  0  0  0  0  0  0
   20.9211   16.4901   23.0490 H   0  0  0  0  0  0  0  0  0  0  0  0
   19.4733   16.2490   24.6551 C   0  0  0  0  0  0  0  0  0  0  0  0
   18.3878   16.1582   24.7908 H   0  0  0  0  0  0  0  0  0  0  0  0
   19.9448   15.3583   25.0900 H   0  0  0  0  0  0  0  0  0  0  0  0
   19.8207   17.1204   25.2244 H   0  0  0  0  0  0  0  0  0  0  0  0
  1  2  1  0  0  0  0
  1  3  2  0  0  0  0
  1  4  1  0  0  0  0
  4  5  1  0  0  0  0
  4  6  1  0  0  0  0
  4  7  1  0  0  0  0
  7  8  1  0  0  0  0
  7  9  1  0  0  0  0
  7 10  1  0  0  0  0
 10 11  1  0  0  0  0
 10 12  1  0  0  0  0
 10 13  1  0  0  0  0
 13 14  1  0  0  0  0
 13 15  1  0  0  0  0
 13 16  1  0  0  0  0
 16 17  1  0  0  0  0
 16 18  1  0  0  0  0
 16 19  1  0  0  0  0
 19 20  1  0  0  0  0
 19 21  1  0  0  0  0
 19 22  1  0  0  0  0
 22 23  1  0  0  0  0
 22 24  1  0  0  0  0
 22 25  1  0  0  0  0
M  END
> <VConfSearch Rank>
846

> <Conf_Id>
75

> <Delta U+W>
1.014

> <U+W>
-50.615

> <U>
8.474

> <W>
-59.089

> <W(PB)>
-61.530

> <W(SA)>
2.441

> <Valence>
9.080

> <Coulomb>
-1.772

> <VdW>
1.165

> <VdW6>
-9.830

> <VdW12>
10.996

> <Bond>
0.240

> <Angle>
3.225

> <Pdih>
5.615

> <Idih>
0.001

> <Tether>
0.000

$$$$
VeraChem MOL file


 25 24  0  0  0  0  0  0  0  0999 V2000     
   23.5188   21.6606   23.1684 C   0  0  0  0  0  0  0  0  0  0  0  0
   23.8717   21.7688   22.0107 O   0  5  0  0  0  0  0  0  0  0  0  0
   23.7563   22.4892   24.0250 O   0  0  0  0  0  0  0  0  0  0  0  0
   22.7150   20.4270   23.5636 C   0  0  0  0  0  0  0  0  0  0  0  0
   22.9592   20.1801   24.6037 H   0  0  0  0  0  0  0  0  0  0  0  0
   23.0520   19.5878   22.9433 H   0  0  0  0  0  0  0  0  0  0  0  0
   21.1877   20.6284   23.4062 C   0  0  0  0  0  0  0  0  0  0  0  0
   20.8682   21.4799   24.0231 H   0  0  0  0  0  0  0  0  0  0  0  0
   20.9617   20.8878   22.3626 H   0  0  0  0  0  0  0  0  0  0  0  0
   20.3965   19.3656   23.8108 C   0  0  0  0  0  0  0  0  0  0  0  0
   20.6259   19.1099   24.8542 H   0  0  0  0  0  0  0  0  0  0  0  0
   20.7287   18.5184   23.1991 H   0  0  0  0  0  0  0  0  0  0  0  0
   18.8715   19.5739   23.6576 C   0  0  0  0  0  0  0  0  0  0  0  0
   18.5733   20.4079   24.3076 H   0  0  0  0  0  0  0  0  0  0  0  0
   18.6287   19.8834   22.6319 H   0  0  0  0  0  0  0  0  0  0  0  0
   18.0388   18.3259   24.0470 C   0  0  0  0  0  0  0  0  0  0  0  0
   17.1142   18.6698   24.5304 H   0  0  0  0  0  0  0  0  0  0  0  0
   18.5699   17.7348   24.8055 H   0  0  0  0  0  0  0  0  0  0  0  0
   17.6330   17.4221   22.8565 C   0  0  0  0  0  0  0  0  0  0  0  0
   16.9830   16.6204   23.2333 H   0  0  0  0  0  0  0  0  0  0  0  0
   17.0268   18.0001   22.1454 H   0  0  0  0  0  0  0  0  0  0  0  0
   18.8242   16.7834   22.1124 C   0  0  0  0  0  0  0  0  0  0  0  0
   19.4859   16.2532   22.8095 H   0  0  0  0  0  0  0  0  0  0  0  0
   18.4682   16.0608   21.3669 H   0  0  0  0  0  0  0  0  0  0  0  0
   19.4119   17.5427   21.5817 H   0  0  0  0  0  0  0  0  0  0  0  0
  1  2  1  0  0  0  0
  1  3  2  0  0  0  0
  1  4  1  0  0  0  0
  4  5  1  0  0  0  0
  4  6  1  0  0  0  0
  4  7  1  0  0  0  0
  7  8  1  0  0  0  0
  7  9  1  0  0  0  0
  7 10  1  0  0  0  0
 10 11  1  0  0  0  0
 10 12  1  0  0  0  0
 10 13  1  0  0  0  0
 13 14  1  0  0  0  0
 13 15  1  0  0  0  0
 13 16  1  0  0  0  0
 16 17  1  0  0  0  0
 16 18  1  0  0  0  0
 16 19  1  0  0  0  0
 19 20  1  0  0  0  0
 19 21  1  0  0  0  0
 19 22  1  0  0  0  0
 22 23  1  0  0  0  0
 22 24  1  0  0  0  0
 22 25  1  0  0  0  0
M  END
> <VConfSearch Rank>
847

> <Conf_Id>
125

> <Delta U+W>
2.314

> <U+W>
-49.315

> <U>
9.740

> <W>
-59.054

> <W(PB)>
-61.488

> <W(SA)>
2.433

> <Valence>
10.506

> <Coulomb>
-1.761

> <VdW>
0.994

> <VdW6>
-9.209

> <VdW12>
10.203

> <Bond>
0.193

> <Angle>
2.979

> <Pdih>
7.334

> <Idih>
0.001

> <Tether>
0.000

$$$$
VeraChem MOL file


 25 24  0  0  0  0  0  0  0  0999 V2000     
   18.5966   22.9325   23.0404 C   0  0  0  0  0  0  0  0  0  0  0  0
   18.2763   23.0729   21.8766 O   0  5  0  0  0  0  0  0  0  0  0  0
   18.5820   23.8333   23.8560 O   0  0  0  0  0  0  0  0  0  0  0  0
   19.0657   21.5558   23.4972 C   0  0  0  0  0  0  0  0  0  0  0  0
   18.5114   20.8070   22.9203 H   0  0  0  0  0  0  0  0  0  0  0  0
   18.7828   21.4318   24.5493 H   0  0  0  0  0  0  0  0  0  0  0  0
   20.5943   21.3563   23.3269 C   0  0  0  0  0  0  0  0  0  0  0  0
   20.8585   21.4363   22.2633 H   0  0  0  0  0  0  0  0  0  0  0  0
   21.1160   22.1770   23.8384 H   0  0  0  0  0  0  0  0  0  0  0  0
   21.1095   20.0120   23.8940 C   0  0  0  0  0  0  0  0  0  0  0  0
   20.8523   19.9393   24.9596 H   0  0  0  0  0  0  0  0  0  0  0  0
   22.2067   20.0085   23.8381 H   0  0  0  0  0  0  0  0  0  0  0  0
   20.5629   18.7769   23.1411 C   0  0  0  0  0  0  0  0  0  0  0  0
   19.4724   18.7340   23.2487 H   0  0  0  0  0  0  0  0  0  0  0  0
   20.7780   18.8760   22.0685 H   0  0  0  0  0  0  0  0  0  0  0  0
   21.1846   17.4647   23.6729 C   0  0  0  0  0  0  0  0  0  0  0  0
   20.9314   17.3391   24.7345 H   0  0  0  0  0  0  0  0  0  0  0  0
   22.2793   17.5405   23.6210 H   0  0  0  0  0  0  0  0  0  0  0  0
   20.7423   16.2103   22.8838 C   0  0  0  0  0  0  0  0  0  0  0  0
   20.9990   16.3302   21.8222 H   0  0  0  0  0  0  0  0  0  0  0  0
   21.3161   15.3460   23.2458 H   0  0  0  0  0  0  0  0  0  0  0  0
   19.2360   15.8997   23.0223 C   0  0  0  0  0  0  0  0  0  0  0  0
   18.6211   16.6854   22.5659 H   0  0  0  0  0  0  0  0  0  0  0  0
   18.9916   14.9541   22.5213 H   0  0  0  0  0  0  0  0  0  0  0  0
   18.9493   15.8068   24.0779 H   0  0  0  0  0  0  0  0  0  0  0  0
  1  2  1  0  0  0  0
  1  3  2  0  0  0  0
  1  4  1  0  0  0  0
  4  5  1  0  0  0  0
  4  6  1  0  0  0  0
  4  7  1  0  0  0  0
  7  8  1  0  0  0  0
  7  9  1  0  0  0  0
  7 10  1  0  0  0  0
 10 11  1  0  0  0  0
 10 12  1  0  0  0  0
 10 13  1  0  0  0  0
 13 14  1  0  0  0  0
 13 15  1  0  0  0  0
 13 16  1  0  0  0  0
 16 17  1  0  0  0  0
 16 18  1  0  0  0  0
 16 19  1  0  0  0  0
 19 20  1  0  0  0  0
 19 21  1  0  0  0  0
 19 22  1  0  0  0  0
 22 23  1  0  0  0  0
 22 24  1  0  0  0  0
 22 25  1  0  0  0  0
M  END
> <VConfSearch Rank>
848

> <Conf_Id>
4

> <Delta U+W>
0.189

> <U+W>
-51.441

> <U>
7.701

> <W>
-59.141

> <W(PB)>
-61.609

> <W(SA)>
2.467

> <Valence>
8.550

> <Coulomb>
-1.988

> <VdW>
1.139

> <VdW6>
-8.988

> <VdW12>
10.127

> <Bond>
0.191

> <Angle>
2.738

> <Pdih>
5.621

> <Idih>
0.001

> <Tether>
0.000

$$$$
VeraChem MOL file


 25 24  0  0  0  0  0  0  0  0999 V2000     
   22.5892   21.7503   21.3599 C   0  0  0  0  0  0  0  0  0  0  0  0
   22.2434   22.8680   21.6883 O   0  5  0  0  0  0  0  0  0  0  0  0
   23.5904   21.5188   20.7112 O   0  0  0  0  0  0  0  0  0  0  0  0
   21.7323   20.5711   21.8062 C   0  0  0  0  0  0  0  0  0  0  0  0
   21.8059   19.7885   21.0417 H   0  0  0  0  0  0  0  0  0  0  0  0
   20.6895   20.9072   21.8289 H   0  0  0  0  0  0  0  0  0  0  0  0
   22.1569   20.0107   23.1885 C   0  0  0  0  0  0  0  0  0  0  0  0
   23.2291   19.7725   23.1580 H   0  0  0  0  0  0  0  0  0  0  0  0
   22.0340   20.7897   23.9537 H   0  0  0  0  0  0  0  0  0  0  0  0
   21.3788   18.7402   23.6063 C   0  0  0  0  0  0  0  0  0  0  0  0
   21.8225   18.3492   24.5321 H   0  0  0  0  0  0  0  0  0  0  0  0
   21.5117   17.9600   22.8443 H   0  0  0  0  0  0  0  0  0  0  0  0
   19.8705   18.9907   23.8374 C   0  0  0  0  0  0  0  0  0  0  0  0
   19.7407   19.8053   24.5628 H   0  0  0  0  0  0  0  0  0  0  0  0
   19.4043   19.3165   22.8997 H   0  0  0  0  0  0  0  0  0  0  0  0
   19.1550   17.7209   24.3539 C   0  0  0  0  0  0  0  0  0  0  0  0
   19.6670   17.3642   25.2580 H   0  0  0  0  0  0  0  0  0  0  0  0
   19.2431   16.9179   23.6093 H   0  0  0  0  0  0  0  0  0  0  0  0
   17.6637   17.9500   24.6935 C   0  0  0  0  0  0  0  0  0  0  0  0
   17.2651   17.0394   25.1616 H   0  0  0  0  0  0  0  0  0  0  0  0
   17.5721   18.7491   25.4421 H   0  0  0  0  0  0  0  0  0  0  0  0
   16.8007   18.2927   23.4596 C   0  0  0  0  0  0  0  0  0  0  0  0
   16.9011   17.5227   22.6837 H   0  0  0  0  0  0  0  0  0  0  0  0
   15.7408   18.3556   23.7381 H   0  0  0  0  0  0  0  0  0  0  0  0
   17.0874   19.2588   23.0257 H   0  0  0  0  0  0  0  0  0  0  0  0
  1  2  1  0  0  0  0
  1  3  2  0  0  0  0
  1  4  1  0  0  0  0
  4  5  1  0  0  0  0
  4  6  1  0  0  0  0
  4  7  1  0  0  0  0
  7  8  1  0  0  0  0
  7  9  1  0  0  0  0
  7 10  1  0  0  0  0
 10 11  1  0  0  0  0
 10 12  1  0  0  0  0
 10 13  1  0  0  0  0
 13 14  1  0  0  0  0
 13 15  1  0  0  0  0
 13 16  1  0  0  0  0
 16 17  1  0  0  0  0
 16 18  1  0  0  0  0
 16 19  1  0  0  0  0
 19 20  1  0  0  0  0
 19 21  1  0  0  0  0
 19 22  1  0  0  0  0
 22 23  1  0  0  0  0
 22 24  1  0  0  0  0
 22 25  1  0  0  0  0
M  END
> <VConfSearch Rank>
849

> <Conf_Id>
17

> <Delta U+W>
0.219

> <U+W>
-51.411

> <U>
7.701

> <W>
-59.111

> <W(PB)>
-61.599

> <W(SA)>
2.488

> <Valence>
8.550

> <Coulomb>
-1.988

> <VdW>
1.139

> <VdW6>
-8.988

> <VdW12>
10.127

> <Bond>
0.191

> <Angle>
2.738

> <Pdih>
5.621

> <Idih>
0.001

> <Tether>
0.000

$$$$
VeraChem MOL file


 25 24  0  0  0  0  0  0  0  0999 V2000     
   21.3131   22.8738   23.4956 C   0  0  0  0  0  0  0  0  0  0  0  0
   22.0435   23.0774   22.5458 O   0  5  0  0  0  0  0  0  0  0  0  0
   21.6908   22.8911   24.6506 O   0  0  0  0  0  0  0  0  0  0  0  0
   19.8361   22.6002   23.2264 C   0  0  0  0  0  0  0  0  0  0  0  0
   19.5898   22.9657   22.2221 H   0  0  0  0  0  0  0  0  0  0  0  0
   19.2560   23.2035   23.9346 H   0  0  0  0  0  0  0  0  0  0  0  0
   19.4367   21.1085   23.3677 C   0  0  0  0  0  0  0  0  0  0  0  0
   19.7101   20.7610   24.3728 H   0  0  0  0  0  0  0  0  0  0  0  0
   18.3447   21.0223   23.2876 H   0  0  0  0  0  0  0  0  0  0  0  0
   20.1000   20.2138   22.2934 C   0  0  0  0  0  0  0  0  0  0  0  0
   21.1923   20.2377   22.4103 H   0  0  0  0  0  0  0  0  0  0  0  0
   19.8865   20.6311   21.2998 H   0  0  0  0  0  0  0  0  0  0  0  0
   19.6104   18.7465   22.3255 C   0  0  0  0  0  0  0  0  0  0  0  0
   18.5194   18.7195   22.1999 H   0  0  0  0  0  0  0  0  0  0  0  0
   20.0358   18.2191   21.4608 H   0  0  0  0  0  0  0  0  0  0  0  0
   20.0055   17.9936   23.6170 C   0  0  0  0  0  0  0  0  0  0  0  0
   19.5267   18.4631   24.4860 H   0  0  0  0  0  0  0  0  0  0  0  0
   21.0910   18.0695   23.7686 H   0  0  0  0  0  0  0  0  0  0  0  0
   19.5965   16.5066   23.5581 C   0  0  0  0  0  0  0  0  0  0  0  0
   18.5113   16.4272   23.4047 H   0  0  0  0  0  0  0  0  0  0  0  0
   20.0771   16.0235   22.6961 H   0  0  0  0  0  0  0  0  0  0  0  0
   19.9878   15.7581   24.8482 C   0  0  0  0  0  0  0  0  0  0  0  0
   19.4952   16.2005   25.7239 H   0  0  0  0  0  0  0  0  0  0  0  0
   19.6901   14.7031   24.7888 H   0  0  0  0  0  0  0  0  0  0  0  0
   21.0731   15.7954   25.0100 H   0  0  0  0  0  0  0  0  0  0  0  0
  1  2  1  0  0  0  0
  1  3  2  0  0  0  0
  1  4  1  0  0  0  0
  4  5  1  0  0  0  0
  4  6  1  0  0  0  0
  4  7  1  0  0  0  0
  7  8  1  0  0  0  0
  7  9  1  0  0  0  0
  7 10  1  0  0  0  0
 10 11  1  0  0  0  0
 10 12  1  0  0  0  0
 10 13  1  0  0  0  0
 13 14  1  0  0  0  0
 13 15  1  0  0  0  0
 13 16  1  0  0  0  0
 16 17  1  0  0  0  0
 16 18  1  0  0  0  0
 16 19  1  0  0  0  0
 19 20  1  0  0  0  0
 19 21  1  0  0  0  0
 19 22  1  0  0  0  0
 22 23  1  0  0  0  0
 22 24  1  0  0  0  0
 22 25  1  0  0  0  0
M  END
> <VConfSearch Rank>
850

> <Conf_Id>
142

> <Delta U+W>
0.593

> <U+W>
-51.037

> <U>
8.903

> <W>
-59.940

> <W(PB)>
-62.418

> <W(SA)>
2.478

> <Valence>
8.305

> <Coulomb>
-0.223

> <VdW>
0.821

> <VdW6>
-9.236

> <VdW12>
10.057

> <Bond>
0.173

> <Angle>
2.663

> <Pdih>
5.469

> <Idih>
0.001

> <Tether>
0.000

$$$$
VeraChem MOL file


 25 24  0  0  0  0  0  0  0  0999 V2000     
   17.6461   17.7973   25.3469 C   0  0  0  0  0  0  0  0  0  0  0  0
   16.7535   16.9795   25.2374 O   0  5  0  0  0  0  0  0  0  0  0  0
   18.3548   17.8910   26.3298 O   0  0  0  0  0  0  0  0  0  0  0  0
   17.8686   18.7762   24.1975 C   0  0  0  0  0  0  0  0  0  0  0  0
   18.4961   19.6008   24.5546 H   0  0  0  0  0  0  0  0  0  0  0  0
   16.8947   19.2128   23.9476 H   0  0  0  0  0  0  0  0  0  0  0  0
   18.4847   18.1315   22.9259 C   0  0  0  0  0  0  0  0  0  0  0  0
   17.7983   17.3574   22.5560 H   0  0  0  0  0  0  0  0  0  0  0  0
   18.5437   18.8855   22.1304 H   0  0  0  0  0  0  0  0  0  0  0  0
   19.8807   17.4925   23.1439 C   0  0  0  0  0  0  0  0  0  0  0  0
   20.2237   17.0618   22.1934 H   0  0  0  0  0  0  0  0  0  0  0  0
   19.7825   16.6477   23.8394 H   0  0  0  0  0  0  0  0  0  0  0  0
   20.9713   18.4522   23.6822 C   0  0  0  0  0  0  0  0  0  0  0  0
   20.6958   18.8057   24.6849 H   0  0  0  0  0  0  0  0  0  0  0  0
   21.9016   17.8817   23.8075 H   0  0  0  0  0  0  0  0  0  0  0  0
   21.2435   19.6603   22.7563 C   0  0  0  0  0  0  0  0  0  0  0  0
   20.3419   20.2817   22.6789 H   0  0  0  0  0  0  0  0  0  0  0  0
   21.4754   19.3021   21.7441 H   0  0  0  0  0  0  0  0  0  0  0  0
   22.4096   20.5266   23.2771 C   0  0  0  0  0  0  0  0  0  0  0  0
   22.1807   20.8838   24.2907 H   0  0  0  0  0  0  0  0  0  0  0  0
   23.3204   19.9166   23.3514 H   0  0  0  0  0  0  0  0  0  0  0  0
   22.6758   21.7342   22.3559 C   0  0  0  0  0  0  0  0  0  0  0  0
   21.7902   22.3798   22.2889 H   0  0  0  0  0  0  0  0  0  0  0  0
   23.5074   22.3386   22.7409 H   0  0  0  0  0  0  0  0  0  0  0  0
   22.9373   21.4045   21.3419 H   0  0  0  0  0  0  0  0  0  0  0  0
  1  2  1  0  0  0  0
  1  3  2  0  0  0  0
  1  4  1  0  0  0  0
  4  5  1  0  0  0  0
  4  6  1  0  0  0  0
  4  7  1  0  0  0  0
  7  8  1  0  0  0  0
  7  9  1  0  0  0  0
  7 10  1  0  0  0  0
 10 11  1  0  0  0  0
 10 12  1  0  0  0  0
 10 13  1  0  0  0  0
 13 14  1  0  0  0  0
 13 15  1  0  0  0  0
 13 16  1  0  0  0  0
 16 17  1  0  0  0  0
 16 18  1  0  0  0  0
 16 19  1  0  0  0  0
 19 20  1  0  0  0  0
 19 21  1  0  0  0  0
 19 22  1  0  0  0  0
 22 23  1  0  0  0  0
 22 24  1  0  0  0  0
 22 25  1  0  0  0  0
M  END
> <VConfSearch Rank>
851

> <Conf_Id>
135

> <Delta U+W>
1.314

> <U+W>
-50.316

> <U>
9.773

> <W>
-60.088

> <W(PB)>
-62.535

> <W(SA)>
2.447

> <Valence>
8.741

> <Coulomb>
0.479

> <VdW>
0.552

> <VdW6>
-10.627

> <VdW12>
11.179

> <Bond>
0.227

> <Angle>
3.155

> <Pdih>
5.358

> <Idih>
0.001

> <Tether>
0.000

$$$$
VeraChem MOL file


 25 24  0  0  0  0  0  0  0  0999 V2000     
   23.4141   18.1358   25.6227 C   0  0  0  0  0  0  0  0  0  0  0  0
   23.7763   16.9869   25.4631 O   0  5  0  0  0  0  0  0  0  0  0  0
   24.1180   19.0030   26.1016 O   0  0  0  0  0  0  0  0  0  0  0  0
   22.0067   18.5158   25.1766 C   0  0  0  0  0  0  0  0  0  0  0  0
   21.6441   19.3118   25.8379 H   0  0  0  0  0  0  0  0  0  0  0  0
   21.3621   17.6439   25.3329 H   0  0  0  0  0  0  0  0  0  0  0  0
   21.9523   18.9821   23.6983 C   0  0  0  0  0  0  0  0  0  0  0  0
   22.6821   19.7918   23.5597 H   0  0  0  0  0  0  0  0  0  0  0  0
   22.2717   18.1616   23.0411 H   0  0  0  0  0  0  0  0  0  0  0  0
   20.5593   19.4935   23.2589 C   0  0  0  0  0  0  0  0  0  0  0  0
   20.6640   19.9398   22.2620 H   0  0  0  0  0  0  0  0  0  0  0  0
   20.2309   20.2966   23.9325 H   0  0  0  0  0  0  0  0  0  0  0  0
   19.4840   18.3823   23.2024 C   0  0  0  0  0  0  0  0  0  0  0  0
   19.7930   17.6126   22.4823 H   0  0  0  0  0  0  0  0  0  0  0  0
   19.4194   17.8839   24.1776 H   0  0  0  0  0  0  0  0  0  0  0  0
   18.0659   18.8890   22.8367 C   0  0  0  0  0  0  0  0  0  0  0  0
   17.7081   19.5904   23.6027 H   0  0  0  0  0  0  0  0  0  0  0  0
   17.3860   18.0272   22.8814 H   0  0  0  0  0  0  0  0  0  0  0  0
   17.9458   19.5244   21.4289 C   0  0  0  0  0  0  0  0  0  0  0  0
   18.7128   19.1135   20.7581 H   0  0  0  0  0  0  0  0  0  0  0  0
   16.9772   19.2389   20.9956 H   0  0  0  0  0  0  0  0  0  0  0  0
   18.0231   21.0674   21.4502 C   0  0  0  0  0  0  0  0  0  0  0  0
   18.9732   21.4229   21.8650 H   0  0  0  0  0  0  0  0  0  0  0  0
   17.9287   21.4709   20.4338 H   0  0  0  0  0  0  0  0  0  0  0  0
   17.2108   21.4901   22.0557 H   0  0  0  0  0  0  0  0  0  0  0  0
  1  2  1  0  0  0  0
  1  3  2  0  0  0  0
  1  4  1  0  0  0  0
  4  5  1  0  0  0  0
  4  6  1  0  0  0  0
  4  7  1  0  0  0  0
  7  8  1  0  0  0  0
  7  9  1  0  0  0  0
  7 10  1  0  0  0  0
 10 11  1  0  0  0  0
 10 12  1  0  0  0  0
 10 13  1  0  0  0  0
 13 14  1  0  0  0  0
 13 15  1  0  0  0  0
 13 16  1  0  0  0  0
 16 17  1  0  0  0  0
 16 18  1  0  0  0  0
 16 19  1  0  0  0  0
 19 20  1  0  0  0  0
 19 21  1  0  0  0  0
 19 22  1  0  0  0  0
 22 23  1  0  0  0  0
 22 24  1  0  0  0  0
 22 25  1  0  0  0  0
M  END
> <VConfSearch Rank>
852

> <Conf_Id>
19

> <Delta U+W>
3.222

> <U+W>
-48.407

> <U>
10.617

> <W>
-59.025

> <W(PB)>
-61.462

> <W(SA)>
2.437

> <Valence>
11.188

> <Coulomb>
-1.778

> <VdW>
1.208

> <VdW6>
-9.786

> <VdW12>
10.993

> <Bond>
0.241

> <Angle>
3.294

> <Pdih>
7.653

> <Idih>
0.001

> <Tether>
0.000

$$$$
VeraChem MOL file


 25 24  0  0  0  0  0  0  0  0999 V2000     
   21.2391   21.8763   20.2144 C   0  0  0  0  0  0  0  0  0  0  0  0
   22.2513   21.5438   19.6298 O   0  5  0  0  0  0  0  0  0  0  0  0
   20.8011   23.0099   20.2104 O   0  0  0  0  0  0  0  0  0  0  0  0
   20.4899   20.8180   21.0162 C   0  0  0  0  0  0  0  0  0  0  0  0
   20.6098   19.8611   20.4965 H   0  0  0  0  0  0  0  0  0  0  0  0
   19.4226   21.0686   20.9954 H   0  0  0  0  0  0  0  0  0  0  0  0
   20.9866   20.7139   22.4818 C   0  0  0  0  0  0  0  0  0  0  0  0
   22.0441   20.4155   22.4923 H   0  0  0  0  0  0  0  0  0  0  0  0
   20.9423   21.7125   22.9381 H   0  0  0  0  0  0  0  0  0  0  0  0
   20.1581   19.7376   23.3509 C   0  0  0  0  0  0  0  0  0  0  0  0
   19.0978   20.0228   23.3188 H   0  0  0  0  0  0  0  0  0  0  0  0
   20.4854   19.8532   24.3918 H   0  0  0  0  0  0  0  0  0  0  0  0
   20.3165   18.2555   22.9352 C   0  0  0  0  0  0  0  0  0  0  0  0
   20.0558   18.1414   21.8757 H   0  0  0  0  0  0  0  0  0  0  0  0
   21.3711   17.9622   23.0269 H   0  0  0  0  0  0  0  0  0  0  0  0
   19.4366   17.2710   23.7463 C   0  0  0  0  0  0  0  0  0  0  0  0
   19.5930   16.2673   23.3280 H   0  0  0  0  0  0  0  0  0  0  0  0
   18.3735   17.4977   23.5864 H   0  0  0  0  0  0  0  0  0  0  0  0
   19.7514   17.2153   25.2622 C   0  0  0  0  0  0  0  0  0  0  0  0
   19.6530   16.1756   25.6038 H   0  0  0  0  0  0  0  0  0  0  0  0
   20.7971   17.4987   25.4453 H   0  0  0  0  0  0  0  0  0  0  0  0
   18.8022   18.0891   26.1123 C   0  0  0  0  0  0  0  0  0  0  0  0
   17.7612   17.7610   25.9958 H   0  0  0  0  0  0  0  0  0  0  0  0
   19.0606   18.0138   27.1764 H   0  0  0  0  0  0  0  0  0  0  0  0
   18.8566   19.1463   25.8283 H   0  0  0  0  0  0  0  0  0  0  0  0
  1  2  1  0  0  0  0
  1  3  2  0  0  0  0
  1  4  1  0  0  0  0
  4  5  1  0  0  0  0
  4  6  1  0  0  0  0
  4  7  1  0  0  0  0
  7  8  1  0  0  0  0
  7  9  1  0  0  0  0
  7 10  1  0  0  0  0
 10 11  1  0  0  0  0
 10 12  1  0  0  0  0
 10 13  1  0  0  0  0
 13 14  1  0  0  0  0
 13 15  1  0  0  0  0
 13 16  1  0  0  0  0
 16 17  1  0  0  0  0
 16 18  1  0  0  0  0
 16 19  1  0  0  0  0
 19 20  1  0  0  0  0
 19 21  1  0  0  0  0
 19 22  1  0  0  0  0
 22 23  1  0  0  0  0
 22 24  1  0  0  0  0
 22 25  1  0  0  0  0
M  END
> <VConfSearch Rank>
853

> <Conf_Id>
20

> <Delta U+W>
3.224

> <U+W>
-48.406

> <U>
10.617

> <W>
-59.023

> <W(PB)>
-61.467

> <W(SA)>
2.444

> <Valence>
11.188

> <Coulomb>
-1.778

> <VdW>
1.208

> <VdW6>
-9.786

> <VdW12>
10.993

> <Bond>
0.241

> <Angle>
3.294

> <Pdih>
7.653

> <Idih>
0.001

> <Tether>
0.000

$$$$
VeraChem MOL file


 25 24  0  0  0  0  0  0  0  0999 V2000     
   19.4401   18.0873   20.6240 C   0  0  0  0  0  0  0  0  0  0  0  0
   20.2479   17.1881   20.4949 O   0  5  0  0  0  0  0  0  0  0  0  0
   19.5813   19.1910   20.1350 O   0  0  0  0  0  0  0  0  0  0  0  0
   18.1477   17.7971   21.3850 C   0  0  0  0  0  0  0  0  0  0  0  0
   17.6199   17.0256   20.8126 H   0  0  0  0  0  0  0  0  0  0  0  0
   17.5137   18.6917   21.3648 H   0  0  0  0  0  0  0  0  0  0  0  0
   18.3355   17.3028   22.8470 C   0  0  0  0  0  0  0  0  0  0  0  0
   17.4129   16.7913   23.1530 H   0  0  0  0  0  0  0  0  0  0  0  0
   19.1289   16.5436   22.8867 H   0  0  0  0  0  0  0  0  0  0  0  0
   18.6192   18.4217   23.8797 C   0  0  0  0  0  0  0  0  0  0  0  0
   18.5810   17.9778   24.8839 H   0  0  0  0  0  0  0  0  0  0  0  0
   17.8166   19.1709   23.8430 H   0  0  0  0  0  0  0  0  0  0  0  0
   19.9872   19.1169   23.6959 C   0  0  0  0  0  0  0  0  0  0  0  0
   20.7799   18.3592   23.6279 H   0  0  0  0  0  0  0  0  0  0  0  0
   19.9966   19.6777   22.7529 H   0  0  0  0  0  0  0  0  0  0  0  0
   20.2960   20.0862   24.8577 C   0  0  0  0  0  0  0  0  0  0  0  0
   20.2976   19.5338   25.8073 H   0  0  0  0  0  0  0  0  0  0  0  0
   19.4999   20.8402   24.9272 H   0  0  0  0  0  0  0  0  0  0  0  0
   21.6567   20.7895   24.6693 C   0  0  0  0  0  0  0  0  0  0  0  0
   22.4554   20.0379   24.6002 H   0  0  0  0  0  0  0  0  0  0  0  0
   21.6582   21.3446   23.7210 H   0  0  0  0  0  0  0  0  0  0  0  0
   21.9621   21.7571   25.8305 C   0  0  0  0  0  0  0  0  0  0  0  0
   21.9977   21.2221   26.7885 H   0  0  0  0  0  0  0  0  0  0  0  0
   22.9324   22.2478   25.6800 H   0  0  0  0  0  0  0  0  0  0  0  0
   21.1945   22.5387   25.9025 H   0  0  0  0  0  0  0  0  0  0  0  0
  1  2  1  0  0  0  0
  1  3  2  0  0  0  0
  1  4  1  0  0  0  0
  4  5  1  0  0  0  0
  4  6  1  0  0  0  0
  4  7  1  0  0  0  0
  7  8  1  0  0  0  0
  7  9  1  0  0  0  0
  7 10  1  0  0  0  0
 10 11  1  0  0  0  0
 10 12  1  0  0  0  0
 10 13  1  0  0  0  0
 13 14  1  0  0  0  0
 13 15  1  0  0  0  0
 13 16  1  0  0  0  0
 16 17  1  0  0  0  0
 16 18  1  0  0  0  0
 16 19  1  0  0  0  0
 19 20  1  0  0  0  0
 19 21  1  0  0  0  0
 19 22  1  0  0  0  0
 22 23  1  0  0  0  0
 22 24  1  0  0  0  0
 22 25  1  0  0  0  0
M  END
> <VConfSearch Rank>
854

> <Conf_Id>
24

> <Delta U+W>
1.784

> <U+W>
-49.846

> <U>
10.904

> <W>
-60.749

> <W(PB)>
-63.220

> <W(SA)>
2.471

> <Valence>
9.445

> <Coulomb>
0.780

> <VdW>
0.679

> <VdW6>
-10.008

> <VdW12>
10.687

> <Bond>
0.201

> <Angle>
3.198

> <Pdih>
6.039

> <Idih>
0.006

> <Tether>
0.000

$$$$
VeraChem MOL file


 25 24  0  0  0  0  0  0  0  0999 V2000     
   19.5615   17.5683   26.3788 C   0  0  0  0  0  0  0  0  0  0  0  0
   19.7049   18.4236   27.2306 O   0  5  0  0  0  0  0  0  0  0  0  0
   18.4759   17.1904   25.9840 O   0  0  0  0  0  0  0  0  0  0  0  0
   20.8082   16.8838   25.8216 C   0  0  0  0  0  0  0  0  0  0  0  0
   20.5011   16.1097   25.1079 H   0  0  0  0  0  0  0  0  0  0  0  0
   21.2773   16.3643   26.6651 H   0  0  0  0  0  0  0  0  0  0  0  0
   21.8514   17.8343   25.1694 C   0  0  0  0  0  0  0  0  0  0  0  0
   21.9991   18.7198   25.8033 H   0  0  0  0  0  0  0  0  0  0  0  0
   22.8182   17.3135   25.1486 H   0  0  0  0  0  0  0  0  0  0  0  0
   21.5183   18.2684   23.7204 C   0  0  0  0  0  0  0  0  0  0  0  0
   21.3838   17.3790   23.0897 H   0  0  0  0  0  0  0  0  0  0  0  0
   22.3874   18.8049   23.3158 H   0  0  0  0  0  0  0  0  0  0  0  0
   20.2750   19.1792   23.6054 C   0  0  0  0  0  0  0  0  0  0  0  0
   19.3741   18.6167   23.8812 H   0  0  0  0  0  0  0  0  0  0  0  0
   20.3627   20.0143   24.3138 H   0  0  0  0  0  0  0  0  0  0  0  0
   20.1016   19.7310   22.1736 C   0  0  0  0  0  0  0  0  0  0  0  0
   20.0190   18.8945   21.4661 H   0  0  0  0  0  0  0  0  0  0  0  0
   20.9949   20.3037   21.8892 H   0  0  0  0  0  0  0  0  0  0  0  0
   18.8540   20.6314   22.0549 C   0  0  0  0  0  0  0  0  0  0  0  0
   17.9579   20.0611   22.3369 H   0  0  0  0  0  0  0  0  0  0  0  0
   18.9338   21.4695   22.7609 H   0  0  0  0  0  0  0  0  0  0  0  0
   18.6832   21.1805   20.6242 C   0  0  0  0  0  0  0  0  0  0  0  0
   18.5693   20.3627   19.9006 H   0  0  0  0  0  0  0  0  0  0  0  0
   17.7919   21.8179   20.5582 H   0  0  0  0  0  0  0  0  0  0  0  0
   19.5526   21.7819   20.3279 H   0  0  0  0  0  0  0  0  0  0  0  0
  1  2  1  0  0  0  0
  1  3  2  0  0  0  0
  1  4  1  0  0  0  0
  4  5  1  0  0  0  0
  4  6  1  0  0  0  0
  4  7  1  0  0  0  0
  7  8  1  0  0  0  0
  7  9  1  0  0  0  0
  7 10  1  0  0  0  0
 10 11  1  0  0  0  0
 10 12  1  0  0  0  0
 10 13  1  0  0  0  0
 13 14  1  0  0  0  0
 13 15  1  0  0  0  0
 13 16  1  0  0  0  0
 16 17  1  0  0  0  0
 16 18  1  0  0  0  0
 16 19  1  0  0  0  0
 19 20  1  0  0  0  0
 19 21  1  0  0  0  0
 19 22  1  0  0  0  0
 22 23  1  0  0  0  0
 22 24  1  0  0  0  0
 22 25  1  0  0  0  0
M  END
> <VConfSearch Rank>
855

> <Conf_Id>
9

> <Delta U+W>
1.764

> <U+W>
-49.865

> <U>
10.902

> <W>
-60.768

> <W(PB)>
-63.223

> <W(SA)>
2.456

> <Valence>
9.445

> <Coulomb>
0.778

> <VdW>
0.679

> <VdW6>
-10.007

> <VdW12>
10.687

> <Bond>
0.201

> <Angle>
3.198

> <Pdih>
6.040

> <Idih>
0.006

> <Tether>
0.000

$$$$
VeraChem MOL file


 25 24  0  0  0  0  0  0  0  0999 V2000     
   16.9127   17.2406   24.1242 C   0  0  0  0  0  0  0  0  0  0  0  0
   16.5994   18.0097   25.0114 O   0  5  0  0  0  0  0  0  0  0  0  0
   16.1465   16.4401   23.6254 O   0  0  0  0  0  0  0  0  0  0  0  0
   18.3405   17.2970   23.5933 C   0  0  0  0  0  0  0  0  0  0  0  0
   18.6289   16.2832   23.2910 H   0  0  0  0  0  0  0  0  0  0  0  0
   18.9951   17.5806   24.4231 H   0  0  0  0  0  0  0  0  0  0  0  0
   18.4973   18.2732   22.3974 C   0  0  0  0  0  0  0  0  0  0  0  0
   17.8251   17.9360   21.5962 H   0  0  0  0  0  0  0  0  0  0  0  0
   18.1541   19.2776   22.6813 H   0  0  0  0  0  0  0  0  0  0  0  0
   19.9412   18.3379   21.8377 C   0  0  0  0  0  0  0  0  0  0  0  0
   19.8794   18.4745   20.7494 H   0  0  0  0  0  0  0  0  0  0  0  0
   20.4525   17.3774   21.9890 H   0  0  0  0  0  0  0  0  0  0  0  0
   20.8024   19.4953   22.4030 C   0  0  0  0  0  0  0  0  0  0  0  0
   21.7675   19.4951   21.8784 H   0  0  0  0  0  0  0  0  0  0  0  0
   20.3197   20.4515   22.1620 H   0  0  0  0  0  0  0  0  0  0  0  0
   21.0595   19.4104   23.9261 C   0  0  0  0  0  0  0  0  0  0  0  0
   21.3979   18.3962   24.1777 H   0  0  0  0  0  0  0  0  0  0  0  0
   20.1211   19.5777   24.4708 H   0  0  0  0  0  0  0  0  0  0  0  0
   22.1180   20.4214   24.4251 C   0  0  0  0  0  0  0  0  0  0  0  0
   22.3135   20.2313   25.4894 H   0  0  0  0  0  0  0  0  0  0  0  0
   23.0685   20.2531   23.9003 H   0  0  0  0  0  0  0  0  0  0  0  0
   21.6836   21.8932   24.2533 C   0  0  0  0  0  0  0  0  0  0  0  0
   20.7219   22.0790   24.7490 H   0  0  0  0  0  0  0  0  0  0  0  0
   22.4281   22.5677   24.6956 H   0  0  0  0  0  0  0  0  0  0  0  0
   21.5818   22.1590   23.1937 H   0  0  0  0  0  0  0  0  0  0  0  0
  1  2  1  0  0  0  0
  1  3  2  0  0  0  0
  1  4  1  0  0  0  0
  4  5  1  0  0  0  0
  4  6  1  0  0  0  0
  4  7  1  0  0  0  0
  7  8  1  0  0  0  0
  7  9  1  0  0  0  0
  7 10  1  0  0  0  0
 10 11  1  0  0  0  0
 10 12  1  0  0  0  0
 10 13  1  0  0  0  0
 13 14  1  0  0  0  0
 13 15  1  0  0  0  0
 13 16  1  0  0  0  0
 16 17  1  0  0  0  0
 16 18  1  0  0  0  0
 16 19  1  0  0  0  0
 19 20  1  0  0  0  0
 19 21  1  0  0  0  0
 19 22  1  0  0  0  0
 22 23  1  0  0  0  0
 22 24  1  0  0  0  0
 22 25  1  0  0  0  0
M  END
> <VConfSearch Rank>
856

> <Conf_Id>
89

> <Delta U+W>
2.903

> <U+W>
-48.726

> <U>
10.996

> <W>
-59.723

> <W(PB)>
-62.151

> <W(SA)>
2.428

> <Valence>
10.985

> <Coulomb>
-0.995

> <VdW>
1.006

> <VdW6>
-10.062

> <VdW12>
11.069

> <Bond>
0.238

> <Angle>
3.202

> <Pdih>
7.544

> <Idih>
0.001

> <Tether>
0.000

$$$$
VeraChem MOL file


 25 24  0  0  0  0  0  0  0  0999 V2000     
   22.2619   16.5213   22.4713 C   0  0  0  0  0  0  0  0  0  0  0  0
   22.2920   15.8748   23.5001 O   0  5  0  0  0  0  0  0  0  0  0  0
   21.8083   16.0976   21.4262 O   0  0  0  0  0  0  0  0  0  0  0  0
   22.8860   17.9155   22.4788 C   0  0  0  0  0  0  0  0  0  0  0  0
   23.7427   17.8722   21.7963 H   0  0  0  0  0  0  0  0  0  0  0  0
   23.2908   18.1200   23.4773 H   0  0  0  0  0  0  0  0  0  0  0  0
   21.9424   19.0680   22.0328 C   0  0  0  0  0  0  0  0  0  0  0  0
   22.5682   19.9114   21.7114 H   0  0  0  0  0  0  0  0  0  0  0  0
   21.3698   18.7625   21.1460 H   0  0  0  0  0  0  0  0  0  0  0  0
   20.9823   19.5875   23.1320 C   0  0  0  0  0  0  0  0  0  0  0  0
   20.5016   20.4968   22.7503 H   0  0  0  0  0  0  0  0  0  0  0  0
   21.5612   19.8912   24.0147 H   0  0  0  0  0  0  0  0  0  0  0  0
   19.8930   18.5698   23.5495 C   0  0  0  0  0  0  0  0  0  0  0  0
   19.3512   18.2168   22.6614 H   0  0  0  0  0  0  0  0  0  0  0  0
   20.3728   17.6887   23.9927 H   0  0  0  0  0  0  0  0  0  0  0  0
   18.8878   19.1299   24.5845 C   0  0  0  0  0  0  0  0  0  0  0  0
   19.4332   19.5123   25.4581 H   0  0  0  0  0  0  0  0  0  0  0  0
   18.2661   18.2996   24.9464 H   0  0  0  0  0  0  0  0  0  0  0  0
   17.9646   20.2333   24.0193 C   0  0  0  0  0  0  0  0  0  0  0  0
   18.5556   21.1105   23.7259 H   0  0  0  0  0  0  0  0  0  0  0  0
   17.4619   19.8676   23.1134 H   0  0  0  0  0  0  0  0  0  0  0  0
   16.9051   20.6675   25.0523 C   0  0  0  0  0  0  0  0  0  0  0  0
   17.3806   21.0631   25.9594 H   0  0  0  0  0  0  0  0  0  0  0  0
   16.2598   21.4528   24.6378 H   0  0  0  0  0  0  0  0  0  0  0  0
   16.2669   19.8219   25.3405 H   0  0  0  0  0  0  0  0  0  0  0  0
  1  2  1  0  0  0  0
  1  3  2  0  0  0  0
  1  4  1  0  0  0  0
  4  5  1  0  0  0  0
  4  6  1  0  0  0  0
  4  7  1  0  0  0  0
  7  8  1  0  0  0  0
  7  9  1  0  0  0  0
  7 10  1  0  0  0  0
 10 11  1  0  0  0  0
 10 12  1  0  0  0  0
 10 13  1  0  0  0  0
 13 14  1  0  0  0  0
 13 15  1  0  0  0  0
 13 16  1  0  0  0  0
 16 17  1  0  0  0  0
 16 18  1  0  0  0  0
 16 19  1  0  0  0  0
 19 20  1  0  0  0  0
 19 21  1  0  0  0  0
 19 22  1  0  0  0  0
 22 23  1  0  0  0  0
 22 24  1  0  0  0  0
 22 25  1  0  0  0  0
M  END
> <VConfSearch Rank>
857

> <Conf_Id>
114

> <Delta U+W>
2.758

> <U+W>
-48.871

> <U>
11.422

> <W>
-60.293

> <W(PB)>
-62.719

> <W(SA)>
2.425

> <Valence>
10.135

> <Coulomb>
0.369

> <VdW>
0.918

> <VdW6>
-10.482

> <VdW12>
11.400

> <Bond>
0.245

> <Angle>
3.539

> <Pdih>
6.346

> <Idih>
0.006

> <Tether>
0.000

$$$$
VeraChem MOL file


 25 24  0  0  0  0  0  0  0  0999 V2000     
   22.7858   16.4650   22.3342 C   0  0  0  0  0  0  0  0  0  0  0  0
   22.1690   15.4228   22.2316 O   0  5  0  0  0  0  0  0  0  0  0  0
   23.3651   16.9979   21.4082 O   0  0  0  0  0  0  0  0  0  0  0  0
   22.8553   17.1322   23.7050 C   0  0  0  0  0  0  0  0  0  0  0  0
   23.8966   17.4318   23.8719 H   0  0  0  0  0  0  0  0  0  0  0  0
   22.6135   16.3850   24.4705 H   0  0  0  0  0  0  0  0  0  0  0  0
   21.9305   18.3685   23.8505 C   0  0  0  0  0  0  0  0  0  0  0  0
   22.1388   18.8586   24.8111 H   0  0  0  0  0  0  0  0  0  0  0  0
   22.1798   19.0924   23.0636 H   0  0  0  0  0  0  0  0  0  0  0  0
   20.4299   17.9963   23.7814 C   0  0  0  0  0  0  0  0  0  0  0  0
   20.2263   17.2035   24.5141 H   0  0  0  0  0  0  0  0  0  0  0  0
   20.1948   17.5727   22.7951 H   0  0  0  0  0  0  0  0  0  0  0  0
   19.4829   19.1854   24.0707 C   0  0  0  0  0  0  0  0  0  0  0  0
   18.4604   18.7939   24.1437 H   0  0  0  0  0  0  0  0  0  0  0  0
   19.7223   19.6164   25.0523 H   0  0  0  0  0  0  0  0  0  0  0  0
   19.5333   20.2912   22.9875 C   0  0  0  0  0  0  0  0  0  0  0  0
   19.2974   19.8589   22.0056 H   0  0  0  0  0  0  0  0  0  0  0  0
   20.5543   20.6868   22.9165 H   0  0  0  0  0  0  0  0  0  0  0  0
   18.5807   21.4757   23.2737 C   0  0  0  0  0  0  0  0  0  0  0  0
   18.8062   21.9033   24.2604 H   0  0  0  0  0  0  0  0  0  0  0  0
   18.7771   22.2695   22.5399 H   0  0  0  0  0  0  0  0  0  0  0  0
   17.0861   21.0937   23.2011 C   0  0  0  0  0  0  0  0  0  0  0  0
   16.4565   21.9856   23.3155 H   0  0  0  0  0  0  0  0  0  0  0  0
   16.8451   20.6319   22.2348 H   0  0  0  0  0  0  0  0  0  0  0  0
   16.8119   20.3906   23.9972 H   0  0  0  0  0  0  0  0  0  0  0  0
  1  2  1  0  0  0  0
  1  3  2  0  0  0  0
  1  4  1  0  0  0  0
  4  5  1  0  0  0  0
  4  6  1  0  0  0  0
  4  7  1  0  0  0  0
  7  8  1  0  0  0  0
  7  9  1  0  0  0  0
  7 10  1  0  0  0  0
 10 11  1  0  0  0  0
 10 12  1  0  0  0  0
 10 13  1  0  0  0  0
 13 14  1  0  0  0  0
 13 15  1  0  0  0  0
 13 16  1  0  0  0  0
 16 17  1  0  0  0  0
 16 18  1  0  0  0  0
 16 19  1  0  0  0  0
 19 20  1  0  0  0  0
 19 21  1  0  0  0  0
 19 22  1  0  0  0  0
 22 23  1  0  0  0  0
 22 24  1  0  0  0  0
 22 25  1  0  0  0  0
M  END
> <VConfSearch Rank>
858

> <Conf_Id>
87

> <Delta U+W>
1.453

> <U+W>
-50.176

> <U>
9.763

> <W>
-59.940

> <W(PB)>
-62.392

> <W(SA)>
2.452

> <Valence>
8.883

> <Coulomb>
-0.122

> <VdW>
1.003

> <VdW6>
-9.782

> <VdW12>
10.785

> <Bond>
0.212

> <Angle>
2.940

> <Pdih>
5.730

> <Idih>
0.001

> <Tether>
0.000

$$$$
VeraChem MOL file


 25 24  0  0  0  0  0  0  0  0999 V2000     
   17.6885   22.0374   22.1496 C   0  0  0  0  0  0  0  0  0  0  0  0
   18.4668   22.7747   21.5775 O   0  5  0  0  0  0  0  0  0  0  0  0
   16.5232   21.9093   21.8293 O   0  0  0  0  0  0  0  0  0  0  0  0
   18.2072   21.2135   23.3227 C   0  0  0  0  0  0  0  0  0  0  0  0
   17.3868   21.0870   24.0393 H   0  0  0  0  0  0  0  0  0  0  0  0
   18.9910   21.7925   23.8256 H   0  0  0  0  0  0  0  0  0  0  0  0
   18.7582   19.8323   22.8905 C   0  0  0  0  0  0  0  0  0  0  0  0
   17.9652   19.2676   22.3813 H   0  0  0  0  0  0  0  0  0  0  0  0
   19.5635   19.9843   22.1597 H   0  0  0  0  0  0  0  0  0  0  0  0
   19.2837   19.0211   24.0973 C   0  0  0  0  0  0  0  0  0  0  0  0
   18.4856   18.9393   24.8477 H   0  0  0  0  0  0  0  0  0  0  0  0
   20.1034   19.5665   24.5832 H   0  0  0  0  0  0  0  0  0  0  0  0
   19.7500   17.5917   23.7235 C   0  0  0  0  0  0  0  0  0  0  0  0
   20.0498   17.0657   24.6393 H   0  0  0  0  0  0  0  0  0  0  0  0
   18.8921   17.0318   23.3271 H   0  0  0  0  0  0  0  0  0  0  0  0
   20.9066   17.5206   22.6915 C   0  0  0  0  0  0  0  0  0  0  0  0
   20.5533   17.8983   21.7231 H   0  0  0  0  0  0  0  0  0  0  0  0
   21.1603   16.4653   22.5229 H   0  0  0  0  0  0  0  0  0  0  0  0
   22.1932   18.2851   23.0892 C   0  0  0  0  0  0  0  0  0  0  0  0
   22.9257   18.1845   22.2766 H   0  0  0  0  0  0  0  0  0  0  0  0
   21.9826   19.3593   23.1768 H   0  0  0  0  0  0  0  0  0  0  0  0
   22.8291   17.7698   24.3984 C   0  0  0  0  0  0  0  0  0  0  0  0
   23.0332   16.6929   24.3386 H   0  0  0  0  0  0  0  0  0  0  0  0
   23.7789   18.2844   24.5929 H   0  0  0  0  0  0  0  0  0  0  0  0
   22.1713   17.9487   25.2582 H   0  0  0  0  0  0  0  0  0  0  0  0
  1  2  1  0  0  0  0
  1  3  2  0  0  0  0
  1  4  1  0  0  0  0
  4  5  1  0  0  0  0
  4  6  1  0  0  0  0
  4  7  1  0  0  0  0
  7  8  1  0  0  0  0
  7  9  1  0  0  0  0
  7 10  1  0  0  0  0
 10 11  1  0  0  0  0
 10 12  1  0  0  0  0
 10 13  1  0  0  0  0
 13 14  1  0  0  0  0
 13 15  1  0  0  0  0
 13 16  1  0  0  0  0
 16 17  1  0  0  0  0
 16 18  1  0  0  0  0
 16 19  1  0  0  0  0
 19 20  1  0  0  0  0
 19 21  1  0  0  0  0
 19 22  1  0  0  0  0
 22 23  1  0  0  0  0
 22 24  1  0  0  0  0
 22 25  1  0  0  0  0
M  END
> <VConfSearch Rank>
859

> <Conf_Id>
29

> <Delta U+W>
0.850

> <U+W>
-50.780

> <U>
8.646

> <W>
-59.426

> <W(PB)>
-61.868

> <W(SA)>
2.442

> <Valence>
8.924

> <Coulomb>
-1.171

> <VdW>
0.894

> <VdW6>
-10.223

> <VdW12>
11.117

> <Bond>
0.231

> <Angle>
3.232

> <Pdih>
5.461

> <Idih>
0.001

> <Tether>
0.000

$$$$
VeraChem MOL file


 25 24  0  0  0  0  0  0  0  0999 V2000     
   17.5496   18.9196   26.4431 C   0  0  0  0  0  0  0  0  0  0  0  0
   18.2201   18.2918   27.2387 O   0  5  0  0  0  0  0  0  0  0  0  0
   16.3384   18.8459   26.3773 O   0  0  0  0  0  0  0  0  0  0  0  0
   18.2693   19.8362   25.4602 C   0  0  0  0  0  0  0  0  0  0  0  0
   19.1672   20.2271   25.9538 H   0  0  0  0  0  0  0  0  0  0  0  0
   17.6156   20.6914   25.2508 H   0  0  0  0  0  0  0  0  0  0  0  0
   18.6538   19.1208   24.1418 C   0  0  0  0  0  0  0  0  0  0  0  0
   19.2908   18.2582   24.3787 H   0  0  0  0  0  0  0  0  0  0  0  0
   17.7463   18.7276   23.6633 H   0  0  0  0  0  0  0  0  0  0  0  0
   19.3881   20.0701   23.1670 C   0  0  0  0  0  0  0  0  0  0  0  0
   20.3159   20.4323   23.6291 H   0  0  0  0  0  0  0  0  0  0  0  0
   18.7655   20.9590   22.9969 H   0  0  0  0  0  0  0  0  0  0  0  0
   19.7004   19.4233   21.7943 C   0  0  0  0  0  0  0  0  0  0  0  0
   18.7539   19.1542   21.3062 H   0  0  0  0  0  0  0  0  0  0  0  0
   20.1651   20.1768   21.1449 H   0  0  0  0  0  0  0  0  0  0  0  0
   20.6059   18.1643   21.8454 C   0  0  0  0  0  0  0  0  0  0  0  0
   20.7713   17.8106   20.8188 H   0  0  0  0  0  0  0  0  0  0  0  0
   20.0712   17.3525   22.3556 H   0  0  0  0  0  0  0  0  0  0  0  0
   21.9801   18.3678   22.5298 C   0  0  0  0  0  0  0  0  0  0  0  0
   21.8405   18.6362   23.5854 H   0  0  0  0  0  0  0  0  0  0  0  0
   22.5173   17.4095   22.5285 H   0  0  0  0  0  0  0  0  0  0  0  0
   22.8574   19.4303   21.8330 C   0  0  0  0  0  0  0  0  0  0  0  0
   22.4066   20.4281   21.9042 H   0  0  0  0  0  0  0  0  0  0  0  0
   23.8485   19.4783   22.3023 H   0  0  0  0  0  0  0  0  0  0  0  0
   22.9966   19.1897   20.7711 H   0  0  0  0  0  0  0  0  0  0  0  0
  1  2  1  0  0  0  0
  1  3  2  0  0  0  0
  1  4  1  0  0  0  0
  4  5  1  0  0  0  0
  4  6  1  0  0  0  0
  4  7  1  0  0  0  0
  7  8  1  0  0  0  0
  7  9  1  0  0  0  0
  7 10  1  0  0  0  0
 10 11  1  0  0  0  0
 10 12  1  0  0  0  0
 10 13  1  0  0  0  0
 13 14  1  0  0  0  0
 13 15  1  0  0  0  0
 13 16  1  0  0  0  0
 16 17  1  0  0  0  0
 16 18  1  0  0  0  0
 16 19  1  0  0  0  0
 19 20  1  0  0  0  0
 19 21  1  0  0  0  0
 19 22  1  0  0  0  0
 22 23  1  0  0  0  0
 22 24  1  0  0  0  0
 22 25  1  0  0  0  0
M  END
> <VConfSearch Rank>
860

> <Conf_Id>
30

> <Delta U+W>
0.843

> <U+W>
-50.787

> <U>
8.647

> <W>
-59.434

> <W(PB)>
-61.861

> <W(SA)>
2.428

> <Valence>
8.924

> <Coulomb>
-1.170

> <VdW>
0.894

> <VdW6>
-10.224

> <VdW12>
11.118

> <Bond>
0.231

> <Angle>
3.232

> <Pdih>
5.460

> <Idih>
0.000

> <Tether>
0.000

$$$$
VeraChem MOL file


 25 24  0  0  0  0  0  0  0  0999 V2000     
   20.7718   19.4711   27.7707 C   0  0  0  0  0  0  0  0  0  0  0  0
   21.1526   18.3201   27.8647 O   0  5  0  0  0  0  0  0  0  0  0  0
   20.6953   20.2246   28.7207 O   0  0  0  0  0  0  0  0  0  0  0  0
   20.3626   20.0256   26.4053 C   0  0  0  0  0  0  0  0  0  0  0  0
   20.9870   20.9051   26.2092 H   0  0  0  0  0  0  0  0  0  0  0  0
   19.3285   20.3791   26.4927 H   0  0  0  0  0  0  0  0  0  0  0  0
   20.4775   19.0265   25.2234 C   0  0  0  0  0  0  0  0  0  0  0  0
   21.5145   18.6716   25.1456 H   0  0  0  0  0  0  0  0  0  0  0  0
   19.8545   18.1451   25.4293 H   0  0  0  0  0  0  0  0  0  0  0  0
   20.0459   19.6668   23.8860 C   0  0  0  0  0  0  0  0  0  0  0  0
   20.6700   20.5477   23.6822 H   0  0  0  0  0  0  0  0  0  0  0  0
   19.0089   20.0209   23.9661 H   0  0  0  0  0  0  0  0  0  0  0  0
   20.1610   18.6712   22.7117 C   0  0  0  0  0  0  0  0  0  0  0  0
   21.1979   18.3169   22.6314 H   0  0  0  0  0  0  0  0  0  0  0  0
   19.5370   17.7901   22.9152 H   0  0  0  0  0  0  0  0  0  0  0  0
   19.7296   19.3107   21.3742 C   0  0  0  0  0  0  0  0  0  0  0  0
   20.3536   20.1918   21.1705 H   0  0  0  0  0  0  0  0  0  0  0  0
   18.6927   19.6649   21.4543 H   0  0  0  0  0  0  0  0  0  0  0  0
   19.8447   18.3157   20.2003 C   0  0  0  0  0  0  0  0  0  0  0  0
   20.8812   17.9605   20.1159 H   0  0  0  0  0  0  0  0  0  0  0  0
   19.2203   17.4337   20.3997 H   0  0  0  0  0  0  0  0  0  0  0  0
   19.4131   18.9580   18.8666 C   0  0  0  0  0  0  0  0  0  0  0  0
   20.0423   19.8251   18.6265 H   0  0  0  0  0  0  0  0  0  0  0  0
   19.5012   18.2370   18.0435 H   0  0  0  0  0  0  0  0  0  0  0  0
   18.3689   19.2943   18.9123 H   0  0  0  0  0  0  0  0  0  0  0  0
  1  2  1  0  0  0  0
  1  3  2  0  0  0  0
  1  4  1  0  0  0  0
  4  5  1  0  0  0  0
  4  6  1  0  0  0  0
  4  7  1  0  0  0  0
  7  8  1  0  0  0  0
  7  9  1  0  0  0  0
  7 10  1  0  0  0  0
 10 11  1  0  0  0  0
 10 12  1  0  0  0  0
 10 13  1  0  0  0  0
 13 14  1  0  0  0  0
 13 15  1  0  0  0  0
 13 16  1  0  0  0  0
 16 17  1  0  0  0  0
 16 18  1  0  0  0  0
 16 19  1  0  0  0  0
 19 20  1  0  0  0  0
 19 21  1  0  0  0  0
 19 22  1  0  0  0  0
 22 23  1  0  0  0  0
 22 24  1  0  0  0  0
 22 25  1  0  0  0  0
M  END
> <VConfSearch Rank>
861

> <Conf_Id>
0

> <Delta U+W>
0.000

> <U+W>
-51.629

> <U>
6.586

> <W>
-58.216

> <W(PB)>
-60.757

> <W(SA)>
2.541

> <Valence>
8.027

> <Coulomb>
-2.892

> <VdW>
1.451

> <VdW6>
-7.931

> <VdW12>
9.383

> <Bond>
0.149

> <Angle>
2.726

> <Pdih>
5.152

> <Idih>
0.000

> <Tether>
0.000

$$$$
VeraChem MOL file


 25 24  0  0  0  0  0  0  0  0999 V2000     
   20.3128   15.4927   20.2353 C   0  0  0  0  0  0  0  0  0  0  0  0
   19.2442   14.9467   20.0437 O   0  5  0  0  0  0  0  0  0  0  0  0
   21.1942   15.5592   19.4014 O   0  0  0  0  0  0  0  0  0  0  0  0
   20.5521   16.1508   21.5894 C   0  0  0  0  0  0  0  0  0  0  0  0
   21.6216   16.0761   21.8202 H   0  0  0  0  0  0  0  0  0  0  0  0
   20.0151   15.5709   22.3496 H   0  0  0  0  0  0  0  0  0  0  0  0
   20.0990   17.6311   21.6270 C   0  0  0  0  0  0  0  0  0  0  0  0
   20.6361   18.1948   20.8516 H   0  0  0  0  0  0  0  0  0  0  0  0
   19.0297   17.6896   21.3809 H   0  0  0  0  0  0  0  0  0  0  0  0
   20.3515   18.2747   23.0076 C   0  0  0  0  0  0  0  0  0  0  0  0
   21.4211   18.2136   23.2512 H   0  0  0  0  0  0  0  0  0  0  0  0
   19.8144   17.7081   23.7807 H   0  0  0  0  0  0  0  0  0  0  0  0
   19.8986   19.7503   23.0421 C   0  0  0  0  0  0  0  0  0  0  0  0
   20.4357   20.3171   22.2692 H   0  0  0  0  0  0  0  0  0  0  0  0
   18.8290   19.8116   22.7986 H   0  0  0  0  0  0  0  0  0  0  0  0
   20.1507   20.3945   24.4224 C   0  0  0  0  0  0  0  0  0  0  0  0
   21.2202   20.3335   24.6662 H   0  0  0  0  0  0  0  0  0  0  0  0
   19.6138   19.8279   25.1956 H   0  0  0  0  0  0  0  0  0  0  0  0
   19.6980   21.8694   24.4572 C   0  0  0  0  0  0  0  0  0  0  0  0
   20.2345   22.4398   23.6862 H   0  0  0  0  0  0  0  0  0  0  0  0
   18.6280   21.9343   24.2156 H   0  0  0  0  0  0  0  0  0  0  0  0
   19.9514   22.5092   25.8371 C   0  0  0  0  0  0  0  0  0  0  0  0
   19.6239   23.5569   25.8438 H   0  0  0  0  0  0  0  0  0  0  0  0
   19.4009   21.9770   26.6239 H   0  0  0  0  0  0  0  0  0  0  0  0
   21.0194   22.4863   26.0905 H   0  0  0  0  0  0  0  0  0  0  0  0
  1  2  1  0  0  0  0
  1  3  2  0  0  0  0
  1  4  1  0  0  0  0
  4  5  1  0  0  0  0
  4  6  1  0  0  0  0
  4  7  1  0  0  0  0
  7  8  1  0  0  0  0
  7  9  1  0  0  0  0
  7 10  1  0  0  0  0
 10 11  1  0  0  0  0
 10 12  1  0  0  0  0
 10 13  1  0  0  0  0
 13 14  1  0  0  0  0
 13 15  1  0  0  0  0
 13 16  1  0  0  0  0
 16 17  1  0  0  0  0
 16 18  1  0  0  0  0
 16 19  1  0  0  0  0
 19 20  1  0  0  0  0
 19 21  1  0  0  0  0
 19 22  1  0  0  0  0
 22 23  1  0  0  0  0
 22 24  1  0  0  0  0
 22 25  1  0  0  0  0
M  END
> <VConfSearch Rank>
862

> <Conf_Id>
27

> <Delta U+W>
-1.297

> <U+W>
-52.926

> <U>
5.617

> <W>
-58.543

> <W(PB)>
-61.065

> <W(SA)>
2.522

> <Valence>
7.531

> <Coulomb>
-2.818

> <VdW>
0.904

> <VdW6>
-7.640

> <VdW12>
8.544

> <Bond>
0.115

> <Angle>
2.271

> <Pdih>
5.144

> <Idih>
0.001

> <Tether>
0.000

$$$$
VeraChem MOL file


 25 24  0  0  0  0  0  0  0  0999 V2000     
   21.1319   22.2527   25.6656 C   0  0  0  0  0  0  0  0  0  0  0  0
   20.1915   22.9967   25.8641 O   0  5  0  0  0  0  0  0  0  0  0  0
   21.6592   21.5880   26.5357 O   0  0  0  0  0  0  0  0  0  0  0  0
   21.6903   22.1628   24.2482 C   0  0  0  0  0  0  0  0  0  0  0  0
   22.7043   21.7478   24.2971 H   0  0  0  0  0  0  0  0  0  0  0  0
   21.7843   23.1865   23.8672 H   0  0  0  0  0  0  0  0  0  0  0  0
   20.8156   21.3270   23.2780 C   0  0  0  0  0  0  0  0  0  0  0  0
   19.7965   21.7380   23.2610 H   0  0  0  0  0  0  0  0  0  0  0  0
   21.2148   21.4298   22.2598 H   0  0  0  0  0  0  0  0  0  0  0  0
   20.7700   19.8301   23.6586 C   0  0  0  0  0  0  0  0  0  0  0  0
   20.3552   19.7177   24.6699 H   0  0  0  0  0  0  0  0  0  0  0  0
   21.7918   19.4274   23.6874 H   0  0  0  0  0  0  0  0  0  0  0  0
   19.9206   19.0123   22.6620 C   0  0  0  0  0  0  0  0  0  0  0  0
   18.8990   19.4156   22.6339 H   0  0  0  0  0  0  0  0  0  0  0  0
   20.3354   19.1208   21.6505 H   0  0  0  0  0  0  0  0  0  0  0  0
   19.8739   17.5166   23.0422 C   0  0  0  0  0  0  0  0  0  0  0  0
   19.4592   17.4079   24.0538 H   0  0  0  0  0  0  0  0  0  0  0  0
   20.8954   17.1131   23.0706 H   0  0  0  0  0  0  0  0  0  0  0  0
   19.0246   16.6988   22.0466 C   0  0  0  0  0  0  0  0  0  0  0  0
   18.0014   17.0986   22.0169 H   0  0  0  0  0  0  0  0  0  0  0  0
   19.4377   16.8036   21.0338 H   0  0  0  0  0  0  0  0  0  0  0  0
   18.9804   15.2059   22.4299 C   0  0  0  0  0  0  0  0  0  0  0  0
   18.5418   15.0692   23.4271 H   0  0  0  0  0  0  0  0  0  0  0  0
   18.3727   14.6399   21.7120 H   0  0  0  0  0  0  0  0  0  0  0  0
   19.9889   14.7721   22.4366 H   0  0  0  0  0  0  0  0  0  0  0  0
  1  2  1  0  0  0  0
  1  3  2  0  0  0  0
  1  4  1  0  0  0  0
  4  5  1  0  0  0  0
  4  6  1  0  0  0  0
  4  7  1  0  0  0  0
  7  8  1  0  0  0  0
  7  9  1  0  0  0  0
  7 10  1  0  0  0  0
 10 11  1  0  0  0  0
 10 12  1  0  0  0  0
 10 13  1  0  0  0  0
 13 14  1  0  0  0  0
 13 15  1  0  0  0  0
 13 16  1  0  0  0  0
 16 17  1  0  0  0  0
 16 18  1  0  0  0  0
 16 19  1  0  0  0  0
 19 20  1  0  0  0  0
 19 21  1  0  0  0  0
 19 22  1  0  0  0  0
 22 23  1  0  0  0  0
 22 24  1  0  0  0  0
 22 25  1  0  0  0  0
M  END
> <VConfSearch Rank>
863

> <Conf_Id>
37

> <Delta U+W>
-0.230

> <U+W>
-51.860

> <U>
7.816

> <W>
-59.675

> <W(PB)>
-62.180

> <W(SA)>
2.505

> <Valence>
7.785

> <Coulomb>
-0.713

> <VdW>
0.744

> <VdW6>
-8.514

> <VdW12>
9.259

> <Bond>
0.136

> <Angle>
2.433

> <Pdih>
5.216

> <Idih>
0.000

> <Tether>
0.000

$$$$
VeraChem MOL file


 25 24  0  0  0  0  0  0  0  0999 V2000     
   17.8557   16.0541   22.3849 C   0  0  0  0  0  0  0  0  0  0  0  0
   18.4398   15.0121   22.6089 O   0  5  0  0  0  0  0  0  0  0  0  0
   17.5725   16.4399   21.2678 O   0  0  0  0  0  0  0  0  0  0  0  0
   17.4415   16.9159   23.5743 C   0  0  0  0  0  0  0  0  0  0  0  0
   16.9912   16.2505   24.3202 H   0  0  0  0  0  0  0  0  0  0  0  0
   16.6545   17.6068   23.2488 H   0  0  0  0  0  0  0  0  0  0  0  0
   18.6114   17.7024   24.2205 C   0  0  0  0  0  0  0  0  0  0  0  0
   18.2532   18.1806   25.1423 H   0  0  0  0  0  0  0  0  0  0  0  0
   19.4031   16.9998   24.5158 H   0  0  0  0  0  0  0  0  0  0  0  0
   19.1934   18.7814   23.2798 C   0  0  0  0  0  0  0  0  0  0  0  0
   18.3955   19.4733   22.9769 H   0  0  0  0  0  0  0  0  0  0  0  0
   19.5698   18.3085   22.3622 H   0  0  0  0  0  0  0  0  0  0  0  0
   20.3346   19.5728   23.9543 C   0  0  0  0  0  0  0  0  0  0  0  0
   19.9597   20.0489   24.8706 H   0  0  0  0  0  0  0  0  0  0  0  0
   21.1320   18.8801   24.2567 H   0  0  0  0  0  0  0  0  0  0  0  0
   20.9170   20.6506   23.0146 C   0  0  0  0  0  0  0  0  0  0  0  0
   20.1197   21.3432   22.7119 H   0  0  0  0  0  0  0  0  0  0  0  0
   21.2919   20.1746   22.0981 H   0  0  0  0  0  0  0  0  0  0  0  0
   22.0582   21.4415   23.6881 C   0  0  0  0  0  0  0  0  0  0  0  0
   21.6863   21.9206   24.6045 H   0  0  0  0  0  0  0  0  0  0  0  0
   22.8585   20.7519   23.9906 H   0  0  0  0  0  0  0  0  0  0  0  0
   22.6370   22.5167   22.7466 C   0  0  0  0  0  0  0  0  0  0  0  0
   21.8641   23.2391   22.4531 H   0  0  0  0  0  0  0  0  0  0  0  0
   23.4467   23.0689   23.2412 H   0  0  0  0  0  0  0  0  0  0  0  0
   23.0451   22.0616   21.8345 H   0  0  0  0  0  0  0  0  0  0  0  0
  1  2  1  0  0  0  0
  1  3  2  0  0  0  0
  1  4  1  0  0  0  0
  4  5  1  0  0  0  0
  4  6  1  0  0  0  0
  4  7  1  0  0  0  0
  7  8  1  0  0  0  0
  7  9  1  0  0  0  0
  7 10  1  0  0  0  0
 10 11  1  0  0  0  0
 10 12  1  0  0  0  0
 10 13  1  0  0  0  0
 13 14  1  0  0  0  0
 13 15  1  0  0  0  0
 13 16  1  0  0  0  0
 16 17  1  0  0  0  0
 16 18  1  0  0  0  0
 16 19  1  0  0  0  0
 19 20  1  0  0  0  0
 19 21  1  0  0  0  0
 19 22  1  0  0  0  0
 22 23  1  0  0  0  0
 22 24  1  0  0  0  0
 22 25  1  0  0  0  0
M  END
> <VConfSearch Rank>
864

> <Conf_Id>
54

> <Delta U+W>
-0.224

> <U+W>
-51.854

> <U>
7.816

> <W>
-59.670

> <W(PB)>
-62.157

> <W(SA)>
2.487

> <Valence>
7.785

> <Coulomb>
-0.713

> <VdW>
0.744

> <VdW6>
-8.515

> <VdW12>
9.259

> <Bond>
0.136

> <Angle>
2.433

> <Pdih>
5.215

> <Idih>
0.000

> <Tether>
0.000

$$$$
VeraChem MOL file


 25 24  0  0  0  0  0  0  0  0999 V2000     
   21.5187   16.5480   20.5020 C   0  0  0  0  0  0  0  0  0  0  0  0
   21.7623   17.2442   19.5361 O   0  5  0  0  0  0  0  0  0  0  0  0
   22.3035   15.7451   20.9674 O   0  0  0  0  0  0  0  0  0  0  0  0
   20.1459   16.6740   21.1567 C   0  0  0  0  0  0  0  0  0  0  0  0
   19.7683   15.6581   21.3220 H   0  0  0  0  0  0  0  0  0  0  0  0
   19.4620   17.1554   20.4473 H   0  0  0  0  0  0  0  0  0  0  0  0
   20.1549   17.4478   22.5009 C   0  0  0  0  0  0  0  0  0  0  0  0
   19.1652   17.3490   22.9641 H   0  0  0  0  0  0  0  0  0  0  0  0
   20.8746   16.9784   23.1859 H   0  0  0  0  0  0  0  0  0  0  0  0
   20.5012   18.9457   22.3214 C   0  0  0  0  0  0  0  0  0  0  0  0
   19.7548   19.4244   21.6729 H   0  0  0  0  0  0  0  0  0  0  0  0
   21.4640   19.0315   21.7992 H   0  0  0  0  0  0  0  0  0  0  0  0
   20.6035   19.7225   23.6560 C   0  0  0  0  0  0  0  0  0  0  0  0
   21.3362   19.2325   24.3114 H   0  0  0  0  0  0  0  0  0  0  0  0
   21.0020   20.7210   23.4361 H   0  0  0  0  0  0  0  0  0  0  0  0
   19.2501   19.8620   24.3959 C   0  0  0  0  0  0  0  0  0  0  0  0
   18.8531   18.8648   24.6236 H   0  0  0  0  0  0  0  0  0  0  0  0
   18.5164   20.3476   23.7383 H   0  0  0  0  0  0  0  0  0  0  0  0
   19.3543   20.6485   25.7238 C   0  0  0  0  0  0  0  0  0  0  0  0
   18.3907   20.5824   26.2476 H   0  0  0  0  0  0  0  0  0  0  0  0
   20.0966   20.1729   26.3796 H   0  0  0  0  0  0  0  0  0  0  0  0
   19.7101   22.1386   25.5293 C   0  0  0  0  0  0  0  0  0  0  0  0
   20.7204   22.2604   25.1195 H   0  0  0  0  0  0  0  0  0  0  0  0
   19.0004   22.6265   24.8485 H   0  0  0  0  0  0  0  0  0  0  0  0
   19.6761   22.6693   26.4895 H   0  0  0  0  0  0  0  0  0  0  0  0
  1  2  1  0  0  0  0
  1  3  2  0  0  0  0
  1  4  1  0  0  0  0
  4  5  1  0  0  0  0
  4  6  1  0  0  0  0
  4  7  1  0  0  0  0
  7  8  1  0  0  0  0
  7  9  1  0  0  0  0
  7 10  1  0  0  0  0
 10 11  1  0  0  0  0
 10 12  1  0  0  0  0
 10 13  1  0  0  0  0
 13 14  1  0  0  0  0
 13 15  1  0  0  0  0
 13 16  1  0  0  0  0
 16 17  1  0  0  0  0
 16 18  1  0  0  0  0
 16 19  1  0  0  0  0
 19 20  1  0  0  0  0
 19 21  1  0  0  0  0
 19 22  1  0  0  0  0
 22 23  1  0  0  0  0
 22 24  1  0  0  0  0
 22 25  1  0  0  0  0
M  END
> <VConfSearch Rank>
865

> <Conf_Id>
101

> <Delta U+W>
1.534

> <U+W>
-50.095

> <U>
9.416

> <W>
-59.512

> <W(PB)>
-61.988

> <W(SA)>
2.476

> <Valence>
8.939

> <Coulomb>
-0.615

> <VdW>
1.092

> <VdW6>
-9.710

> <VdW12>
10.802

> <Bond>
0.216

> <Angle>
2.979

> <Pdih>
5.743

> <Idih>
0.000

> <Tether>
0.000

$$$$
VeraChem MOL file


 25 24  0  0  0  0  0  0  0  0999 V2000     
   20.9501   15.8495   20.8981 C   0  0  0  0  0  0  0  0  0  0  0  0
   19.9291   15.1969   20.8061 O   0  5  0  0  0  0  0  0  0  0  0  0
   21.8788   15.7596   20.1195 O   0  0  0  0  0  0  0  0  0  0  0  0
   21.0632   16.8526   22.0405 C   0  0  0  0  0  0  0  0  0  0  0  0
   22.1192   16.9237   22.3271 H   0  0  0  0  0  0  0  0  0  0  0  0
   20.5197   16.4417   22.8985 H   0  0  0  0  0  0  0  0  0  0  0  0
   20.5154   18.2539   21.6638 C   0  0  0  0  0  0  0  0  0  0  0  0
   21.0140   18.5899   20.7440 H   0  0  0  0  0  0  0  0  0  0  0  0
   19.4453   18.1788   21.4261 H   0  0  0  0  0  0  0  0  0  0  0  0
   20.7335   19.3220   22.7621 C   0  0  0  0  0  0  0  0  0  0  0  0
   20.4460   20.2968   22.3478 H   0  0  0  0  0  0  0  0  0  0  0  0
   21.8027   19.3884   23.0049 H   0  0  0  0  0  0  0  0  0  0  0  0
   19.9194   19.0539   24.0518 C   0  0  0  0  0  0  0  0  0  0  0  0
   18.8508   18.9883   23.8092 H   0  0  0  0  0  0  0  0  0  0  0  0
   20.1987   18.0760   24.4633 H   0  0  0  0  0  0  0  0  0  0  0  0
   20.1467   20.1149   25.1585 C   0  0  0  0  0  0  0  0  0  0  0  0
   21.2062   20.1044   25.4487 H   0  0  0  0  0  0  0  0  0  0  0  0
   19.5852   19.8136   26.0533 H   0  0  0  0  0  0  0  0  0  0  0  0
   19.7466   21.5641   24.7854 C   0  0  0  0  0  0  0  0  0  0  0  0
   19.9578   22.2163   25.6439 H   0  0  0  0  0  0  0  0  0  0  0  0
   20.3756   21.9326   23.9646 H   0  0  0  0  0  0  0  0  0  0  0  0
   18.2569   21.7101   24.4064 C   0  0  0  0  0  0  0  0  0  0  0  0
   17.6088   21.3248   25.2042 H   0  0  0  0  0  0  0  0  0  0  0  0
   18.0034   22.7656   24.2439 H   0  0  0  0  0  0  0  0  0  0  0  0
   18.0261   21.1666   23.4815 H   0  0  0  0  0  0  0  0  0  0  0  0
  1  2  1  0  0  0  0
  1  3  2  0  0  0  0
  1  4  1  0  0  0  0
  4  5  1  0  0  0  0
  4  6  1  0  0  0  0
  4  7  1  0  0  0  0
  7  8  1  0  0  0  0
  7  9  1  0  0  0  0
  7 10  1  0  0  0  0
 10 11  1  0  0  0  0
 10 12  1  0  0  0  0
 10 13  1  0  0  0  0
 13 14  1  0  0  0  0
 13 15  1  0  0  0  0
 13 16  1  0  0  0  0
 16 17  1  0  0  0  0
 16 18  1  0  0  0  0
 16 19  1  0  0  0  0
 19 20  1  0  0  0  0
 19 21  1  0  0  0  0
 19 22  1  0  0  0  0
 22 23  1  0  0  0  0
 22 24  1  0  0  0  0
 22 25  1  0  0  0  0
M  END
> <VConfSearch Rank>
866

> <Conf_Id>
75

> <Delta U+W>
1.014

> <U+W>
-50.615

> <U>
8.474

> <W>
-59.089

> <W(PB)>
-61.530

> <W(SA)>
2.441

> <Valence>
9.080

> <Coulomb>
-1.772

> <VdW>
1.165

> <VdW6>
-9.830

> <VdW12>
10.996

> <Bond>
0.240

> <Angle>
3.225

> <Pdih>
5.615

> <Idih>
0.001

> <Tether>
0.000

$$$$
VeraChem MOL file


 25 24  0  0  0  0  0  0  0  0999 V2000     
   18.6887   19.6516   19.3139 C   0  0  0  0  0  0  0  0  0  0  0  0
   17.6518   19.0284   19.1996 O   0  5  0  0  0  0  0  0  0  0  0  0
   18.9754   20.6132   18.6285 O   0  0  0  0  0  0  0  0  0  0  0  0
   19.6754   19.2158   20.3912 C   0  0  0  0  0  0  0  0  0  0  0  0
   20.6889   19.4321   20.0327 H   0  0  0  0  0  0  0  0  0  0  0  0
   19.5969   18.1279   20.5051 H   0  0  0  0  0  0  0  0  0  0  0  0
   19.4287   19.9147   21.7509 C   0  0  0  0  0  0  0  0  0  0  0  0
   19.4979   21.0032   21.6175 H   0  0  0  0  0  0  0  0  0  0  0  0
   18.4057   19.6989   22.0893 H   0  0  0  0  0  0  0  0  0  0  0  0
   20.4388   19.4558   22.8248 C   0  0  0  0  0  0  0  0  0  0  0  0
   21.4597   19.6730   22.4822 H   0  0  0  0  0  0  0  0  0  0  0  0
   20.3719   18.3679   22.9440 H   0  0  0  0  0  0  0  0  0  0  0  0
   20.1921   20.1611   24.1793 C   0  0  0  0  0  0  0  0  0  0  0  0
   20.2987   21.2436   24.0254 H   0  0  0  0  0  0  0  0  0  0  0  0
   19.1576   19.9996   24.5118 H   0  0  0  0  0  0  0  0  0  0  0  0
   21.1813   19.7231   25.2892 C   0  0  0  0  0  0  0  0  0  0  0  0
   21.4045   20.5996   25.9127 H   0  0  0  0  0  0  0  0  0  0  0  0
   22.1402   19.4197   24.8472 H   0  0  0  0  0  0  0  0  0  0  0  0
   20.6510   18.6090   26.2253 C   0  0  0  0  0  0  0  0  0  0  0  0
   21.3933   18.4361   27.0167 H   0  0  0  0  0  0  0  0  0  0  0  0
   19.7389   18.9559   26.7304 H   0  0  0  0  0  0  0  0  0  0  0  0
   20.3647   17.2695   25.5154 C   0  0  0  0  0  0  0  0  0  0  0  0
   21.2397   16.9302   24.9460 H   0  0  0  0  0  0  0  0  0  0  0  0
   20.1153   16.4919   26.2489 H   0  0  0  0  0  0  0  0  0  0  0  0
   19.5142   17.3600   24.8283 H   0  0  0  0  0  0  0  0  0  0  0  0
  1  2  1  0  0  0  0
  1  3  2  0  0  0  0
  1  4  1  0  0  0  0
  4  5  1  0  0  0  0
  4  6  1  0  0  0  0
  4  7  1  0  0  0  0
  7  8  1  0  0  0  0
  7  9  1  0  0  0  0
  7 10  1  0  0  0  0
 10 11  1  0  0  0  0
 10 12  1  0  0  0  0
 10 13  1  0  0  0  0
 13 14  1  0  0  0  0
 13 15  1  0  0  0  0
 13 16  1  0  0  0  0
 16 17  1  0  0  0  0
 16 18  1  0  0  0  0
 16 19  1  0  0  0  0
 19 20  1  0  0  0  0
 19 21  1  0  0  0  0
 19 22  1  0  0  0  0
 22 23  1  0  0  0  0
 22 24  1  0  0  0  0
 22 25  1  0  0  0  0
M  END
> <VConfSearch Rank>
867

> <Conf_Id>
125

> <Delta U+W>
2.314

> <U+W>
-49.315

> <U>
9.740

> <W>
-59.054

> <W(PB)>
-61.488

> <W(SA)>
2.433

> <Valence>
10.506

> <Coulomb>
-1.761

> <VdW>
0.994

> <VdW6>
-9.209

> <VdW12>
10.203

> <Bond>
0.193

> <Angle>
2.979

> <Pdih>
7.334

> <Idih>
0.001

> <Tether>
0.000

$$$$
VeraChem MOL file


 25 24  0  0  0  0  0  0  0  0999 V2000     
   20.2373   22.1180   20.5001 C   0  0  0  0  0  0  0  0  0  0  0  0
   20.7829   21.6259   19.5322 O   0  5  0  0  0  0  0  0  0  0  0  0
   19.9611   23.2980   20.5895 O   0  0  0  0  0  0  0  0  0  0  0  0
   19.9027   21.2094   21.6776 C   0  0  0  0  0  0  0  0  0  0  0  0
   19.6595   20.2195   21.2755 H   0  0  0  0  0  0  0  0  0  0  0  0
   18.9972   21.5969   22.1596 H   0  0  0  0  0  0  0  0  0  0  0  0
   21.0581   21.1130   22.7077 C   0  0  0  0  0  0  0  0  0  0  0  0
   21.9450   20.6800   22.2248 H   0  0  0  0  0  0  0  0  0  0  0  0
   21.3391   22.1289   23.0182 H   0  0  0  0  0  0  0  0  0  0  0  0
   20.6958   20.2921   23.9683 C   0  0  0  0  0  0  0  0  0  0  0  0
   19.8146   20.7332   24.4541 H   0  0  0  0  0  0  0  0  0  0  0  0
   21.5219   20.3762   24.6875 H   0  0  0  0  0  0  0  0  0  0  0  0
   20.4341   18.7967   23.6743 C   0  0  0  0  0  0  0  0  0  0  0  0
   19.5671   18.6991   23.0100 H   0  0  0  0  0  0  0  0  0  0  0  0
   21.2967   18.3705   23.1443 H   0  0  0  0  0  0  0  0  0  0  0  0
   20.1800   17.9970   24.9732 C   0  0  0  0  0  0  0  0  0  0  0  0
   19.2896   18.3910   25.4819 H   0  0  0  0  0  0  0  0  0  0  0  0
   21.0240   18.1512   25.6593 H   0  0  0  0  0  0  0  0  0  0  0  0
   20.0113   16.4779   24.7374 C   0  0  0  0  0  0  0  0  0  0  0  0
   20.9026   16.0794   24.2335 H   0  0  0  0  0  0  0  0  0  0  0  0
   19.9550   15.9742   25.7123 H   0  0  0  0  0  0  0  0  0  0  0  0
   18.7500   16.1217   23.9208 C   0  0  0  0  0  0  0  0  0  0  0  0
   18.8145   16.5064   22.8953 H   0  0  0  0  0  0  0  0  0  0  0  0
   18.6275   15.0326   23.8594 H   0  0  0  0  0  0  0  0  0  0  0  0
   17.8483   16.5373   24.3890 H   0  0  0  0  0  0  0  0  0  0  0  0
  1  2  1  0  0  0  0
  1  3  2  0  0  0  0
  1  4  1  0  0  0  0
  4  5  1  0  0  0  0
  4  6  1  0  0  0  0
  4  7  1  0  0  0  0
  7  8  1  0  0  0  0
  7  9  1  0  0  0  0
  7 10  1  0  0  0  0
 10 11  1  0  0  0  0
 10 12  1  0  0  0  0
 10 13  1  0  0  0  0
 13 14  1  0  0  0  0
 13 15  1  0  0  0  0
 13 16  1  0  0  0  0
 16 17  1  0  0  0  0
 16 18  1  0  0  0  0
 16 19  1  0  0  0  0
 19 20  1  0  0  0  0
 19 21  1  0  0  0  0
 19 22  1  0  0  0  0
 22 23  1  0  0  0  0
 22 24  1  0  0  0  0
 22 25  1  0  0  0  0
M  END
> <VConfSearch Rank>
868

> <Conf_Id>
4

> <Delta U+W>
0.189

> <U+W>
-51.441

> <U>
7.701

> <W>
-59.141

> <W(PB)>
-61.609

> <W(SA)>
2.467

> <Valence>
8.550

> <Coulomb>
-1.988

> <VdW>
1.139

> <VdW6>
-8.988

> <VdW12>
10.127

> <Bond>
0.191

> <Angle>
2.738

> <Pdih>
5.621

> <Idih>
0.001

> <Tether>
0.000

$$$$
VeraChem MOL file


 25 24  0  0  0  0  0  0  0  0999 V2000     
   23.1671   19.9250   25.8282 C   0  0  0  0  0  0  0  0  0  0  0  0
   24.1284   19.3929   25.3091 O   0  5  0  0  0  0  0  0  0  0  0  0
   23.2399   20.6318   26.8141 O   0  0  0  0  0  0  0  0  0  0  0  0
   21.7971   19.7132   25.1941 C   0  0  0  0  0  0  0  0  0  0  0  0
   21.0452   19.7403   25.9918 H   0  0  0  0  0  0  0  0  0  0  0  0
   21.7810   18.7049   24.7654 H   0  0  0  0  0  0  0  0  0  0  0  0
   21.4673   20.7735   24.1114 C   0  0  0  0  0  0  0  0  0  0  0  0
   21.5850   21.7739   24.5504 H   0  0  0  0  0  0  0  0  0  0  0  0
   22.2000   20.7048   23.2954 H   0  0  0  0  0  0  0  0  0  0  0  0
   20.0348   20.6488   23.5397 C   0  0  0  0  0  0  0  0  0  0  0  0
   19.8503   21.5031   22.8741 H   0  0  0  0  0  0  0  0  0  0  0  0
   19.3044   20.7278   24.3566 H   0  0  0  0  0  0  0  0  0  0  0  0
   19.7979   19.3380   22.7544 C   0  0  0  0  0  0  0  0  0  0  0  0
   20.5602   19.2373   21.9699 H   0  0  0  0  0  0  0  0  0  0  0  0
   19.9130   18.4803   23.4279 H   0  0  0  0  0  0  0  0  0  0  0  0
   18.3908   19.3044   22.1139 C   0  0  0  0  0  0  0  0  0  0  0  0
   18.2598   20.1995   21.4907 H   0  0  0  0  0  0  0  0  0  0  0  0
   17.6253   19.3579   22.9001 H   0  0  0  0  0  0  0  0  0  0  0  0
   18.1441   18.0554   21.2359 C   0  0  0  0  0  0  0  0  0  0  0  0
   17.1764   18.1676   20.7278 H   0  0  0  0  0  0  0  0  0  0  0  0
   18.9051   18.0016   20.4451 H   0  0  0  0  0  0  0  0  0  0  0  0
   18.1341   16.7358   22.0378 C   0  0  0  0  0  0  0  0  0  0  0  0
   17.4021   16.7780   22.8548 H   0  0  0  0  0  0  0  0  0  0  0  0
   17.8659   15.8934   21.3871 H   0  0  0  0  0  0  0  0  0  0  0  0
   19.1198   16.5211   22.4688 H   0  0  0  0  0  0  0  0  0  0  0  0
  1  2  1  0  0  0  0
  1  3  2  0  0  0  0
  1  4  1  0  0  0  0
  4  5  1  0  0  0  0
  4  6  1  0  0  0  0
  4  7  1  0  0  0  0
  7  8  1  0  0  0  0
  7  9  1  0  0  0  0
  7 10  1  0  0  0  0
 10 11  1  0  0  0  0
 10 12  1  0  0  0  0
 10 13  1  0  0  0  0
 13 14  1  0  0  0  0
 13 15  1  0  0  0  0
 13 16  1  0  0  0  0
 16 17  1  0  0  0  0
 16 18  1  0  0  0  0
 16 19  1  0  0  0  0
 19 20  1  0  0  0  0
 19 21  1  0  0  0  0
 19 22  1  0  0  0  0
 22 23  1  0  0  0  0
 22 24  1  0  0  0  0
 22 25  1  0  0  0  0
M  END
> <VConfSearch Rank>
869

> <Conf_Id>
17

> <Delta U+W>
0.219

> <U+W>
-51.411

> <U>
7.701

> <W>
-59.111

> <W(PB)>
-61.599

> <W(SA)>
2.488

> <Valence>
8.550

> <Coulomb>
-1.988

> <VdW>
1.139

> <VdW6>
-8.988

> <VdW12>
10.127

> <Bond>
0.191

> <Angle>
2.738

> <Pdih>
5.621

> <Idih>
0.001

> <Tether>
0.000

$$$$
VeraChem MOL file


 25 24  0  0  0  0  0  0  0  0999 V2000     
   21.6405   21.6832   20.9388 C   0  0  0  0  0  0  0  0  0  0  0  0
   22.6631   22.1386   21.4119 O   0  5  0  0  0  0  0  0  0  0  0  0
   20.6699   22.3587   20.6583 O   0  0  0  0  0  0  0  0  0  0  0  0
   21.5766   20.1837   20.6628 C   0  0  0  0  0  0  0  0  0  0  0  0
   22.6000   19.7915   20.6216 H   0  0  0  0  0  0  0  0  0  0  0  0
   21.1458   20.0518   19.6632 H   0  0  0  0  0  0  0  0  0  0  0  0
   20.7383   19.3888   21.6973 C   0  0  0  0  0  0  0  0  0  0  0  0
   19.7256   19.8116   21.7343 H   0  0  0  0  0  0  0  0  0  0  0  0
   20.6373   18.3508   21.3528 H   0  0  0  0  0  0  0  0  0  0  0  0
   21.3744   19.3994   23.1080 C   0  0  0  0  0  0  0  0  0  0  0  0
   21.4151   20.4283   23.4914 H   0  0  0  0  0  0  0  0  0  0  0  0
   22.4153   19.0563   23.0328 H   0  0  0  0  0  0  0  0  0  0  0  0
   20.6328   18.4996   24.1250 C   0  0  0  0  0  0  0  0  0  0  0  0
   20.5986   17.4684   23.7479 H   0  0  0  0  0  0  0  0  0  0  0  0
   21.2173   18.4712   25.0548 H   0  0  0  0  0  0  0  0  0  0  0  0
   19.2004   18.9851   24.4469 C   0  0  0  0  0  0  0  0  0  0  0  0
   18.5799   18.9481   23.5422 H   0  0  0  0  0  0  0  0  0  0  0  0
   19.2327   20.0342   24.7713 H   0  0  0  0  0  0  0  0  0  0  0  0
   18.5407   18.1261   25.5463 C   0  0  0  0  0  0  0  0  0  0  0  0
   18.5086   17.0756   25.2256 H   0  0  0  0  0  0  0  0  0  0  0  0
   19.1492   18.1624   26.4606 H   0  0  0  0  0  0  0  0  0  0  0  0
   17.1111   18.6091   25.8636 C   0  0  0  0  0  0  0  0  0  0  0  0
   16.4709   18.5529   24.9735 H   0  0  0  0  0  0  0  0  0  0  0  0
   16.6577   17.9879   26.6469 H   0  0  0  0  0  0  0  0  0  0  0  0
   17.1171   19.6487   26.2165 H   0  0  0  0  0  0  0  0  0  0  0  0
  1  2  1  0  0  0  0
  1  3  2  0  0  0  0
  1  4  1  0  0  0  0
  4  5  1  0  0  0  0
  4  6  1  0  0  0  0
  4  7  1  0  0  0  0
  7  8  1  0  0  0  0
  7  9  1  0  0  0  0
  7 10  1  0  0  0  0
 10 11  1  0  0  0  0
 10 12  1  0  0  0  0
 10 13  1  0  0  0  0
 13 14  1  0  0  0  0
 13 15  1  0  0  0  0
 13 16  1  0  0  0  0
 16 17  1  0  0  0  0
 16 18  1  0  0  0  0
 16 19  1  0  0  0  0
 19 20  1  0  0  0  0
 19 21  1  0  0  0  0
 19 22  1  0  0  0  0
 22 23  1  0  0  0  0
 22 24  1  0  0  0  0
 22 25  1  0  0  0  0
M  END
> <VConfSearch Rank>
870

> <Conf_Id>
142

> <Delta U+W>
0.593

> <U+W>
-51.037

> <U>
8.903

> <W>
-59.940

> <W(PB)>
-62.418

> <W(SA)>
2.478

> <Valence>
8.305

> <Coulomb>
-0.223

> <VdW>
0.821

> <VdW6>
-9.236

> <VdW12>
10.057

> <Bond>
0.173

> <Angle>
2.663

> <Pdih>
5.469

> <Idih>
0.001

> <Tether>
0.000

$$$$
VeraChem MOL file


 25 24  0  0  0  0  0  0  0  0999 V2000     
   17.1243   19.5721   24.9926 C   0  0  0  0  0  0  0  0  0  0  0  0
   15.9448   19.6078   24.7010 O   0  5  0  0  0  0  0  0  0  0  0  0
   17.5601   18.9764   25.9581 O   0  0  0  0  0  0  0  0  0  0  0  0
   18.1055   20.3410   24.1123 C   0  0  0  0  0  0  0  0  0  0  0  0
   19.0555   20.4414   24.6497 H   0  0  0  0  0  0  0  0  0  0  0  0
   17.7088   21.3555   23.9905 H   0  0  0  0  0  0  0  0  0  0  0  0
   18.3335   19.7064   22.7131 C   0  0  0  0  0  0  0  0  0  0  0  0
   17.3750   19.6841   22.1765 H   0  0  0  0  0  0  0  0  0  0  0  0
   18.9924   20.3572   22.1239 H   0  0  0  0  0  0  0  0  0  0  0  0
   18.9149   18.2693   22.7485 C   0  0  0  0  0  0  0  0  0  0  0  0
   19.0318   17.9108   21.7168 H   0  0  0  0  0  0  0  0  0  0  0  0
   18.1828   17.5989   23.2193 H   0  0  0  0  0  0  0  0  0  0  0  0
   20.2684   18.1208   23.4875 C   0  0  0  0  0  0  0  0  0  0  0  0
   20.1429   18.3688   24.5500 H   0  0  0  0  0  0  0  0  0  0  0  0
   20.5641   17.0634   23.4566 H   0  0  0  0  0  0  0  0  0  0  0  0
   21.4024   18.9778   22.8790 C   0  0  0  0  0  0  0  0  0  0  0  0
   21.1539   20.0433   22.9683 H   0  0  0  0  0  0  0  0  0  0  0  0
   21.4940   18.7575   21.8067 H   0  0  0  0  0  0  0  0  0  0  0  0
   22.7533   18.7150   23.5771 C   0  0  0  0  0  0  0  0  0  0  0  0
   22.6631   18.9322   24.6505 H   0  0  0  0  0  0  0  0  0  0  0  0
   23.0166   17.6520   23.4874 H   0  0  0  0  0  0  0  0  0  0  0  0
   23.8819   19.5748   22.9732 C   0  0  0  0  0  0  0  0  0  0  0  0
   23.6595   20.6448   23.0782 H   0  0  0  0  0  0  0  0  0  0  0  0
   24.8344   19.3751   23.4810 H   0  0  0  0  0  0  0  0  0  0  0  0
   24.0143   19.3553   21.9056 H   0  0  0  0  0  0  0  0  0  0  0  0
  1  2  1  0  0  0  0
  1  3  2  0  0  0  0
  1  4  1  0  0  0  0
  4  5  1  0  0  0  0
  4  6  1  0  0  0  0
  4  7  1  0  0  0  0
  7  8  1  0  0  0  0
  7  9  1  0  0  0  0
  7 10  1  0  0  0  0
 10 11  1  0  0  0  0
 10 12  1  0  0  0  0
 10 13  1  0  0  0  0
 13 14  1  0  0  0  0
 13 15  1  0  0  0  0
 13 16  1  0  0  0  0
 16 17  1  0  0  0  0
 16 18  1  0  0  0  0
 16 19  1  0  0  0  0
 19 20  1  0  0  0  0
 19 21  1  0  0  0  0
 19 22  1  0  0  0  0
 22 23  1  0  0  0  0
 22 24  1  0  0  0  0
 22 25  1  0  0  0  0
M  END
> <VConfSearch Rank>
871

> <Conf_Id>
135

> <Delta U+W>
1.314

> <U+W>
-50.316

> <U>
9.773

> <W>
-60.088

> <W(PB)>
-62.535

> <W(SA)>
2.447

> <Valence>
8.741

> <Coulomb>
0.479

> <VdW>
0.552

> <VdW6>
-10.627

> <VdW12>
11.179

> <Bond>
0.227

> <Angle>
3.155

> <Pdih>
5.358

> <Idih>
0.001

> <Tether>
0.000

$$$$
VeraChem MOL file


 25 24  0  0  0  0  0  0  0  0999 V2000     
   22.9989   20.7680   25.8747 C   0  0  0  0  0  0  0  0  0  0  0  0
   22.8763   20.3866   27.0220 O   0  5  0  0  0  0  0  0  0  0  0  0
   24.0282   21.2331   25.4264 O   0  0  0  0  0  0  0  0  0  0  0  0
   21.8021   20.6347   24.9398 C   0  0  0  0  0  0  0  0  0  0  0  0
   21.8454   21.4551   24.2135 H   0  0  0  0  0  0  0  0  0  0  0  0
   20.8956   20.7773   25.5383 H   0  0  0  0  0  0  0  0  0  0  0  0
   21.7660   19.2698   24.2037 C   0  0  0  0  0  0  0  0  0  0  0  0
   22.7289   19.1207   23.6958 H   0  0  0  0  0  0  0  0  0  0  0  0
   21.6742   18.4575   24.9379 H   0  0  0  0  0  0  0  0  0  0  0  0
   20.6332   19.1590   23.1552 C   0  0  0  0  0  0  0  0  0  0  0  0
   20.7889   18.2323   22.5886 H   0  0  0  0  0  0  0  0  0  0  0  0
   20.7120   19.9864   22.4370 H   0  0  0  0  0  0  0  0  0  0  0  0
   19.2167   19.1364   23.7776 C   0  0  0  0  0  0  0  0  0  0  0  0
   19.1277   18.2718   24.4493 H   0  0  0  0  0  0  0  0  0  0  0  0
   19.0757   20.0275   24.4018 H   0  0  0  0  0  0  0  0  0  0  0  0
   18.0673   19.1011   22.7389 C   0  0  0  0  0  0  0  0  0  0  0  0
   18.0906   20.0094   22.1213 H   0  0  0  0  0  0  0  0  0  0  0  0
   17.1200   19.1427   23.2937 H   0  0  0  0  0  0  0  0  0  0  0  0
   18.0431   17.8404   21.8388 C   0  0  0  0  0  0  0  0  0  0  0  0
   18.5166   16.9939   22.3550 H   0  0  0  0  0  0  0  0  0  0  0  0
   16.9972   17.5485   21.6705 H   0  0  0  0  0  0  0  0  0  0  0  0
   18.7038   18.0654   20.4604 C   0  0  0  0  0  0  0  0  0  0  0  0
   19.7573   18.3524   20.5546 H   0  0  0  0  0  0  0  0  0  0  0  0
   18.6582   17.1487   19.8584 H   0  0  0  0  0  0  0  0  0  0  0  0
   18.1859   18.8579   19.9045 H   0  0  0  0  0  0  0  0  0  0  0  0
  1  2  1  0  0  0  0
  1  3  2  0  0  0  0
  1  4  1  0  0  0  0
  4  5  1  0  0  0  0
  4  6  1  0  0  0  0
  4  7  1  0  0  0  0
  7  8  1  0  0  0  0
  7  9  1  0  0  0  0
  7 10  1  0  0  0  0
 10 11  1  0  0  0  0
 10 12  1  0  0  0  0
 10 13  1  0  0  0  0
 13 14  1  0  0  0  0
 13 15  1  0  0  0  0
 13 16  1  0  0  0  0
 16 17  1  0  0  0  0
 16 18  1  0  0  0  0
 16 19  1  0  0  0  0
 19 20  1  0  0  0  0
 19 21  1  0  0  0  0
 19 22  1  0  0  0  0
 22 23  1  0  0  0  0
 22 24  1  0  0  0  0
 22 25  1  0  0  0  0
M  END
> <VConfSearch Rank>
872

> <Conf_Id>
19

> <Delta U+W>
3.222

> <U+W>
-48.407

> <U>
10.617

> <W>
-59.025

> <W(PB)>
-61.462

> <W(SA)>
2.437

> <Valence>
11.188

> <Coulomb>
-1.778

> <VdW>
1.208

> <VdW6>
-9.786

> <VdW12>
10.993

> <Bond>
0.241

> <Angle>
3.294

> <Pdih>
7.653

> <Idih>
0.001

> <Tether>
0.000

$$$$
VeraChem MOL file


 25 24  0  0  0  0  0  0  0  0999 V2000     
   24.2314   19.9159   22.9084 C   0  0  0  0  0  0  0  0  0  0  0  0
   24.9002   19.3114   23.7233 O   0  5  0  0  0  0  0  0  0  0  0  0
   24.6262   20.8956   22.3075 O   0  0  0  0  0  0  0  0  0  0  0  0
   22.8102   19.4325   22.6423 C   0  0  0  0  0  0  0  0  0  0  0  0
   22.8046   18.3423   22.7503 H   0  0  0  0  0  0  0  0  0  0  0  0
   22.5649   19.6577   21.5976 H   0  0  0  0  0  0  0  0  0  0  0  0
   21.7686   20.0843   23.5889 C   0  0  0  0  0  0  0  0  0  0  0  0
   21.9955   19.8130   24.6292 H   0  0  0  0  0  0  0  0  0  0  0  0
   21.8721   21.1763   23.5242 H   0  0  0  0  0  0  0  0  0  0  0  0
   20.3050   19.7073   23.2563 C   0  0  0  0  0  0  0  0  0  0  0  0
   20.0881   19.9563   22.2087 H   0  0  0  0  0  0  0  0  0  0  0  0
   19.6480   20.3335   23.8729 H   0  0  0  0  0  0  0  0  0  0  0  0
   19.9760   18.2188   23.5217 C   0  0  0  0  0  0  0  0  0  0  0  0
   20.6726   17.5831   22.9612 H   0  0  0  0  0  0  0  0  0  0  0  0
   20.1394   17.9935   24.5844 H   0  0  0  0  0  0  0  0  0  0  0  0
   18.5362   17.8061   23.1241 C   0  0  0  0  0  0  0  0  0  0  0  0
   18.4401   16.7270   23.3062 H   0  0  0  0  0  0  0  0  0  0  0  0
   18.3919   17.9394   22.0432 H   0  0  0  0  0  0  0  0  0  0  0  0
   17.4127   18.5287   23.9088 C   0  0  0  0  0  0  0  0  0  0  0  0
   16.6014   17.8130   24.1006 H   0  0  0  0  0  0  0  0  0  0  0  0
   17.7792   18.8456   24.8949 H   0  0  0  0  0  0  0  0  0  0  0  0
   16.8167   19.7329   23.1459 C   0  0  0  0  0  0  0  0  0  0  0  0
   16.3770   19.4116   22.1927 H   0  0  0  0  0  0  0  0  0  0  0  0
   16.0240   20.2083   23.7377 H   0  0  0  0  0  0  0  0  0  0  0  0
   17.5747   20.4940   22.9283 H   0  0  0  0  0  0  0  0  0  0  0  0
  1  2  1  0  0  0  0
  1  3  2  0  0  0  0
  1  4  1  0  0  0  0
  4  5  1  0  0  0  0
  4  6  1  0  0  0  0
  4  7  1  0  0  0  0
  7  8  1  0  0  0  0
  7  9  1  0  0  0  0
  7 10  1  0  0  0  0
 10 11  1  0  0  0  0
 10 12  1  0  0  0  0
 10 13  1  0  0  0  0
 13 14  1  0  0  0  0
 13 15  1  0  0  0  0
 13 16  1  0  0  0  0
 16 17  1  0  0  0  0
 16 18  1  0  0  0  0
 16 19  1  0  0  0  0
 19 20  1  0  0  0  0
 19 21  1  0  0  0  0
 19 22  1  0  0  0  0
 22 23  1  0  0  0  0
 22 24  1  0  0  0  0
 22 25  1  0  0  0  0
M  END
> <VConfSearch Rank>
873

> <Conf_Id>
20

> <Delta U+W>
3.224

> <U+W>
-48.406

> <U>
10.617

> <W>
-59.023

> <W(PB)>
-61.467

> <W(SA)>
2.444

> <Valence>
11.188

> <Coulomb>
-1.778

> <VdW>
1.208

> <VdW6>
-9.786

> <VdW12>
10.993

> <Bond>
0.241

> <Angle>
3.294

> <Pdih>
7.653

> <Idih>
0.001

> <Tether>
0.000

$$$$
VeraChem MOL file


 25 24  0  0  0  0  0  0  0  0999 V2000     
   18.0616   17.3076   25.3213 C   0  0  0  0  0  0  0  0  0  0  0  0
   17.4867   16.5842   24.5315 O   0  5  0  0  0  0  0  0  0  0  0  0
   17.5334   18.2542   25.8711 O   0  0  0  0  0  0  0  0  0  0  0  0
   19.5044   16.9719   25.6943 C   0  0  0  0  0  0  0  0  0  0  0  0
   19.4761   15.9905   26.1816 H   0  0  0  0  0  0  0  0  0  0  0  0
   19.8532   17.6871   26.4490 H   0  0  0  0  0  0  0  0  0  0  0  0
   20.5019   16.9167   24.5030 C   0  0  0  0  0  0  0  0  0  0  0  0
   21.3742   16.3283   24.8182 H   0  0  0  0  0  0  0  0  0  0  0  0
   20.0535   16.3661   23.6643 H   0  0  0  0  0  0  0  0  0  0  0  0
   21.0135   18.2964   24.0195 C   0  0  0  0  0  0  0  0  0  0  0  0
   21.8160   18.1265   23.2887 H   0  0  0  0  0  0  0  0  0  0  0  0
   21.4708   18.8364   24.8599 H   0  0  0  0  0  0  0  0  0  0  0  0
   19.9255   19.1783   23.3661 C   0  0  0  0  0  0  0  0  0  0  0  0
   19.3972   18.6014   22.5946 H   0  0  0  0  0  0  0  0  0  0  0  0
   19.1803   19.4687   24.1173 H   0  0  0  0  0  0  0  0  0  0  0  0
   20.5261   20.4546   22.7376 C   0  0  0  0  0  0  0  0  0  0  0  0
   21.2684   20.1760   21.9771 H   0  0  0  0  0  0  0  0  0  0  0  0
   21.0580   21.0276   23.5094 H   0  0  0  0  0  0  0  0  0  0  0  0
   19.4391   21.3415   22.0948 C   0  0  0  0  0  0  0  0  0  0  0  0
   18.9056   20.7714   21.3216 H   0  0  0  0  0  0  0  0  0  0  0  0
   18.6954   21.6236   22.8531 H   0  0  0  0  0  0  0  0  0  0  0  0
   20.0416   22.6153   21.4686 C   0  0  0  0  0  0  0  0  0  0  0  0
   20.7666   22.3621   20.6839 H   0  0  0  0  0  0  0  0  0  0  0  0
   19.2551   23.2335   21.0167 H   0  0  0  0  0  0  0  0  0  0  0  0
   20.5548   23.2208   22.2271 H   0  0  0  0  0  0  0  0  0  0  0  0
  1  2  1  0  0  0  0
  1  3  2  0  0  0  0
  1  4  1  0  0  0  0
  4  5  1  0  0  0  0
  4  6  1  0  0  0  0
  4  7  1  0  0  0  0
  7  8  1  0  0  0  0
  7  9  1  0  0  0  0
  7 10  1  0  0  0  0
 10 11  1  0  0  0  0
 10 12  1  0  0  0  0
 10 13  1  0  0  0  0
 13 14  1  0  0  0  0
 13 15  1  0  0  0  0
 13 16  1  0  0  0  0
 16 17  1  0  0  0  0
 16 18  1  0  0  0  0
 16 19  1  0  0  0  0
 19 20  1  0  0  0  0
 19 21  1  0  0  0  0
 19 22  1  0  0  0  0
 22 23  1  0  0  0  0
 22 24  1  0  0  0  0
 22 25  1  0  0  0  0
M  END
> <VConfSearch Rank>
874

> <Conf_Id>
24

> <Delta U+W>
1.784

> <U+W>
-49.846

> <U>
10.904

> <W>
-60.749

> <W(PB)>
-63.220

> <W(SA)>
2.471

> <Valence>
9.445

> <Coulomb>
0.780

> <VdW>
0.679

> <VdW6>
-10.008

> <VdW12>
10.687

> <Bond>
0.201

> <Angle>
3.198

> <Pdih>
6.039

> <Idih>
0.006

> <Tether>
0.000

$$$$
VeraChem MOL file


 25 24  0  0  0  0  0  0  0  0999 V2000     
   17.5809   18.1383   25.2818 C   0  0  0  0  0  0  0  0  0  0  0  0
   16.7318   18.9800   25.0620 O   0  5  0  0  0  0  0  0  0  0  0  0
   17.5808   17.0360   24.7699 O   0  0  0  0  0  0  0  0  0  0  0  0
   18.6692   18.4564   26.3054 C   0  0  0  0  0  0  0  0  0  0  0  0
   19.3174   17.5794   26.4208 H   0  0  0  0  0  0  0  0  0  0  0  0
   18.1580   18.5970   27.2648 H   0  0  0  0  0  0  0  0  0  0  0  0
   19.5216   19.7194   25.9966 C   0  0  0  0  0  0  0  0  0  0  0  0
   18.8682   20.5435   25.6779 H   0  0  0  0  0  0  0  0  0  0  0  0
   19.9892   20.0503   26.9338 H   0  0  0  0  0  0  0  0  0  0  0  0
   20.6495   19.5038   24.9573 C   0  0  0  0  0  0  0  0  0  0  0  0
   21.3056   18.6870   25.2878 H   0  0  0  0  0  0  0  0  0  0  0  0
   21.2714   20.4092   24.9348 H   0  0  0  0  0  0  0  0  0  0  0  0
   20.1414   19.2149   23.5266 C   0  0  0  0  0  0  0  0  0  0  0  0
   19.6285   18.2451   23.5019 H   0  0  0  0  0  0  0  0  0  0  0  0
   19.4046   19.9763   23.2360 H   0  0  0  0  0  0  0  0  0  0  0  0
   21.2973   19.1958   22.5028 C   0  0  0  0  0  0  0  0  0  0  0  0
   22.0354   18.4373   22.7977 H   0  0  0  0  0  0  0  0  0  0  0  0
   21.8135   20.1656   22.5125 H   0  0  0  0  0  0  0  0  0  0  0  0
   20.7924   18.8961   21.0757 C   0  0  0  0  0  0  0  0  0  0  0  0
   20.2769   17.9257   21.0617 H   0  0  0  0  0  0  0  0  0  0  0  0
   20.0543   19.6536   20.7775 H   0  0  0  0  0  0  0  0  0  0  0  0
   21.9487   18.8773   20.0558 C   0  0  0  0  0  0  0  0  0  0  0  0
   22.6867   18.1062   20.3129 H   0  0  0  0  0  0  0  0  0  0  0  0
   21.5717   18.6628   19.0474 H   0  0  0  0  0  0  0  0  0  0  0  0
   22.4623   19.8472   20.0264 H   0  0  0  0  0  0  0  0  0  0  0  0
  1  2  1  0  0  0  0
  1  3  2  0  0  0  0
  1  4  1  0  0  0  0
  4  5  1  0  0  0  0
  4  6  1  0  0  0  0
  4  7  1  0  0  0  0
  7  8  1  0  0  0  0
  7  9  1  0  0  0  0
  7 10  1  0  0  0  0
 10 11  1  0  0  0  0
 10 12  1  0  0  0  0
 10 13  1  0  0  0  0
 13 14  1  0  0  0  0
 13 15  1  0  0  0  0
 13 16  1  0  0  0  0
 16 17  1  0  0  0  0
 16 18  1  0  0  0  0
 16 19  1  0  0  0  0
 19 20  1  0  0  0  0
 19 21  1  0  0  0  0
 19 22  1  0  0  0  0
 22 23  1  0  0  0  0
 22 24  1  0  0  0  0
 22 25  1  0  0  0  0
M  END
> <VConfSearch Rank>
875

> <Conf_Id>
9

> <Delta U+W>
1.764

> <U+W>
-49.865

> <U>
10.902

> <W>
-60.768

> <W(PB)>
-63.223

> <W(SA)>
2.456

> <Valence>
9.445

> <Coulomb>
0.778

> <VdW>
0.679

> <VdW6>
-10.007

> <VdW12>
10.687

> <Bond>
0.201

> <Angle>
3.198

> <Pdih>
6.040

> <Idih>
0.006

> <Tether>
0.000

$$$$
VeraChem MOL file


 25 24  0  0  0  0  0  0  0  0999 V2000     
   16.8644   17.7085   22.0609 C   0  0  0  0  0  0  0  0  0  0  0  0
   17.3234   17.6690   20.9364 O   0  5  0  0  0  0  0  0  0  0  0  0
   15.8687   17.1018   22.4034 O   0  0  0  0  0  0  0  0  0  0  0  0
   17.5894   18.5494   23.1055 C   0  0  0  0  0  0  0  0  0  0  0  0
   16.8387   18.9498   23.7971 H   0  0  0  0  0  0  0  0  0  0  0  0
   18.0391   19.4051   22.5926 H   0  0  0  0  0  0  0  0  0  0  0  0
   18.6574   17.7417   23.8893 C   0  0  0  0  0  0  0  0  0  0  0  0
   18.1491   16.9040   24.3867 H   0  0  0  0  0  0  0  0  0  0  0  0
   19.3779   17.2913   23.1926 H   0  0  0  0  0  0  0  0  0  0  0  0
   19.3999   18.5778   24.9626 C   0  0  0  0  0  0  0  0  0  0  0  0
   19.6104   17.9234   25.8195 H   0  0  0  0  0  0  0  0  0  0  0  0
   18.7455   19.3719   25.3476 H   0  0  0  0  0  0  0  0  0  0  0  0
   20.7491   19.1789   24.4946 C   0  0  0  0  0  0  0  0  0  0  0  0
   21.2223   19.6741   25.3533 H   0  0  0  0  0  0  0  0  0  0  0  0
   21.4214   18.3626   24.1994 H   0  0  0  0  0  0  0  0  0  0  0  0
   20.6236   20.1958   23.3356 C   0  0  0  0  0  0  0  0  0  0  0  0
   19.8357   20.9217   23.5779 H   0  0  0  0  0  0  0  0  0  0  0  0
   20.3094   19.6780   22.4199 H   0  0  0  0  0  0  0  0  0  0  0  0
   21.9343   20.9665   23.0534 C   0  0  0  0  0  0  0  0  0  0  0  0
   21.7363   21.7319   22.2904 H   0  0  0  0  0  0  0  0  0  0  0  0
   22.2508   21.5044   23.9576 H   0  0  0  0  0  0  0  0  0  0  0  0
   23.0817   20.0577   22.5615 C   0  0  0  0  0  0  0  0  0  0  0  0
   22.7792   19.4901   21.6718 H   0  0  0  0  0  0  0  0  0  0  0  0
   23.9612   20.6586   22.2966 H   0  0  0  0  0  0  0  0  0  0  0  0
   23.3876   19.3446   23.3373 H   0  0  0  0  0  0  0  0  0  0  0  0
  1  2  1  0  0  0  0
  1  3  2  0  0  0  0
  1  4  1  0  0  0  0
  4  5  1  0  0  0  0
  4  6  1  0  0  0  0
  4  7  1  0  0  0  0
  7  8  1  0  0  0  0
  7  9  1  0  0  0  0
  7 10  1  0  0  0  0
 10 11  1  0  0  0  0
 10 12  1  0  0  0  0
 10 13  1  0  0  0  0
 13 14  1  0  0  0  0
 13 15  1  0  0  0  0
 13 16  1  0  0  0  0
 16 17  1  0  0  0  0
 16 18  1  0  0  0  0
 16 19  1  0  0  0  0
 19 20  1  0  0  0  0
 19 21  1  0  0  0  0
 19 22  1  0  0  0  0
 22 23  1  0  0  0  0
 22 24  1  0  0  0  0
 22 25  1  0  0  0  0
M  END
> <VConfSearch Rank>
876

> <Conf_Id>
89

> <Delta U+W>
2.903

> <U+W>
-48.726

> <U>
10.996

> <W>
-59.723

> <W(PB)>
-62.151

> <W(SA)>
2.428

> <Valence>
10.985

> <Coulomb>
-0.995

> <VdW>
1.006

> <VdW6>
-10.062

> <VdW12>
11.069

> <Bond>
0.238

> <Angle>
3.202

> <Pdih>
7.544

> <Idih>
0.001

> <Tether>
0.000

$$$$
VeraChem MOL file


 25 24  0  0  0  0  0  0  0  0999 V2000     
   21.5489   21.7895   24.9912 C   0  0  0  0  0  0  0  0  0  0  0  0
   20.5582   22.4830   25.1130 O   0  5  0  0  0  0  0  0  0  0  0  0
   22.1792   21.3495   25.9329 O   0  0  0  0  0  0  0  0  0  0  0  0
   22.0639   21.5115   23.5803 C   0  0  0  0  0  0  0  0  0  0  0  0
   23.0465   21.9924   23.5116 H   0  0  0  0  0  0  0  0  0  0  0  0
   21.4149   22.0197   22.8568 H   0  0  0  0  0  0  0  0  0  0  0  0
   22.2101   20.0083   23.2109 C   0  0  0  0  0  0  0  0  0  0  0  0
   22.9202   19.9333   22.3762 H   0  0  0  0  0  0  0  0  0  0  0  0
   22.6674   19.4593   24.0458 H   0  0  0  0  0  0  0  0  0  0  0  0
   20.8965   19.3129   22.7740 C   0  0  0  0  0  0  0  0  0  0  0  0
   21.1596   18.3229   22.3813 H   0  0  0  0  0  0  0  0  0  0  0  0
   20.4454   19.8665   21.9394 H   0  0  0  0  0  0  0  0  0  0  0  0
   19.8598   19.1527   23.9124 C   0  0  0  0  0  0  0  0  0  0  0  0
   20.3244   18.6533   24.7735 H   0  0  0  0  0  0  0  0  0  0  0  0
   19.5473   20.1453   24.2588 H   0  0  0  0  0  0  0  0  0  0  0  0
   18.5881   18.3803   23.4862 C   0  0  0  0  0  0  0  0  0  0  0  0
   18.1426   18.8618   22.6050 H   0  0  0  0  0  0  0  0  0  0  0  0
   17.8468   18.4636   24.2927 H   0  0  0  0  0  0  0  0  0  0  0  0
   18.8394   16.8833   23.1940 C   0  0  0  0  0  0  0  0  0  0  0  0
   19.5147   16.7714   22.3359 H   0  0  0  0  0  0  0  0  0  0  0  0
   19.3356   16.4160   24.0557 H   0  0  0  0  0  0  0  0  0  0  0  0
   17.5233   16.1374   22.8949 C   0  0  0  0  0  0  0  0  0  0  0  0
   17.0187   16.5675   22.0198 H   0  0  0  0  0  0  0  0  0  0  0  0
   17.7183   15.0773   22.6866 H   0  0  0  0  0  0  0  0  0  0  0  0
   16.8362   16.1937   23.7493 H   0  0  0  0  0  0  0  0  0  0  0  0
  1  2  1  0  0  0  0
  1  3  2  0  0  0  0
  1  4  1  0  0  0  0
  4  5  1  0  0  0  0
  4  6  1  0  0  0  0
  4  7  1  0  0  0  0
  7  8  1  0  0  0  0
  7  9  1  0  0  0  0
  7 10  1  0  0  0  0
 10 11  1  0  0  0  0
 10 12  1  0  0  0  0
 10 13  1  0  0  0  0
 13 14  1  0  0  0  0
 13 15  1  0  0  0  0
 13 16  1  0  0  0  0
 16 17  1  0  0  0  0
 16 18  1  0  0  0  0
 16 19  1  0  0  0  0
 19 20  1  0  0  0  0
 19 21  1  0  0  0  0
 19 22  1  0  0  0  0
 22 23  1  0  0  0  0
 22 24  1  0  0  0  0
 22 25  1  0  0  0  0
M  END
> <VConfSearch Rank>
877

> <Conf_Id>
114

> <Delta U+W>
2.758

> <U+W>
-48.871

> <U>
11.422

> <W>
-60.293

> <W(PB)>
-62.719

> <W(SA)>
2.425

> <Valence>
10.135

> <Coulomb>
0.369

> <VdW>
0.918

> <VdW6>
-10.482

> <VdW12>
11.400

> <Bond>
0.245

> <Angle>
3.539

> <Pdih>
6.346

> <Idih>
0.006

> <Tether>
0.000

$$$$
VeraChem MOL file


 25 24  0  0  0  0  0  0  0  0999 V2000     
   20.9219   17.0059   26.5237 C   0  0  0  0  0  0  0  0  0  0  0  0
   21.0860   17.8107   27.4195 O   0  5  0  0  0  0  0  0  0  0  0  0
   20.0343   16.1757   26.5194 O   0  0  0  0  0  0  0  0  0  0  0  0
   21.8953   17.0235   25.3485 C   0  0  0  0  0  0  0  0  0  0  0  0
   22.1819   15.9852   25.1440 H   0  0  0  0  0  0  0  0  0  0  0  0
   22.8068   17.5495   25.6569 H   0  0  0  0  0  0  0  0  0  0  0  0
   21.3153   17.6642   24.0608 C   0  0  0  0  0  0  0  0  0  0  0  0
   22.0278   17.5183   23.2378 H   0  0  0  0  0  0  0  0  0  0  0  0
   20.3957   17.1325   23.7834 H   0  0  0  0  0  0  0  0  0  0  0  0
   21.0311   19.1762   24.2287 C   0  0  0  0  0  0  0  0  0  0  0  0
   21.9408   19.6701   24.5969 H   0  0  0  0  0  0  0  0  0  0  0  0
   20.2634   19.3290   24.9998 H   0  0  0  0  0  0  0  0  0  0  0  0
   20.5918   19.8730   22.9187 C   0  0  0  0  0  0  0  0  0  0  0  0
   20.5585   20.9539   23.1049 H   0  0  0  0  0  0  0  0  0  0  0  0
   21.3536   19.7137   22.1435 H   0  0  0  0  0  0  0  0  0  0  0  0
   19.2115   19.3983   22.4011 C   0  0  0  0  0  0  0  0  0  0  0  0
   18.4508   19.5545   23.1780 H   0  0  0  0  0  0  0  0  0  0  0  0
   19.2446   18.3183   22.2102 H   0  0  0  0  0  0  0  0  0  0  0  0
   18.7699   20.1010   21.0958 C   0  0  0  0  0  0  0  0  0  0  0  0
   19.5341   19.9566   20.3197 H   0  0  0  0  0  0  0  0  0  0  0  0
   17.8571   19.6137   20.7263 H   0  0  0  0  0  0  0  0  0  0  0  0
   18.4878   21.6087   21.2747 C   0  0  0  0  0  0  0  0  0  0  0  0
   18.0871   22.0365   20.3466 H   0  0  0  0  0  0  0  0  0  0  0  0
   17.7512   21.7790   22.0706 H   0  0  0  0  0  0  0  0  0  0  0  0
   19.4014   22.1614   21.5264 H   0  0  0  0  0  0  0  0  0  0  0  0
  1  2  1  0  0  0  0
  1  3  2  0  0  0  0
  1  4  1  0  0  0  0
  4  5  1  0  0  0  0
  4  6  1  0  0  0  0
  4  7  1  0  0  0  0
  7  8  1  0  0  0  0
  7  9  1  0  0  0  0
  7 10  1  0  0  0  0
 10 11  1  0  0  0  0
 10 12  1  0  0  0  0
 10 13  1  0  0  0  0
 13 14  1  0  0  0  0
 13 15  1  0  0  0  0
 13 16  1  0  0  0  0
 16 17  1  0  0  0  0
 16 18  1  0  0  0  0
 16 19  1  0  0  0  0
 19 20  1  0  0  0  0
 19 21  1  0  0  0  0
 19 22  1  0  0  0  0
 22 23  1  0  0  0  0
 22 24  1  0  0  0  0
 22 25  1  0  0  0  0
M  END
> <VConfSearch Rank>
878

> <Conf_Id>
87

> <Delta U+W>
1.453

> <U+W>
-50.176

> <U>
9.763

> <W>
-59.940

> <W(PB)>
-62.392

> <W(SA)>
2.452

> <Valence>
8.883

> <Coulomb>
-0.122

> <VdW>
1.003

> <VdW6>
-9.782

> <VdW12>
10.785

> <Bond>
0.212

> <Angle>
2.940

> <Pdih>
5.730

> <Idih>
0.001

> <Tether>
0.000

$$$$
VeraChem MOL file


 25 24  0  0  0  0  0  0  0  0999 V2000     
   23.7099   17.7968   24.1810 C   0  0  0  0  0  0  0  0  0  0  0  0
   23.8158   16.8460   23.4318 O   0  5  0  0  0  0  0  0  0  0  0  0
   24.6446   18.4973   24.5162 O   0  0  0  0  0  0  0  0  0  0  0  0
   22.3244   18.1413   24.7157 C   0  0  0  0  0  0  0  0  0  0  0  0
   22.4424   18.5629   25.7211 H   0  0  0  0  0  0  0  0  0  0  0  0
   21.7575   17.2083   24.8195 H   0  0  0  0  0  0  0  0  0  0  0  0
   21.5581   19.1327   23.8059 C   0  0  0  0  0  0  0  0  0  0  0  0
   22.1412   20.0583   23.7043 H   0  0  0  0  0  0  0  0  0  0  0  0
   21.4700   18.6975   22.8016 H   0  0  0  0  0  0  0  0  0  0  0  0
   20.1548   19.4591   24.3671 C   0  0  0  0  0  0  0  0  0  0  0  0
   20.2586   19.8275   25.3967 H   0  0  0  0  0  0  0  0  0  0  0  0
   19.5572   18.5404   24.4313 H   0  0  0  0  0  0  0  0  0  0  0  0
   19.3936   20.5266   23.5415 C   0  0  0  0  0  0  0  0  0  0  0  0
   18.4382   20.7431   24.0372 H   0  0  0  0  0  0  0  0  0  0  0  0
   19.9615   21.4664   23.5686 H   0  0  0  0  0  0  0  0  0  0  0  0
   19.1271   20.1523   22.0594 C   0  0  0  0  0  0  0  0  0  0  0  0
   20.0823   20.0964   21.5213 H   0  0  0  0  0  0  0  0  0  0  0  0
   18.5685   20.9716   21.5869 H   0  0  0  0  0  0  0  0  0  0  0  0
   18.3508   18.8299   21.8426 C   0  0  0  0  0  0  0  0  0  0  0  0
   18.2454   18.6588   20.7625 H   0  0  0  0  0  0  0  0  0  0  0  0
   18.9327   17.9826   22.2289 H   0  0  0  0  0  0  0  0  0  0  0  0
   16.9466   18.8344   22.4846 C   0  0  0  0  0  0  0  0  0  0  0  0
   16.3527   19.6842   22.1241 H   0  0  0  0  0  0  0  0  0  0  0  0
   16.4063   17.9126   22.2335 H   0  0  0  0  0  0  0  0  0  0  0  0
   17.0088   18.8965   23.5783 H   0  0  0  0  0  0  0  0  0  0  0  0
  1  2  1  0  0  0  0
  1  3  2  0  0  0  0
  1  4  1  0  0  0  0
  4  5  1  0  0  0  0
  4  6  1  0  0  0  0
  4  7  1  0  0  0  0
  7  8  1  0  0  0  0
  7  9  1  0  0  0  0
  7 10  1  0  0  0  0
 10 11  1  0  0  0  0
 10 12  1  0  0  0  0
 10 13  1  0  0  0  0
 13 14  1  0  0  0  0
 13 15  1  0  0  0  0
 13 16  1  0  0  0  0
 16 17  1  0  0  0  0
 16 18  1  0  0  0  0
 16 19  1  0  0  0  0
 19 20  1  0  0  0  0
 19 21  1  0  0  0  0
 19 22  1  0  0  0  0
 22 23  1  0  0  0  0
 22 24  1  0  0  0  0
 22 25  1  0  0  0  0
M  END
> <VConfSearch Rank>
879

> <Conf_Id>
29

> <Delta U+W>
0.850

> <U+W>
-50.780

> <U>
8.646

> <W>
-59.426

> <W(PB)>
-61.868

> <W(SA)>
2.442

> <Valence>
8.924

> <Coulomb>
-1.171

> <VdW>
0.894

> <VdW6>
-10.223

> <VdW12>
11.117

> <Bond>
0.231

> <Angle>
3.232

> <Pdih>
5.461

> <Idih>
0.001

> <Tether>
0.000

$$$$
VeraChem MOL file


 25 24  0  0  0  0  0  0  0  0999 V2000     
   22.3563   19.2006   20.1583 C   0  0  0  0  0  0  0  0  0  0  0  0
   21.5640   19.3973   19.2581 O   0  5  0  0  0  0  0  0  0  0  0  0
   23.3679   18.5391   20.0323 O   0  0  0  0  0  0  0  0  0  0  0  0
   22.0550   19.8012   21.5267 C   0  0  0  0  0  0  0  0  0  0  0  0
   21.5172   20.7446   21.3737 H   0  0  0  0  0  0  0  0  0  0  0  0
   23.0090   20.0459   22.0088 H   0  0  0  0  0  0  0  0  0  0  0  0
   21.2260   18.8549   22.4295 C   0  0  0  0  0  0  0  0  0  0  0  0
   20.2861   18.6089   21.9176 H   0  0  0  0  0  0  0  0  0  0  0  0
   21.7727   17.9118   22.5669 H   0  0  0  0  0  0  0  0  0  0  0  0
   20.9285   19.4909   23.8070 C   0  0  0  0  0  0  0  0  0  0  0  0
   20.3474   20.4127   23.6731 H   0  0  0  0  0  0  0  0  0  0  0  0
   21.8761   19.7933   24.2731 H   0  0  0  0  0  0  0  0  0  0  0  0
   20.1890   18.5380   24.7794 C   0  0  0  0  0  0  0  0  0  0  0  0
   20.8280   17.6663   24.9752 H   0  0  0  0  0  0  0  0  0  0  0  0
   20.0700   19.0419   25.7475 H   0  0  0  0  0  0  0  0  0  0  0  0
   18.8043   18.0364   24.2908 C   0  0  0  0  0  0  0  0  0  0  0  0
   18.3728   17.3899   25.0669 H   0  0  0  0  0  0  0  0  0  0  0  0
   18.9403   17.3930   23.4117 H   0  0  0  0  0  0  0  0  0  0  0  0
   17.7841   19.1491   23.9452 C   0  0  0  0  0  0  0  0  0  0  0  0
   18.1558   19.7559   23.1089 H   0  0  0  0  0  0  0  0  0  0  0  0
   16.8579   18.6771   23.5899 H   0  0  0  0  0  0  0  0  0  0  0  0
   17.4484   20.0627   25.1438 C   0  0  0  0  0  0  0  0  0  0  0  0
   18.3264   20.6369   25.4653 H   0  0  0  0  0  0  0  0  0  0  0  0
   16.6626   20.7795   24.8725 H   0  0  0  0  0  0  0  0  0  0  0  0
   17.0897   19.4740   25.9980 H   0  0  0  0  0  0  0  0  0  0  0  0
  1  2  1  0  0  0  0
  1  3  2  0  0  0  0
  1  4  1  0  0  0  0
  4  5  1  0  0  0  0
  4  6  1  0  0  0  0
  4  7  1  0  0  0  0
  7  8  1  0  0  0  0
  7  9  1  0  0  0  0
  7 10  1  0  0  0  0
 10 11  1  0  0  0  0
 10 12  1  0  0  0  0
 10 13  1  0  0  0  0
 13 14  1  0  0  0  0
 13 15  1  0  0  0  0
 13 16  1  0  0  0  0
 16 17  1  0  0  0  0
 16 18  1  0  0  0  0
 16 19  1  0  0  0  0
 19 20  1  0  0  0  0
 19 21  1  0  0  0  0
 19 22  1  0  0  0  0
 22 23  1  0  0  0  0
 22 24  1  0  0  0  0
 22 25  1  0  0  0  0
M  END
> <VConfSearch Rank>
880

> <Conf_Id>
30

> <Delta U+W>
0.843

> <U+W>
-50.787

> <U>
8.647

> <W>
-59.434

> <W(PB)>
-61.861

> <W(SA)>
2.428

> <Valence>
8.924

> <Coulomb>
-1.170

> <VdW>
0.894

> <VdW6>
-10.224

> <VdW12>
11.118

> <Bond>
0.231

> <Angle>
3.232

> <Pdih>
5.460

> <Idih>
0.000

> <Tether>
0.000

$$$$
VeraChem MOL file


 25 24  0  0  0  0  0  0  0  0999 V2000     
   24.6353   18.4741   24.0315 C   0  0  0  0  0  0  0  0  0  0  0  0
   24.9419   19.6222   23.7737 O   0  5  0  0  0  0  0  0  0  0  0  0
   25.4407   17.6346   24.3816 O   0  0  0  0  0  0  0  0  0  0  0  0
   23.1743   18.0356   23.9189 C   0  0  0  0  0  0  0  0  0  0  0  0
   22.8738   17.6450   24.8982 H   0  0  0  0  0  0  0  0  0  0  0  0
   23.1382   17.1967   23.2139 H   0  0  0  0  0  0  0  0  0  0  0  0
   22.1836   19.1421   23.4688 C   0  0  0  0  0  0  0  0  0  0  0  0
   22.2296   19.9820   24.1759 H   0  0  0  0  0  0  0  0  0  0  0  0
   22.4942   19.5333   22.4900 H   0  0  0  0  0  0  0  0  0  0  0  0
   20.7347   18.6150   23.3817 C   0  0  0  0  0  0  0  0  0  0  0  0
   20.4264   18.2244   24.3612 H   0  0  0  0  0  0  0  0  0  0  0  0
   20.6912   17.7754   22.6744 H   0  0  0  0  0  0  0  0  0  0  0  0
   19.7510   19.7174   22.9339 C   0  0  0  0  0  0  0  0  0  0  0  0
   19.7942   20.5571   23.6410 H   0  0  0  0  0  0  0  0  0  0  0  0
   20.0590   20.1081   21.9543 H   0  0  0  0  0  0  0  0  0  0  0  0
   18.3021   19.1910   22.8465 C   0  0  0  0  0  0  0  0  0  0  0  0
   17.9938   18.8003   23.8260 H   0  0  0  0  0  0  0  0  0  0  0  0
   18.2586   18.3513   22.1393 H   0  0  0  0  0  0  0  0  0  0  0  0
   17.3186   20.2928   22.3990 C   0  0  0  0  0  0  0  0  0  0  0  0
   17.3580   21.1337   23.1052 H   0  0  0  0  0  0  0  0  0  0  0  0
   17.6228   20.6848   21.4185 H   0  0  0  0  0  0  0  0  0  0  0  0
   15.8730   19.7633   22.3130 C   0  0  0  0  0  0  0  0  0  0  0  0
   15.5315   19.3934   23.2887 H   0  0  0  0  0  0  0  0  0  0  0  0
   15.1878   20.5592   21.9936 H   0  0  0  0  0  0  0  0  0  0  0  0
   15.7982   18.9411   21.5893 H   0  0  0  0  0  0  0  0  0  0  0  0
  1  2  1  0  0  0  0
  1  3  2  0  0  0  0
  1  4  1  0  0  0  0
  4  5  1  0  0  0  0
  4  6  1  0  0  0  0
  4  7  1  0  0  0  0
  7  8  1  0  0  0  0
  7  9  1  0  0  0  0
  7 10  1  0  0  0  0
 10 11  1  0  0  0  0
 10 12  1  0  0  0  0
 10 13  1  0  0  0  0
 13 14  1  0  0  0  0
 13 15  1  0  0  0  0
 13 16  1  0  0  0  0
 16 17  1  0  0  0  0
 16 18  1  0  0  0  0
 16 19  1  0  0  0  0
 19 20  1  0  0  0  0
 19 21  1  0  0  0  0
 19 22  1  0  0  0  0
 22 23  1  0  0  0  0
 22 24  1  0  0  0  0
 22 25  1  0  0  0  0
M  END
> <VConfSearch Rank>
881

> <Conf_Id>
0

> <Delta U+W>
0.000

> <U+W>
-51.629

> <U>
6.586

> <W>
-58.216

> <W(PB)>
-60.757

> <W(SA)>
2.541

> <Valence>
8.027

> <Coulomb>
-2.892

> <VdW>
1.451

> <VdW6>
-7.931

> <VdW12>
9.383

> <Bond>
0.149

> <Angle>
2.726

> <Pdih>
5.152

> <Idih>
0.000

> <Tether>
0.000

$$$$
VeraChem MOL file


 25 24  0  0  0  0  0  0  0  0999 V2000     
   21.5357   23.0852   25.2220 C   0  0  0  0  0  0  0  0  0  0  0  0
   21.0800   24.1018   24.7368 O   0  5  0  0  0  0  0  0  0  0  0  0
   21.8016   22.9623   26.4013 O   0  0  0  0  0  0  0  0  0  0  0  0
   21.7650   21.8897   24.3042 C   0  0  0  0  0  0  0  0  0  0  0  0
   22.6288   21.3302   24.6831 H   0  0  0  0  0  0  0  0  0  0  0  0
   22.0347   22.2693   23.3114 H   0  0  0  0  0  0  0  0  0  0  0  0
   20.5290   20.9623   24.2045 C   0  0  0  0  0  0  0  0  0  0  0  0
   20.2641   20.6014   25.2082 H   0  0  0  0  0  0  0  0  0  0  0  0
   19.6701   21.5407   23.8366 H   0  0  0  0  0  0  0  0  0  0  0  0
   20.7859   19.7603   23.2701 C   0  0  0  0  0  0  0  0  0  0  0  0
   21.6457   19.1848   23.6400 H   0  0  0  0  0  0  0  0  0  0  0  0
   21.0517   20.1243   22.2681 H   0  0  0  0  0  0  0  0  0  0  0  0
   19.5519   18.8376   23.1725 C   0  0  0  0  0  0  0  0  0  0  0  0
   19.2860   18.4734   24.1744 H   0  0  0  0  0  0  0  0  0  0  0  0
   18.6920   19.4129   22.8027 H   0  0  0  0  0  0  0  0  0  0  0  0
   19.8081   17.6354   22.2382 C   0  0  0  0  0  0  0  0  0  0  0  0
   20.6679   17.0599   22.6079 H   0  0  0  0  0  0  0  0  0  0  0  0
   20.0741   17.9994   21.2363 H   0  0  0  0  0  0  0  0  0  0  0  0
   18.5747   16.7132   22.1405 C   0  0  0  0  0  0  0  0  0  0  0  0
   18.3068   16.3456   23.1408 H   0  0  0  0  0  0  0  0  0  0  0  0
   17.7130   17.2850   21.7692 H   0  0  0  0  0  0  0  0  0  0  0  0
   18.8346   15.5140   21.2067 C   0  0  0  0  0  0  0  0  0  0  0  0
   17.9479   14.8693   21.1491 H   0  0  0  0  0  0  0  0  0  0  0  0
   19.0742   15.8524   20.1902 H   0  0  0  0  0  0  0  0  0  0  0  0
   19.6725   14.9059   21.5721 H   0  0  0  0  0  0  0  0  0  0  0  0
  1  2  1  0  0  0  0
  1  3  2  0  0  0  0
  1  4  1  0  0  0  0
  4  5  1  0  0  0  0
  4  6  1  0  0  0  0
  4  7  1  0  0  0  0
  7  8  1  0  0  0  0
  7  9  1  0  0  0  0
  7 10  1  0  0  0  0
 10 11  1  0  0  0  0
 10 12  1  0  0  0  0
 10 13  1  0  0  0  0
 13 14  1  0  0  0  0
 13 15  1  0  0  0  0
 13 16  1  0  0  0  0
 16 17  1  0  0  0  0
 16 18  1  0  0  0  0
 16 19  1  0  0  0  0
 19 20  1  0  0  0  0
 19 21  1  0  0  0  0
 19 22  1  0  0  0  0
 22 23  1  0  0  0  0
 22 24  1  0  0  0  0
 22 25  1  0  0  0  0
M  END
> <VConfSearch Rank>
882

> <Conf_Id>
27

> <Delta U+W>
-1.297

> <U+W>
-52.926

> <U>
5.617

> <W>
-58.543

> <W(PB)>
-61.065

> <W(SA)>
2.522

> <Valence>
7.531

> <Coulomb>
-2.818

> <VdW>
0.904

> <VdW6>
-7.640

> <VdW12>
8.544

> <Bond>
0.115

> <Angle>
2.271

> <Pdih>
5.144

> <Idih>
0.001

> <Tether>
0.000

$$$$
VeraChem MOL file


 25 24  0  0  0  0  0  0  0  0999 V2000     
   23.1130   21.6408   22.1634 C   0  0  0  0  0  0  0  0  0  0  0  0
   23.0878   21.8896   20.9741 O   0  5  0  0  0  0  0  0  0  0  0  0
   22.8783   22.4623   23.0278 O   0  0  0  0  0  0  0  0  0  0  0  0
   23.4762   20.2223   22.5934 C   0  0  0  0  0  0  0  0  0  0  0  0
   23.7886   20.2442   23.6444 H   0  0  0  0  0  0  0  0  0  0  0  0
   24.3515   19.9164   22.0084 H   0  0  0  0  0  0  0  0  0  0  0  0
   22.3344   19.1918   22.3951 C   0  0  0  0  0  0  0  0  0  0  0  0
   22.0139   19.2015   21.3440 H   0  0  0  0  0  0  0  0  0  0  0  0
   22.7240   18.1849   22.5975 H   0  0  0  0  0  0  0  0  0  0  0  0
   21.1225   19.4634   23.3144 C   0  0  0  0  0  0  0  0  0  0  0  0
   20.7160   20.4628   23.1056 H   0  0  0  0  0  0  0  0  0  0  0  0
   21.4505   19.4661   24.3630 H   0  0  0  0  0  0  0  0  0  0  0  0
   20.0120   18.4080   23.1235 C   0  0  0  0  0  0  0  0  0  0  0  0
   19.6846   18.4061   22.0747 H   0  0  0  0  0  0  0  0  0  0  0  0
   20.4154   17.4081   23.3347 H   0  0  0  0  0  0  0  0  0  0  0  0
   18.8003   18.6793   24.0411 C   0  0  0  0  0  0  0  0  0  0  0  0
   18.3969   19.6792   23.8301 H   0  0  0  0  0  0  0  0  0  0  0  0
   19.1275   18.6816   25.0899 H   0  0  0  0  0  0  0  0  0  0  0  0
   17.6899   17.6249   23.8502 C   0  0  0  0  0  0  0  0  0  0  0  0
   17.3588   17.6211   22.8024 H   0  0  0  0  0  0  0  0  0  0  0  0
   18.0894   16.6235   24.0624 H   0  0  0  0  0  0  0  0  0  0  0  0
   16.4818   17.8995   24.7682 C   0  0  0  0  0  0  0  0  0  0  0  0
   16.0424   18.8829   24.5555 H   0  0  0  0  0  0  0  0  0  0  0  0
   15.7024   17.1408   24.6195 H   0  0  0  0  0  0  0  0  0  0  0  0
   16.7785   17.8779   25.8250 H   0  0  0  0  0  0  0  0  0  0  0  0
  1  2  1  0  0  0  0
  1  3  2  0  0  0  0
  1  4  1  0  0  0  0
  4  5  1  0  0  0  0
  4  6  1  0  0  0  0
  4  7  1  0  0  0  0
  7  8  1  0  0  0  0
  7  9  1  0  0  0  0
  7 10  1  0  0  0  0
 10 11  1  0  0  0  0
 10 12  1  0  0  0  0
 10 13  1  0  0  0  0
 13 14  1  0  0  0  0
 13 15  1  0  0  0  0
 13 16  1  0  0  0  0
 16 17  1  0  0  0  0
 16 18  1  0  0  0  0
 16 19  1  0  0  0  0
 19 20  1  0  0  0  0
 19 21  1  0  0  0  0
 19 22  1  0  0  0  0
 22 23  1  0  0  0  0
 22 24  1  0  0  0  0
 22 25  1  0  0  0  0
M  END
> <VConfSearch Rank>
883

> <Conf_Id>
37

> <Delta U+W>
-0.230

> <U+W>
-51.860

> <U>
7.816

> <W>
-59.675

> <W(PB)>
-62.180

> <W(SA)>
2.505

> <Valence>
7.785

> <Coulomb>
-0.713

> <VdW>
0.744

> <VdW6>
-8.514

> <VdW12>
9.259

> <Bond>
0.136

> <Angle>
2.433

> <Pdih>
5.216

> <Idih>
0.000

> <Tether>
0.000

$$$$
VeraChem MOL file


 25 24  0  0  0  0  0  0  0  0999 V2000     
   16.9576   21.0642   21.3232 C   0  0  0  0  0  0  0  0  0  0  0  0
   16.2818   21.8081   22.0065 O   0  5  0  0  0  0  0  0  0  0  0  0
   16.5448   20.0227   20.8522 O   0  0  0  0  0  0  0  0  0  0  0  0
   18.3989   21.4702   21.0282 C   0  0  0  0  0  0  0  0  0  0  0  0
   18.3891   22.5282   20.7408 H   0  0  0  0  0  0  0  0  0  0  0  0
   18.7494   20.9071   20.1548 H   0  0  0  0  0  0  0  0  0  0  0  0
   19.3680   21.2662   22.2215 C   0  0  0  0  0  0  0  0  0  0  0  0
   20.3415   21.7083   21.9697 H   0  0  0  0  0  0  0  0  0  0  0  0
   18.9889   21.8133   23.0959 H   0  0  0  0  0  0  0  0  0  0  0  0
   19.5629   19.7759   22.5807 C   0  0  0  0  0  0  0  0  0  0  0  0
   19.9292   19.2310   21.6999 H   0  0  0  0  0  0  0  0  0  0  0  0
   18.5954   19.3306   22.8508 H   0  0  0  0  0  0  0  0  0  0  0  0
   20.5551   19.5946   23.7496 C   0  0  0  0  0  0  0  0  0  0  0  0
   21.5243   20.0366   23.4806 H   0  0  0  0  0  0  0  0  0  0  0  0
   20.1880   20.1398   24.6300 H   0  0  0  0  0  0  0  0  0  0  0  0
   20.7499   18.1058   24.1095 C   0  0  0  0  0  0  0  0  0  0  0  0
   21.1167   17.5604   23.2292 H   0  0  0  0  0  0  0  0  0  0  0  0
   19.7807   17.6636   24.3784 H   0  0  0  0  0  0  0  0  0  0  0  0
   21.7411   17.9240   25.2782 C   0  0  0  0  0  0  0  0  0  0  0  0
   22.7123   18.3637   25.0120 H   0  0  0  0  0  0  0  0  0  0  0  0
   21.3762   18.4668   26.1612 H   0  0  0  0  0  0  0  0  0  0  0  0
   21.9327   16.4361   25.6345 C   0  0  0  0  0  0  0  0  0  0  0  0
   22.3273   15.8746   24.7775 H   0  0  0  0  0  0  0  0  0  0  0  0
   22.6399   16.3255   26.4667 H   0  0  0  0  0  0  0  0  0  0  0  0
   20.9811   15.9785   25.9353 H   0  0  0  0  0  0  0  0  0  0  0  0
  1  2  1  0  0  0  0
  1  3  2  0  0  0  0
  1  4  1  0  0  0  0
  4  5  1  0  0  0  0
  4  6  1  0  0  0  0
  4  7  1  0  0  0  0
  7  8  1  0  0  0  0
  7  9  1  0  0  0  0
  7 10  1  0  0  0  0
 10 11  1  0  0  0  0
 10 12  1  0  0  0  0
 10 13  1  0  0  0  0
 13 14  1  0  0  0  0
 13 15  1  0  0  0  0
 13 16  1  0  0  0  0
 16 17  1  0  0  0  0
 16 18  1  0  0  0  0
 16 19  1  0  0  0  0
 19 20  1  0  0  0  0
 19 21  1  0  0  0  0
 19 22  1  0  0  0  0
 22 23  1  0  0  0  0
 22 24  1  0  0  0  0
 22 25  1  0  0  0  0
M  END
> <VConfSearch Rank>
884

> <Conf_Id>
54

> <Delta U+W>
-0.224

> <U+W>
-51.854

> <U>
7.816

> <W>
-59.670

> <W(PB)>
-62.157

> <W(SA)>
2.487

> <Valence>
7.785

> <Coulomb>
-0.713

> <VdW>
0.744

> <VdW6>
-8.515

> <VdW12>
9.259

> <Bond>
0.136

> <Angle>
2.433

> <Pdih>
5.215

> <Idih>
0.000

> <Tether>
0.000

$$$$
VeraChem MOL file


 25 24  0  0  0  0  0  0  0  0999 V2000     
   17.0061   18.9934   20.7377 C   0  0  0  0  0  0  0  0  0  0  0  0
   17.4627   19.3667   19.6750 O   0  5  0  0  0  0  0  0  0  0  0  0
   16.3509   17.9782   20.8687 O   0  0  0  0  0  0  0  0  0  0  0  0
   17.2521   19.8549   21.9732 C   0  0  0  0  0  0  0  0  0  0  0  0
   16.2950   19.9531   22.4989 H   0  0  0  0  0  0  0  0  0  0  0  0
   17.5399   20.8616   21.6470 H   0  0  0  0  0  0  0  0  0  0  0  0
   18.3182   19.2807   22.9424 C   0  0  0  0  0  0  0  0  0  0  0  0
   18.3092   19.8798   23.8616 H   0  0  0  0  0  0  0  0  0  0  0  0
   18.0372   18.2574   23.2273 H   0  0  0  0  0  0  0  0  0  0  0  0
   19.7399   19.2834   22.3303 C   0  0  0  0  0  0  0  0  0  0  0  0
   20.0380   20.3126   22.0879 H   0  0  0  0  0  0  0  0  0  0  0  0
   19.7220   18.7352   21.3784 H   0  0  0  0  0  0  0  0  0  0  0  0
   20.8087   18.6349   23.2424 C   0  0  0  0  0  0  0  0  0  0  0  0
   20.5009   17.6123   23.4998 H   0  0  0  0  0  0  0  0  0  0  0  0
   21.7366   18.5438   22.6637 H   0  0  0  0  0  0  0  0  0  0  0  0
   21.0882   19.4388   24.5363 C   0  0  0  0  0  0  0  0  0  0  0  0
   20.1634   19.5250   25.1205 H   0  0  0  0  0  0  0  0  0  0  0  0
   21.3911   20.4627   24.2784 H   0  0  0  0  0  0  0  0  0  0  0  0
   22.1649   18.7934   25.4400 C   0  0  0  0  0  0  0  0  0  0  0  0
   22.2023   19.3443   26.3899 H   0  0  0  0  0  0  0  0  0  0  0  0
   21.8714   17.7644   25.6901 H   0  0  0  0  0  0  0  0  0  0  0  0
   23.5757   18.7944   24.8120 C   0  0  0  0  0  0  0  0  0  0  0  0
   23.6200   18.1542   23.9222 H   0  0  0  0  0  0  0  0  0  0  0  0
   23.8760   19.8097   24.5218 H   0  0  0  0  0  0  0  0  0  0  0  0
   24.3150   18.4158   25.5295 H   0  0  0  0  0  0  0  0  0  0  0  0
  1  2  1  0  0  0  0
  1  3  2  0  0  0  0
  1  4  1  0  0  0  0
  4  5  1  0  0  0  0
  4  6  1  0  0  0  0
  4  7  1  0  0  0  0
  7  8  1  0  0  0  0
  7  9  1  0  0  0  0
  7 10  1  0  0  0  0
 10 11  1  0  0  0  0
 10 12  1  0  0  0  0
 10 13  1  0  0  0  0
 13 14  1  0  0  0  0
 13 15  1  0  0  0  0
 13 16  1  0  0  0  0
 16 17  1  0  0  0  0
 16 18  1  0  0  0  0
 16 19  1  0  0  0  0
 19 20  1  0  0  0  0
 19 21  1  0  0  0  0
 19 22  1  0  0  0  0
 22 23  1  0  0  0  0
 22 24  1  0  0  0  0
 22 25  1  0  0  0  0
M  END
> <VConfSearch Rank>
885

> <Conf_Id>
101

> <Delta U+W>
1.534

> <U+W>
-50.095

> <U>
9.416

> <W>
-59.512

> <W(PB)>
-61.988

> <W(SA)>
2.476

> <Valence>
8.939

> <Coulomb>
-0.615

> <VdW>
1.092

> <VdW6>
-9.710

> <VdW12>
10.802

> <Bond>
0.216

> <Angle>
2.979

> <Pdih>
5.743

> <Idih>
0.000

> <Tether>
0.000

$$$$
VeraChem MOL file


 25 24  0  0  0  0  0  0  0  0999 V2000     
   19.9059   23.0296   24.9501 C   0  0  0  0  0  0  0  0  0  0  0  0
   18.8266   23.5041   24.6557 O   0  5  0  0  0  0  0  0  0  0  0  0
   20.5836   23.4236   25.8788 O   0  0  0  0  0  0  0  0  0  0  0  0
   20.4286   21.8607   24.1228 C   0  0  0  0  0  0  0  0  0  0  0  0
   21.5236   21.9170   24.1086 H   0  0  0  0  0  0  0  0  0  0  0  0
   20.0819   22.0012   23.0930 H   0  0  0  0  0  0  0  0  0  0  0  0
   19.9705   20.4849   24.6732 C   0  0  0  0  0  0  0  0  0  0  0  0
   20.2494   20.4210   25.7341 H   0  0  0  0  0  0  0  0  0  0  0  0
   18.8742   20.4207   24.6368 H   0  0  0  0  0  0  0  0  0  0  0  0
   20.5900   19.2795   23.9263 C   0  0  0  0  0  0  0  0  0  0  0  0
   20.3216   18.3674   24.4746 H   0  0  0  0  0  0  0  0  0  0  0  0
   21.6857   19.3509   23.9556 H   0  0  0  0  0  0  0  0  0  0  0  0
   20.1127   19.1533   22.4586 C   0  0  0  0  0  0  0  0  0  0  0  0
   19.0177   19.0811   22.4294 H   0  0  0  0  0  0  0  0  0  0  0  0
   20.3722   20.0674   21.9103 H   0  0  0  0  0  0  0  0  0  0  0  0
   20.7424   17.9547   21.7042 C   0  0  0  0  0  0  0  0  0  0  0  0
   21.8320   18.0898   21.6690 H   0  0  0  0  0  0  0  0  0  0  0  0
   20.4009   17.9791   20.6605 H   0  0  0  0  0  0  0  0  0  0  0  0
   20.4324   16.5570   22.2958 C   0  0  0  0  0  0  0  0  0  0  0  0
   20.9343   15.7984   21.6797 H   0  0  0  0  0  0  0  0  0  0  0  0
   20.8658   16.4649   23.3003 H   0  0  0  0  0  0  0  0  0  0  0  0
   18.9233   16.2347   22.3478 C   0  0  0  0  0  0  0  0  0  0  0  0
   18.4637   16.3441   21.3569 H   0  0  0  0  0  0  0  0  0  0  0  0
   18.7622   15.2023   22.6839 H   0  0  0  0  0  0  0  0  0  0  0  0
   18.3982   16.8976   23.0470 H   0  0  0  0  0  0  0  0  0  0  0  0
  1  2  1  0  0  0  0
  1  3  2  0  0  0  0
  1  4  1  0  0  0  0
  4  5  1  0  0  0  0
  4  6  1  0  0  0  0
  4  7  1  0  0  0  0
  7  8  1  0  0  0  0
  7  9  1  0  0  0  0
  7 10  1  0  0  0  0
 10 11  1  0  0  0  0
 10 12  1  0  0  0  0
 10 13  1  0  0  0  0
 13 14  1  0  0  0  0
 13 15  1  0  0  0  0
 13 16  1  0  0  0  0
 16 17  1  0  0  0  0
 16 18  1  0  0  0  0
 16 19  1  0  0  0  0
 19 20  1  0  0  0  0
 19 21  1  0  0  0  0
 19 22  1  0  0  0  0
 22 23  1  0  0  0  0
 22 24  1  0  0  0  0
 22 25  1  0  0  0  0
M  END
> <VConfSearch Rank>
886

> <Conf_Id>
75

> <Delta U+W>
1.014

> <U+W>
-50.615

> <U>
8.474

> <W>
-59.089

> <W(PB)>
-61.530

> <W(SA)>
2.441

> <Valence>
9.080

> <Coulomb>
-1.772

> <VdW>
1.165

> <VdW6>
-9.830

> <VdW12>
10.996

> <Bond>
0.240

> <Angle>
3.225

> <Pdih>
5.615

> <Idih>
0.001

> <Tether>
0.000

$$$$
VeraChem MOL file


 25 24  0  0  0  0  0  0  0  0999 V2000     
   20.7035   23.2235   24.3674 C   0  0  0  0  0  0  0  0  0  0  0  0
   19.8293   23.8918   23.8519 O   0  5  0  0  0  0  0  0  0  0  0  0
   21.2911   23.5488   25.3801 O   0  0  0  0  0  0  0  0  0  0  0  0
   21.0688   21.8928   23.7194 C   0  0  0  0  0  0  0  0  0  0  0  0
   22.1360   21.7104   23.8938 H   0  0  0  0  0  0  0  0  0  0  0  0
   20.9295   21.9918   22.6362 H   0  0  0  0  0  0  0  0  0  0  0  0
   20.2287   20.7097   24.2603 C   0  0  0  0  0  0  0  0  0  0  0  0
   20.3689   20.6320   25.3475 H   0  0  0  0  0  0  0  0  0  0  0  0
   19.1626   20.9140   24.0898 H   0  0  0  0  0  0  0  0  0  0  0  0
   20.6160   19.3747   23.5880 C   0  0  0  0  0  0  0  0  0  0  0  0
   21.6823   19.1749   23.7607 H   0  0  0  0  0  0  0  0  0  0  0  0
   20.4845   19.4638   22.5031 H   0  0  0  0  0  0  0  0  0  0  0  0
   19.7784   18.1954   24.1359 C   0  0  0  0  0  0  0  0  0  0  0  0
   19.9611   18.1193   25.2166 H   0  0  0  0  0  0  0  0  0  0  0  0
   18.7056   18.4019   24.0207 H   0  0  0  0  0  0  0  0  0  0  0  0
   20.1308   16.8352   23.4815 C   0  0  0  0  0  0  0  0  0  0  0  0
   20.0518   16.0555   24.2513 H   0  0  0  0  0  0  0  0  0  0  0  0
   21.1803   16.8288   23.1572 H   0  0  0  0  0  0  0  0  0  0  0  0
   19.2085   16.4246   22.3068 C   0  0  0  0  0  0  0  0  0  0  0  0
   19.4947   15.4171   21.9749 H   0  0  0  0  0  0  0  0  0  0  0  0
   18.1717   16.3478   22.6623 H   0  0  0  0  0  0  0  0  0  0  0  0
   19.2647   17.3784   21.0954 C   0  0  0  0  0  0  0  0  0  0  0  0
   20.2988   17.5273   20.7585 H   0  0  0  0  0  0  0  0  0  0  0  0
   18.6907   16.9662   20.2555 H   0  0  0  0  0  0  0  0  0  0  0  0
   18.8331   18.3564   21.3418 H   0  0  0  0  0  0  0  0  0  0  0  0
  1  2  1  0  0  0  0
  1  3  2  0  0  0  0
  1  4  1  0  0  0  0
  4  5  1  0  0  0  0
  4  6  1  0  0  0  0
  4  7  1  0  0  0  0
  7  8  1  0  0  0  0
  7  9  1  0  0  0  0
  7 10  1  0  0  0  0
 10 11  1  0  0  0  0
 10 12  1  0  0  0  0
 10 13  1  0  0  0  0
 13 14  1  0  0  0  0
 13 15  1  0  0  0  0
 13 16  1  0  0  0  0
 16 17  1  0  0  0  0
 16 18  1  0  0  0  0
 16 19  1  0  0  0  0
 19 20  1  0  0  0  0
 19 21  1  0  0  0  0
 19 22  1  0  0  0  0
 22 23  1  0  0  0  0
 22 24  1  0  0  0  0
 22 25  1  0  0  0  0
M  END
> <VConfSearch Rank>
887

> <Conf_Id>
125

> <Delta U+W>
2.314

> <U+W>
-49.315

> <U>
9.740

> <W>
-59.054

> <W(PB)>
-61.488

> <W(SA)>
2.433

> <Valence>
10.506

> <Coulomb>
-1.761

> <VdW>
0.994

> <VdW6>
-9.209

> <VdW12>
10.203

> <Bond>
0.193

> <Angle>
2.979

> <Pdih>
7.334

> <Idih>
0.001

> <Tether>
0.000

$$$$
VeraChem MOL file


 25 24  0  0  0  0  0  0  0  0999 V2000     
   22.3115   15.7900   22.5145 C   0  0  0  0  0  0  0  0  0  0  0  0
   21.6408   14.8607   22.9186 O   0  5  0  0  0  0  0  0  0  0  0  0
   23.4536   15.6727   22.1163 O   0  0  0  0  0  0  0  0  0  0  0  0
   21.6946   17.1839   22.5307 C   0  0  0  0  0  0  0  0  0  0  0  0
   20.6212   17.0751   22.3390 H   0  0  0  0  0  0  0  0  0  0  0  0
   22.1188   17.7533   21.6950 H   0  0  0  0  0  0  0  0  0  0  0  0
   21.9389   17.9322   23.8669 C   0  0  0  0  0  0  0  0  0  0  0  0
   21.4691   17.3762   24.6900 H   0  0  0  0  0  0  0  0  0  0  0  0
   23.0180   17.9400   24.0744 H   0  0  0  0  0  0  0  0  0  0  0  0
   21.4249   19.3917   23.8614 C   0  0  0  0  0  0  0  0  0  0  0  0
   21.9037   19.9474   23.0435 H   0  0  0  0  0  0  0  0  0  0  0  0
   21.7434   19.8762   24.7945 H   0  0  0  0  0  0  0  0  0  0  0  0
   19.8876   19.5020   23.7357 C   0  0  0  0  0  0  0  0  0  0  0  0
   19.5665   19.0815   22.7751 H   0  0  0  0  0  0  0  0  0  0  0  0
   19.4111   18.9050   24.5251 H   0  0  0  0  0  0  0  0  0  0  0  0
   19.4117   20.9695   23.8402 C   0  0  0  0  0  0  0  0  0  0  0  0
   19.8498   21.5595   23.0236 H   0  0  0  0  0  0  0  0  0  0  0  0
   19.7911   21.4031   24.7755 H   0  0  0  0  0  0  0  0  0  0  0  0
   17.8726   21.1202   23.8191 C   0  0  0  0  0  0  0  0  0  0  0  0
   17.4313   20.5355   24.6382 H   0  0  0  0  0  0  0  0  0  0  0  0
   17.6188   22.1708   24.0164 H   0  0  0  0  0  0  0  0  0  0  0  0
   17.2347   20.6985   22.4776 C   0  0  0  0  0  0  0  0  0  0  0  0
   17.3618   19.6245   22.2933 H   0  0  0  0  0  0  0  0  0  0  0  0
   16.1574   20.9092   22.4819 H   0  0  0  0  0  0  0  0  0  0  0  0
   17.6830   21.2477   21.6394 H   0  0  0  0  0  0  0  0  0  0  0  0
  1  2  1  0  0  0  0
  1  3  2  0  0  0  0
  1  4  1  0  0  0  0
  4  5  1  0  0  0  0
  4  6  1  0  0  0  0
  4  7  1  0  0  0  0
  7  8  1  0  0  0  0
  7  9  1  0  0  0  0
  7 10  1  0  0  0  0
 10 11  1  0  0  0  0
 10 12  1  0  0  0  0
 10 13  1  0  0  0  0
 13 14  1  0  0  0  0
 13 15  1  0  0  0  0
 13 16  1  0  0  0  0
 16 17  1  0  0  0  0
 16 18  1  0  0  0  0
 16 19  1  0  0  0  0
 19 20  1  0  0  0  0
 19 21  1  0  0  0  0
 19 22  1  0  0  0  0
 22 23  1  0  0  0  0
 22 24  1  0  0  0  0
 22 25  1  0  0  0  0
M  END
> <VConfSearch Rank>
888

> <Conf_Id>
4

> <Delta U+W>
0.189

> <U+W>
-51.441

> <U>
7.701

> <W>
-59.141

> <W(PB)>
-61.609

> <W(SA)>
2.467

> <Valence>
8.550

> <Coulomb>
-1.988

> <VdW>
1.139

> <VdW6>
-8.988

> <VdW12>
10.127

> <Bond>
0.191

> <Angle>
2.738

> <Pdih>
5.621

> <Idih>
0.001

> <Tether>
0.000

$$$$
VeraChem MOL file


 25 24  0  0  0  0  0  0  0  0999 V2000     
   18.1032   20.0374   19.7906 C   0  0  0  0  0  0  0  0  0  0  0  0
   16.9480   19.7079   19.9740 O   0  5  0  0  0  0  0  0  0  0  0  0
   18.4862   20.6241   18.7977 O   0  0  0  0  0  0  0  0  0  0  0  0
   19.1243   19.7181   20.8766 C   0  0  0  0  0  0  0  0  0  0  0  0
   20.0931   19.5462   20.3925 H   0  0  0  0  0  0  0  0  0  0  0  0
   18.8243   18.7758   21.3486 H   0  0  0  0  0  0  0  0  0  0  0  0
   19.2469   20.8455   21.9344 C   0  0  0  0  0  0  0  0  0  0  0  0
   19.4547   21.7927   21.4176 H   0  0  0  0  0  0  0  0  0  0  0  0
   18.2827   20.9760   22.4449 H   0  0  0  0  0  0  0  0  0  0  0  0
   20.3615   20.5957   22.9781 C   0  0  0  0  0  0  0  0  0  0  0  0
   20.4544   21.4904   23.6089 H   0  0  0  0  0  0  0  0  0  0  0  0
   21.3257   20.4755   22.4653 H   0  0  0  0  0  0  0  0  0  0  0  0
   20.0954   19.3686   23.8806 C   0  0  0  0  0  0  0  0  0  0  0  0
   19.1089   19.4678   24.3534 H   0  0  0  0  0  0  0  0  0  0  0  0
   20.0690   18.4601   23.2670 H   0  0  0  0  0  0  0  0  0  0  0  0
   21.1790   19.2201   24.9738 C   0  0  0  0  0  0  0  0  0  0  0  0
   21.2434   20.1571   25.5436 H   0  0  0  0  0  0  0  0  0  0  0  0
   22.1611   19.0737   24.5036 H   0  0  0  0  0  0  0  0  0  0  0  0
   20.9013   18.0635   25.9623 C   0  0  0  0  0  0  0  0  0  0  0  0
   21.6468   18.1026   26.7684 H   0  0  0  0  0  0  0  0  0  0  0  0
   19.9218   18.2095   26.4384 H   0  0  0  0  0  0  0  0  0  0  0  0
   20.9555   16.6683   25.3027 C   0  0  0  0  0  0  0  0  0  0  0  0
   21.9149   16.5118   24.7926 H   0  0  0  0  0  0  0  0  0  0  0  0
   20.8430   15.8814   26.0597 H   0  0  0  0  0  0  0  0  0  0  0  0
   20.1501   16.5402   24.5689 H   0  0  0  0  0  0  0  0  0  0  0  0
  1  2  1  0  0  0  0
  1  3  2  0  0  0  0
  1  4  1  0  0  0  0
  4  5  1  0  0  0  0
  4  6  1  0  0  0  0
  4  7  1  0  0  0  0
  7  8  1  0  0  0  0
  7  9  1  0  0  0  0
  7 10  1  0  0  0  0
 10 11  1  0  0  0  0
 10 12  1  0  0  0  0
 10 13  1  0  0  0  0
 13 14  1  0  0  0  0
 13 15  1  0  0  0  0
 13 16  1  0  0  0  0
 16 17  1  0  0  0  0
 16 18  1  0  0  0  0
 16 19  1  0  0  0  0
 19 20  1  0  0  0  0
 19 21  1  0  0  0  0
 19 22  1  0  0  0  0
 22 23  1  0  0  0  0
 22 24  1  0  0  0  0
 22 25  1  0  0  0  0
M  END
> <VConfSearch Rank>
889

> <Conf_Id>
17

> <Delta U+W>
0.219

> <U+W>
-51.411

> <U>
7.701

> <W>
-59.111

> <W(PB)>
-61.599

> <W(SA)>
2.488

> <Valence>
8.550

> <Coulomb>
-1.988

> <VdW>
1.139

> <VdW6>
-8.988

> <VdW12>
10.127

> <Bond>
0.191

> <Angle>
2.738

> <Pdih>
5.621

> <Idih>
0.001

> <Tether>
0.000

$$$$
VeraChem MOL file


 25 24  0  0  0  0  0  0  0  0999 V2000     
   20.7747   22.9543   24.1564 C   0  0  0  0  0  0  0  0  0  0  0  0
   20.7289   23.1559   25.3540 O   0  5  0  0  0  0  0  0  0  0  0  0
   20.0187   23.4715   23.3576 O   0  0  0  0  0  0  0  0  0  0  0  0
   21.8525   22.0153   23.6219 C   0  0  0  0  0  0  0  0  0  0  0  0
   22.6441   21.9261   24.3756 H   0  0  0  0  0  0  0  0  0  0  0  0
   22.3018   22.4964   22.7452 H   0  0  0  0  0  0  0  0  0  0  0  0
   21.3248   20.6110   23.2288 C   0  0  0  0  0  0  0  0  0  0  0  0
   20.5217   20.7274   22.4892 H   0  0  0  0  0  0  0  0  0  0  0  0
   22.1317   20.0515   22.7368 H   0  0  0  0  0  0  0  0  0  0  0  0
   20.8159   19.8070   24.4493 C   0  0  0  0  0  0  0  0  0  0  0  0
   19.9614   20.3243   24.9069 H   0  0  0  0  0  0  0  0  0  0  0  0
   21.6053   19.7793   25.2128 H   0  0  0  0  0  0  0  0  0  0  0  0
   20.4139   18.3532   24.1051 C   0  0  0  0  0  0  0  0  0  0  0  0
   21.2696   17.8312   23.6554 H   0  0  0  0  0  0  0  0  0  0  0  0
   20.1848   17.8252   25.0409 H   0  0  0  0  0  0  0  0  0  0  0  0
   19.1915   18.2588   23.1630 C   0  0  0  0  0  0  0  0  0  0  0  0
   19.4291   18.7159   22.1937 H   0  0  0  0  0  0  0  0  0  0  0  0
   18.3544   18.8280   23.5898 H   0  0  0  0  0  0  0  0  0  0  0  0
   18.7571   16.7952   22.9372 C   0  0  0  0  0  0  0  0  0  0  0  0
   19.5930   16.2225   22.5120 H   0  0  0  0  0  0  0  0  0  0  0  0
   18.5083   16.3293   23.9008 H   0  0  0  0  0  0  0  0  0  0  0  0
   17.5403   16.7025   21.9946 C   0  0  0  0  0  0  0  0  0  0  0  0
   17.7715   17.1326   21.0113 H   0  0  0  0  0  0  0  0  0  0  0  0
   17.2450   15.6557   21.8457 H   0  0  0  0  0  0  0  0  0  0  0  0
   16.6792   17.2417   22.4107 H   0  0  0  0  0  0  0  0  0  0  0  0
  1  2  1  0  0  0  0
  1  3  2  0  0  0  0
  1  4  1  0  0  0  0
  4  5  1  0  0  0  0
  4  6  1  0  0  0  0
  4  7  1  0  0  0  0
  7  8  1  0  0  0  0
  7  9  1  0  0  0  0
  7 10  1  0  0  0  0
 10 11  1  0  0  0  0
 10 12  1  0  0  0  0
 10 13  1  0  0  0  0
 13 14  1  0  0  0  0
 13 15  1  0  0  0  0
 13 16  1  0  0  0  0
 16 17  1  0  0  0  0
 16 18  1  0  0  0  0
 16 19  1  0  0  0  0
 19 20  1  0  0  0  0
 19 21  1  0  0  0  0
 19 22  1  0  0  0  0
 22 23  1  0  0  0  0
 22 24  1  0  0  0  0
 22 25  1  0  0  0  0
M  END
> <VConfSearch Rank>
890

> <Conf_Id>
142

> <Delta U+W>
0.593

> <U+W>
-51.037

> <U>
8.903

> <W>
-59.940

> <W(PB)>
-62.418

> <W(SA)>
2.478

> <Valence>
8.305

> <Coulomb>
-0.223

> <VdW>
0.821

> <VdW6>
-9.236

> <VdW12>
10.057

> <Bond>
0.173

> <Angle>
2.663

> <Pdih>
5.469

> <Idih>
0.001

> <Tether>
0.000

$$$$
VeraChem MOL file


 25 24  0  0  0  0  0  0  0  0999 V2000     
   21.9295   16.7001   21.5633 C   0  0  0  0  0  0  0  0  0  0  0  0
   22.7760   16.6174   20.6949 O   0  5  0  0  0  0  0  0  0  0  0  0
   21.8952   15.9766   22.5393 O   0  0  0  0  0  0  0  0  0  0  0  0
   20.8359   17.7522   21.4027 C   0  0  0  0  0  0  0  0  0  0  0  0
   20.0192   17.5188   22.0954 H   0  0  0  0  0  0  0  0  0  0  0  0
   20.4258   17.6449   20.3918 H   0  0  0  0  0  0  0  0  0  0  0  0
   21.3255   19.2119   21.6069 C   0  0  0  0  0  0  0  0  0  0  0  0
   22.0936   19.4340   20.8533 H   0  0  0  0  0  0  0  0  0  0  0  0
   20.4971   19.9029   21.4041 H   0  0  0  0  0  0  0  0  0  0  0  0
   21.9131   19.4998   23.0128 C   0  0  0  0  0  0  0  0  0  0  0  0
   22.2339   20.5496   23.0526 H   0  0  0  0  0  0  0  0  0  0  0  0
   22.8241   18.9009   23.1490 H   0  0  0  0  0  0  0  0  0  0  0  0
   20.9566   19.2221   24.1995 C   0  0  0  0  0  0  0  0  0  0  0  0
   20.7142   18.1518   24.2413 H   0  0  0  0  0  0  0  0  0  0  0  0
   21.4901   19.4481   25.1327 H   0  0  0  0  0  0  0  0  0  0  0  0
   19.6540   20.0537   24.1513 C   0  0  0  0  0  0  0  0  0  0  0  0
   19.0730   19.7857   23.2593 H   0  0  0  0  0  0  0  0  0  0  0  0
   19.9023   21.1203   24.0653 H   0  0  0  0  0  0  0  0  0  0  0  0
   18.7850   19.8256   25.4060 C   0  0  0  0  0  0  0  0  0  0  0  0
   18.5377   18.7587   25.4954 H   0  0  0  0  0  0  0  0  0  0  0  0
   19.3539   20.0981   26.3057 H   0  0  0  0  0  0  0  0  0  0  0  0
   17.4835   20.6509   25.3536 C   0  0  0  0  0  0  0  0  0  0  0  0
   16.8788   20.3755   24.4796 H   0  0  0  0  0  0  0  0  0  0  0  0
   16.8785   20.4768   26.2529 H   0  0  0  0  0  0  0  0  0  0  0  0
   17.7019   21.7252   25.2946 H   0  0  0  0  0  0  0  0  0  0  0  0
  1  2  1  0  0  0  0
  1  3  2  0  0  0  0
  1  4  1  0  0  0  0
  4  5  1  0  0  0  0
  4  6  1  0  0  0  0
  4  7  1  0  0  0  0
  7  8  1  0  0  0  0
  7  9  1  0  0  0  0
  7 10  1  0  0  0  0
 10 11  1  0  0  0  0
 10 12  1  0  0  0  0
 10 13  1  0  0  0  0
 13 14  1  0  0  0  0
 13 15  1  0  0  0  0
 13 16  1  0  0  0  0
 16 17  1  0  0  0  0
 16 18  1  0  0  0  0
 16 19  1  0  0  0  0
 19 20  1  0  0  0  0
 19 21  1  0  0  0  0
 19 22  1  0  0  0  0
 22 23  1  0  0  0  0
 22 24  1  0  0  0  0
 22 25  1  0  0  0  0
M  END
> <VConfSearch Rank>
891

> <Conf_Id>
135

> <Delta U+W>
1.314

> <U+W>
-50.316

> <U>
9.773

> <W>
-60.088

> <W(PB)>
-62.535

> <W(SA)>
2.447

> <Valence>
8.741

> <Coulomb>
0.479

> <VdW>
0.552

> <VdW6>
-10.627

> <VdW12>
11.179

> <Bond>
0.227

> <Angle>
3.155

> <Pdih>
5.358

> <Idih>
0.001

> <Tether>
0.000

$$$$
VeraChem MOL file


 25 24  0  0  0  0  0  0  0  0999 V2000     
   22.3464   22.6043   24.2967 C   0  0  0  0  0  0  0  0  0  0  0  0
   23.5406   22.4701   24.1161 O   0  5  0  0  0  0  0  0  0  0  0  0
   21.7984   23.6841   24.3994 O   0  0  0  0  0  0  0  0  0  0  0  0
   21.4846   21.3493   24.3762 C   0  0  0  0  0  0  0  0  0  0  0  0
   20.6457   21.5555   25.0516 H   0  0  0  0  0  0  0  0  0  0  0  0
   22.0883   20.5606   24.8384 H   0  0  0  0  0  0  0  0  0  0  0  0
   20.9565   20.8965   22.9899 C   0  0  0  0  0  0  0  0  0  0  0  0
   20.4412   21.7444   22.5177 H   0  0  0  0  0  0  0  0  0  0  0  0
   21.8037   20.6463   22.3365 H   0  0  0  0  0  0  0  0  0  0  0  0
   19.9767   19.7005   23.0585 C   0  0  0  0  0  0  0  0  0  0  0  0
   19.5455   19.5612   22.0591 H   0  0  0  0  0  0  0  0  0  0  0  0
   19.1435   19.9433   23.7319 H   0  0  0  0  0  0  0  0  0  0  0  0
   20.6466   18.3794   23.5062 C   0  0  0  0  0  0  0  0  0  0  0  0
   21.4395   18.1135   22.7941 H   0  0  0  0  0  0  0  0  0  0  0  0
   21.1393   18.5275   24.4751 H   0  0  0  0  0  0  0  0  0  0  0  0
   19.6662   17.1882   23.6526 C   0  0  0  0  0  0  0  0  0  0  0  0
   18.9227   17.4067   24.4313 H   0  0  0  0  0  0  0  0  0  0  0  0
   20.2429   16.3301   24.0241 H   0  0  0  0  0  0  0  0  0  0  0  0
   18.9603   16.7624   22.3409 C   0  0  0  0  0  0  0  0  0  0  0  0
   19.5766   17.0303   21.4717 H   0  0  0  0  0  0  0  0  0  0  0  0
   18.8740   15.6671   22.3276 H   0  0  0  0  0  0  0  0  0  0  0  0
   17.5408   17.3549   22.1949 C   0  0  0  0  0  0  0  0  0  0  0  0
   17.5543   18.4508   22.1919 H   0  0  0  0  0  0  0  0  0  0  0  0
   17.0805   17.0223   21.2556 H   0  0  0  0  0  0  0  0  0  0  0  0
   16.8948   17.0271   23.0197 H   0  0  0  0  0  0  0  0  0  0  0  0
  1  2  1  0  0  0  0
  1  3  2  0  0  0  0
  1  4  1  0  0  0  0
  4  5  1  0  0  0  0
  4  6  1  0  0  0  0
  4  7  1  0  0  0  0
  7  8  1  0  0  0  0
  7  9  1  0  0  0  0
  7 10  1  0  0  0  0
 10 11  1  0  0  0  0
 10 12  1  0  0  0  0
 10 13  1  0  0  0  0
 13 14  1  0  0  0  0
 13 15  1  0  0  0  0
 13 16  1  0  0  0  0
 16 17  1  0  0  0  0
 16 18  1  0  0  0  0
 16 19  1  0  0  0  0
 19 20  1  0  0  0  0
 19 21  1  0  0  0  0
 19 22  1  0  0  0  0
 22 23  1  0  0  0  0
 22 24  1  0  0  0  0
 22 25  1  0  0  0  0
M  END
> <VConfSearch Rank>
892

> <Conf_Id>
19

> <Delta U+W>
3.222

> <U+W>
-48.407

> <U>
10.617

> <W>
-59.025

> <W(PB)>
-61.462

> <W(SA)>
2.437

> <Valence>
11.188

> <Coulomb>
-1.778

> <VdW>
1.208

> <VdW6>
-9.786

> <VdW12>
10.993

> <Bond>
0.241

> <Angle>
3.294

> <Pdih>
7.653

> <Idih>
0.001

> <Tether>
0.000

$$$$
VeraChem MOL file


 25 24  0  0  0  0  0  0  0  0999 V2000     
   17.7289   19.1012   26.7441 C   0  0  0  0  0  0  0  0  0  0  0  0
   18.0878   18.2674   27.5520 O   0  5  0  0  0  0  0  0  0  0  0  0
   16.6190   19.5961   26.7355 O   0  0  0  0  0  0  0  0  0  0  0  0
   18.7181   19.5334   25.6676 C   0  0  0  0  0  0  0  0  0  0  0  0
   19.7217   19.4981   26.1053 H   0  0  0  0  0  0  0  0  0  0  0  0
   18.5094   20.5798   25.4149 H   0  0  0  0  0  0  0  0  0  0  0  0
   18.6419   18.6503   24.3947 C   0  0  0  0  0  0  0  0  0  0  0  0
   18.8995   17.6131   24.6499 H   0  0  0  0  0  0  0  0  0  0  0  0
   17.6011   18.6331   24.0426 H   0  0  0  0  0  0  0  0  0  0  0  0
   19.5450   19.1456   23.2398 C   0  0  0  0  0  0  0  0  0  0  0  0
   19.3030   20.1906   23.0033 H   0  0  0  0  0  0  0  0  0  0  0  0
   19.3034   18.5551   22.3470 H   0  0  0  0  0  0  0  0  0  0  0  0
   21.0573   19.0109   23.5382 C   0  0  0  0  0  0  0  0  0  0  0  0
   21.2970   19.5426   24.4674 H   0  0  0  0  0  0  0  0  0  0  0  0
   21.3011   17.9546   23.7153 H   0  0  0  0  0  0  0  0  0  0  0  0
   21.9768   19.5709   22.4236 C   0  0  0  0  0  0  0  0  0  0  0  0
   23.0144   19.4698   22.7700 H   0  0  0  0  0  0  0  0  0  0  0  0
   21.8071   20.6496   22.3028 H   0  0  0  0  0  0  0  0  0  0  0  0
   21.8534   18.8518   21.0569 C   0  0  0  0  0  0  0  0  0  0  0  0
   22.8518   18.7859   20.6027 H   0  0  0  0  0  0  0  0  0  0  0  0
   21.5145   17.8165   21.1997 H   0  0  0  0  0  0  0  0  0  0  0  0
   20.9253   19.5878   20.0648 C   0  0  0  0  0  0  0  0  0  0  0  0
   21.3011   20.5977   19.8552 H   0  0  0  0  0  0  0  0  0  0  0  0
   20.8733   19.0448   19.1123 H   0  0  0  0  0  0  0  0  0  0  0  0
   19.9048   19.6814   20.4533 H   0  0  0  0  0  0  0  0  0  0  0  0
  1  2  1  0  0  0  0
  1  3  2  0  0  0  0
  1  4  1  0  0  0  0
  4  5  1  0  0  0  0
  4  6  1  0  0  0  0
  4  7  1  0  0  0  0
  7  8  1  0  0  0  0
  7  9  1  0  0  0  0
  7 10  1  0  0  0  0
 10 11  1  0  0  0  0
 10 12  1  0  0  0  0
 10 13  1  0  0  0  0
 13 14  1  0  0  0  0
 13 15  1  0  0  0  0
 13 16  1  0  0  0  0
 16 17  1  0  0  0  0
 16 18  1  0  0  0  0
 16 19  1  0  0  0  0
 19 20  1  0  0  0  0
 19 21  1  0  0  0  0
 19 22  1  0  0  0  0
 22 23  1  0  0  0  0
 22 24  1  0  0  0  0
 22 25  1  0  0  0  0
M  END
> <VConfSearch Rank>
893

> <Conf_Id>
20

> <Delta U+W>
3.224

> <U+W>
-48.406

> <U>
10.617

> <W>
-59.023

> <W(PB)>
-61.467

> <W(SA)>
2.444

> <Valence>
11.188

> <Coulomb>
-1.778

> <VdW>
1.208

> <VdW6>
-9.786

> <VdW12>
10.993

> <Bond>
0.241

> <Angle>
3.294

> <Pdih>
7.653

> <Idih>
0.001

> <Tether>
0.000

$$$$
VeraChem MOL file


 25 24  0  0  0  0  0  0  0  0999 V2000     
   19.7122   21.9539   21.8285 C   0  0  0  0  0  0  0  0  0  0  0  0
   20.7622   22.5402   22.0058 O   0  5  0  0  0  0  0  0  0  0  0  0
   18.6704   22.2647   22.3719 O   0  0  0  0  0  0  0  0  0  0  0  0
   19.6836   20.8071   20.8197 C   0  0  0  0  0  0  0  0  0  0  0  0
   19.9272   21.2474   19.8459 H   0  0  0  0  0  0  0  0  0  0  0  0
   18.6585   20.4248   20.7436 H   0  0  0  0  0  0  0  0  0  0  0  0
   20.6724   19.6431   21.1103 C   0  0  0  0  0  0  0  0  0  0  0  0
   20.8298   19.0903   20.1743 H   0  0  0  0  0  0  0  0  0  0  0  0
   21.6549   20.0476   21.3909 H   0  0  0  0  0  0  0  0  0  0  0  0
   20.1894   18.6320   22.1796 C   0  0  0  0  0  0  0  0  0  0  0  0
   20.8884   17.7845   22.1892 H   0  0  0  0  0  0  0  0  0  0  0  0
   19.2126   18.2231   21.8873 H   0  0  0  0  0  0  0  0  0  0  0  0
   20.1007   19.2184   23.6069 C   0  0  0  0  0  0  0  0  0  0  0  0
   21.0452   19.7196   23.8592 H   0  0  0  0  0  0  0  0  0  0  0  0
   19.3115   19.9796   23.6487 H   0  0  0  0  0  0  0  0  0  0  0  0
   19.7982   18.1259   24.6555 C   0  0  0  0  0  0  0  0  0  0  0  0
   20.5870   17.3617   24.6287 H   0  0  0  0  0  0  0  0  0  0  0  0
   18.8559   17.6226   24.3988 H   0  0  0  0  0  0  0  0  0  0  0  0
   19.6981   18.7121   26.0794 C   0  0  0  0  0  0  0  0  0  0  0  0
   20.6396   19.2156   26.3395 H   0  0  0  0  0  0  0  0  0  0  0  0
   18.9088   19.4760   26.1106 H   0  0  0  0  0  0  0  0  0  0  0  0
   19.3955   17.6191   27.1242 C   0  0  0  0  0  0  0  0  0  0  0  0
   20.1864   16.8577   27.1364 H   0  0  0  0  0  0  0  0  0  0  0  0
   19.3278   18.0535   28.1301 H   0  0  0  0  0  0  0  0  0  0  0  0
   18.4424   17.1201   26.9056 H   0  0  0  0  0  0  0  0  0  0  0  0
  1  2  1  0  0  0  0
  1  3  2  0  0  0  0
  1  4  1  0  0  0  0
  4  5  1  0  0  0  0
  4  6  1  0  0  0  0
  4  7  1  0  0  0  0
  7  8  1  0  0  0  0
  7  9  1  0  0  0  0
  7 10  1  0  0  0  0
 10 11  1  0  0  0  0
 10 12  1  0  0  0  0
 10 13  1  0  0  0  0
 13 14  1  0  0  0  0
 13 15  1  0  0  0  0
 13 16  1  0  0  0  0
 16 17  1  0  0  0  0
 16 18  1  0  0  0  0
 16 19  1  0  0  0  0
 19 20  1  0  0  0  0
 19 21  1  0  0  0  0
 19 22  1  0  0  0  0
 22 23  1  0  0  0  0
 22 24  1  0  0  0  0
 22 25  1  0  0  0  0
M  END
> <VConfSearch Rank>
894

> <Conf_Id>
24

> <Delta U+W>
1.784

> <U+W>
-49.846

> <U>
10.904

> <W>
-60.749

> <W(PB)>
-63.220

> <W(SA)>
2.471

> <Valence>
9.445

> <Coulomb>
0.780

> <VdW>
0.679

> <VdW6>
-10.008

> <VdW12>
10.687

> <Bond>
0.201

> <Angle>
3.198

> <Pdih>
6.039

> <Idih>
0.006

> <Tether>
0.000

$$$$
VeraChem MOL file


 25 24  0  0  0  0  0  0  0  0999 V2000     
   17.6730   17.6214   22.0797 C   0  0  0  0  0  0  0  0  0  0  0  0
   17.3367   18.3921   21.2020 O   0  5  0  0  0  0  0  0  0  0  0  0
   18.3250   16.6161   21.8759 O   0  0  0  0  0  0  0  0  0  0  0  0
   17.1958   17.8931   23.5052 C   0  0  0  0  0  0  0  0  0  0  0  0
   17.5416   17.0822   24.1576 H   0  0  0  0  0  0  0  0  0  0  0  0
   16.1017   17.8310   23.4807 H   0  0  0  0  0  0  0  0  0  0  0  0
   17.6113   19.2713   24.0924 C   0  0  0  0  0  0  0  0  0  0  0  0
   17.4516   20.0606   23.3447 H   0  0  0  0  0  0  0  0  0  0  0  0
   16.9338   19.5032   24.9253 H   0  0  0  0  0  0  0  0  0  0  0  0
   19.0616   19.3369   24.6321 C   0  0  0  0  0  0  0  0  0  0  0  0
   19.2108   18.5533   25.3875 H   0  0  0  0  0  0  0  0  0  0  0  0
   19.1896   20.2958   25.1529 H   0  0  0  0  0  0  0  0  0  0  0  0
   20.1471   19.2172   23.5385 C   0  0  0  0  0  0  0  0  0  0  0  0
   20.1205   18.2139   23.0952 H   0  0  0  0  0  0  0  0  0  0  0  0
   19.9373   19.9318   22.7308 H   0  0  0  0  0  0  0  0  0  0  0  0
   21.5600   19.4766   24.1051 C   0  0  0  0  0  0  0  0  0  0  0  0
   21.7660   18.7644   24.9159 H   0  0  0  0  0  0  0  0  0  0  0  0
   21.6012   20.4827   24.5446 H   0  0  0  0  0  0  0  0  0  0  0  0
   22.6456   19.3461   23.0163 C   0  0  0  0  0  0  0  0  0  0  0  0
   22.6086   18.3401   22.5755 H   0  0  0  0  0  0  0  0  0  0  0  0
   22.4428   20.0578   22.2040 H   0  0  0  0  0  0  0  0  0  0  0  0
   24.0553   19.6052   23.5850 C   0  0  0  0  0  0  0  0  0  0  0  0
   24.2967   18.8862   24.3788 H   0  0  0  0  0  0  0  0  0  0  0  0
   24.8140   19.5081   22.7976 H   0  0  0  0  0  0  0  0  0  0  0  0
   24.1297   20.6170   24.0045 H   0  0  0  0  0  0  0  0  0  0  0  0
  1  2  1  0  0  0  0
  1  3  2  0  0  0  0
  1  4  1  0  0  0  0
  4  5  1  0  0  0  0
  4  6  1  0  0  0  0
  4  7  1  0  0  0  0
  7  8  1  0  0  0  0
  7  9  1  0  0  0  0
  7 10  1  0  0  0  0
 10 11  1  0  0  0  0
 10 12  1  0  0  0  0
 10 13  1  0  0  0  0
 13 14  1  0  0  0  0
 13 15  1  0  0  0  0
 13 16  1  0  0  0  0
 16 17  1  0  0  0  0
 16 18  1  0  0  0  0
 16 19  1  0  0  0  0
 19 20  1  0  0  0  0
 19 21  1  0  0  0  0
 19 22  1  0  0  0  0
 22 23  1  0  0  0  0
 22 24  1  0  0  0  0
 22 25  1  0  0  0  0
M  END
> <VConfSearch Rank>
895

> <Conf_Id>
9

> <Delta U+W>
1.764

> <U+W>
-49.865

> <U>
10.902

> <W>
-60.768

> <W(PB)>
-63.223

> <W(SA)>
2.456

> <Valence>
9.445

> <Coulomb>
0.778

> <VdW>
0.679

> <VdW6>
-10.007

> <VdW12>
10.687

> <Bond>
0.201

> <Angle>
3.198

> <Pdih>
6.040

> <Idih>
0.006

> <Tether>
0.000

$$$$
VeraChem MOL file


 25 24  0  0  0  0  0  0  0  0999 V2000     
   16.5185   19.0630   22.1334 C   0  0  0  0  0  0  0  0  0  0  0  0
   16.7320   18.0339   21.5236 O   0  5  0  0  0  0  0  0  0  0  0  0
   15.4044   19.4894   22.3655 O   0  0  0  0  0  0  0  0  0  0  0  0
   17.7139   19.8528   22.6541 C   0  0  0  0  0  0  0  0  0  0  0  0
   17.4512   20.9171   22.6323 H   0  0  0  0  0  0  0  0  0  0  0  0
   18.5394   19.7136   21.9494 H   0  0  0  0  0  0  0  0  0  0  0  0
   18.1277   19.4366   24.0905 C   0  0  0  0  0  0  0  0  0  0  0  0
   17.2661   19.6040   24.7517 H   0  0  0  0  0  0  0  0  0  0  0  0
   18.3355   18.3582   24.1270 H   0  0  0  0  0  0  0  0  0  0  0  0
   19.3368   20.2348   24.6411 C   0  0  0  0  0  0  0  0  0  0  0  0
   19.1860   20.3819   25.7193 H   0  0  0  0  0  0  0  0  0  0  0  0
   19.3602   21.2421   24.2032 H   0  0  0  0  0  0  0  0  0  0  0  0
   20.7091   19.5401   24.4544 C   0  0  0  0  0  0  0  0  0  0  0  0
   21.4749   20.1500   24.9525 H   0  0  0  0  0  0  0  0  0  0  0  0
   20.6954   18.5743   24.9763 H   0  0  0  0  0  0  0  0  0  0  0  0
   21.1184   19.3288   22.9776 C   0  0  0  0  0  0  0  0  0  0  0  0
   20.9807   20.2698   22.4282 H   0  0  0  0  0  0  0  0  0  0  0  0
   20.4563   18.5875   22.5114 H   0  0  0  0  0  0  0  0  0  0  0  0
   22.5855   18.8696   22.8092 C   0  0  0  0  0  0  0  0  0  0  0  0
   22.8247   18.8385   21.7373 H   0  0  0  0  0  0  0  0  0  0  0  0
   23.2607   19.6123   23.2562 H   0  0  0  0  0  0  0  0  0  0  0  0
   22.8633   17.4799   23.4224 C   0  0  0  0  0  0  0  0  0  0  0  0
   22.1822   16.7249   23.0085 H   0  0  0  0  0  0  0  0  0  0  0  0
   23.8916   17.1630   23.2058 H   0  0  0  0  0  0  0  0  0  0  0  0
   22.7418   17.4924   24.5128 H   0  0  0  0  0  0  0  0  0  0  0  0
  1  2  1  0  0  0  0
  1  3  2  0  0  0  0
  1  4  1  0  0  0  0
  4  5  1  0  0  0  0
  4  6  1  0  0  0  0
  4  7  1  0  0  0  0
  7  8  1  0  0  0  0
  7  9  1  0  0  0  0
  7 10  1  0  0  0  0
 10 11  1  0  0  0  0
 10 12  1  0  0  0  0
 10 13  1  0  0  0  0
 13 14  1  0  0  0  0
 13 15  1  0  0  0  0
 13 16  1  0  0  0  0
 16 17  1  0  0  0  0
 16 18  1  0  0  0  0
 16 19  1  0  0  0  0
 19 20  1  0  0  0  0
 19 21  1  0  0  0  0
 19 22  1  0  0  0  0
 22 23  1  0  0  0  0
 22 24  1  0  0  0  0
 22 25  1  0  0  0  0
M  END
> <VConfSearch Rank>
896

> <Conf_Id>
89

> <Delta U+W>
2.903

> <U+W>
-48.726

> <U>
10.996

> <W>
-59.723

> <W(PB)>
-62.151

> <W(SA)>
2.428

> <Valence>
10.985

> <Coulomb>
-0.995

> <VdW>
1.006

> <VdW6>
-10.062

> <VdW12>
11.069

> <Bond>
0.238

> <Angle>
3.202

> <Pdih>
7.544

> <Idih>
0.001

> <Tether>
0.000

$$$$
VeraChem MOL file


 25 24  0  0  0  0  0  0  0  0999 V2000     
   18.3050   16.8715   25.5273 C   0  0  0  0  0  0  0  0  0  0  0  0
   18.2844   17.5462   26.5381 O   0  5  0  0  0  0  0  0  0  0  0  0
   17.3078   16.5751   24.8986 O   0  0  0  0  0  0  0  0  0  0  0  0
   19.6487   16.3144   25.0611 C   0  0  0  0  0  0  0  0  0  0  0  0
   19.5752   15.2240   25.1459 H   0  0  0  0  0  0  0  0  0  0  0  0
   20.4295   16.6315   25.7628 H   0  0  0  0  0  0  0  0  0  0  0  0
   20.0507   16.6819   23.6047 C   0  0  0  0  0  0  0  0  0  0  0  0
   20.7911   15.9461   23.2630 H   0  0  0  0  0  0  0  0  0  0  0  0
   19.1851   16.5708   22.9369 H   0  0  0  0  0  0  0  0  0  0  0  0
   20.6749   18.0897   23.4356 C   0  0  0  0  0  0  0  0  0  0  0  0
   21.0667   18.1585   22.4133 H   0  0  0  0  0  0  0  0  0  0  0  0
   21.5392   18.1933   24.1055 H   0  0  0  0  0  0  0  0  0  0  0  0
   19.6831   19.2524   23.6827 C   0  0  0  0  0  0  0  0  0  0  0  0
   18.7888   19.1198   23.0587 H   0  0  0  0  0  0  0  0  0  0  0  0
   19.3434   19.2220   24.7251 H   0  0  0  0  0  0  0  0  0  0  0  0
   20.2943   20.6511   23.4268 C   0  0  0  0  0  0  0  0  0  0  0  0
   21.2067   20.7699   24.0269 H   0  0  0  0  0  0  0  0  0  0  0  0
   19.5854   21.4089   23.7874 H   0  0  0  0  0  0  0  0  0  0  0  0
   20.6063   20.9296   21.9387 C   0  0  0  0  0  0  0  0  0  0  0  0
   21.3756   20.2363   21.5751 H   0  0  0  0  0  0  0  0  0  0  0  0
   19.7062   20.7564   21.3328 H   0  0  0  0  0  0  0  0  0  0  0  0
   21.0961   22.3762   21.7252 C   0  0  0  0  0  0  0  0  0  0  0  0
   22.0117   22.5691   22.2994 H   0  0  0  0  0  0  0  0  0  0  0  0
   21.3162   22.5575   20.6651 H   0  0  0  0  0  0  0  0  0  0  0  0
   20.3338   23.1003   22.0415 H   0  0  0  0  0  0  0  0  0  0  0  0
  1  2  1  0  0  0  0
  1  3  2  0  0  0  0
  1  4  1  0  0  0  0
  4  5  1  0  0  0  0
  4  6  1  0  0  0  0
  4  7  1  0  0  0  0
  7  8  1  0  0  0  0
  7  9  1  0  0  0  0
  7 10  1  0  0  0  0
 10 11  1  0  0  0  0
 10 12  1  0  0  0  0
 10 13  1  0  0  0  0
 13 14  1  0  0  0  0
 13 15  1  0  0  0  0
 13 16  1  0  0  0  0
 16 17  1  0  0  0  0
 16 18  1  0  0  0  0
 16 19  1  0  0  0  0
 19 20  1  0  0  0  0
 19 21  1  0  0  0  0
 19 22  1  0  0  0  0
 22 23  1  0  0  0  0
 22 24  1  0  0  0  0
 22 25  1  0  0  0  0
M  END
> <VConfSearch Rank>
897

> <Conf_Id>
114

> <Delta U+W>
2.758

> <U+W>
-48.871

> <U>
11.422

> <W>
-60.293

> <W(PB)>
-62.719

> <W(SA)>
2.425

> <Valence>
10.135

> <Coulomb>
0.369

> <VdW>
0.918

> <VdW6>
-10.482

> <VdW12>
11.400

> <Bond>
0.245

> <Angle>
3.539

> <Pdih>
6.346

> <Idih>
0.006

> <Tether>
0.000

$$$$
VeraChem MOL file


 25 24  0  0  0  0  0  0  0  0999 V2000     
   18.3325   21.2413   25.9349 C   0  0  0  0  0  0  0  0  0  0  0  0
   17.6884   20.4634   26.6110 O   0  5  0  0  0  0  0  0  0  0  0  0
   19.1991   21.9654   26.3841 O   0  0  0  0  0  0  0  0  0  0  0  0
   18.0237   21.3302   24.4430 C   0  0  0  0  0  0  0  0  0  0  0  0
   17.9730   22.3936   24.1809 H   0  0  0  0  0  0  0  0  0  0  0  0
   17.0252   20.9120   24.2667 H   0  0  0  0  0  0  0  0  0  0  0  0
   19.0685   20.6233   23.5410 C   0  0  0  0  0  0  0  0  0  0  0  0
   18.8413   20.8463   22.4899 H   0  0  0  0  0  0  0  0  0  0  0  0
   20.0602   21.0463   23.7486 H   0  0  0  0  0  0  0  0  0  0  0  0
   19.0857   19.0894   23.7459 C   0  0  0  0  0  0  0  0  0  0  0  0
   18.0644   18.7032   23.6251 H   0  0  0  0  0  0  0  0  0  0  0  0
   19.3851   18.8532   24.7764 H   0  0  0  0  0  0  0  0  0  0  0  0
   20.0118   18.3428   22.7562 C   0  0  0  0  0  0  0  0  0  0  0  0
   19.8440   17.2657   22.8824 H   0  0  0  0  0  0  0  0  0  0  0  0
   19.7203   18.5847   21.7251 H   0  0  0  0  0  0  0  0  0  0  0  0
   21.5144   18.6560   22.9622 C   0  0  0  0  0  0  0  0  0  0  0  0
   21.8045   18.4172   23.9944 H   0  0  0  0  0  0  0  0  0  0  0  0
   21.6846   19.7321   22.8319 H   0  0  0  0  0  0  0  0  0  0  0  0
   22.4397   17.9032   21.9774 C   0  0  0  0  0  0  0  0  0  0  0  0
   22.1450   18.1307   20.9437 H   0  0  0  0  0  0  0  0  0  0  0  0
   23.4638   18.2825   22.0982 H   0  0  0  0  0  0  0  0  0  0  0  0
   22.4503   16.3738   22.1913 C   0  0  0  0  0  0  0  0  0  0  0  0
   23.1917   15.9001   21.5349 H   0  0  0  0  0  0  0  0  0  0  0  0
   22.7089   16.1238   23.2284 H   0  0  0  0  0  0  0  0  0  0  0  0
   21.4738   15.9293   21.9626 H   0  0  0  0  0  0  0  0  0  0  0  0
  1  2  1  0  0  0  0
  1  3  2  0  0  0  0
  1  4  1  0  0  0  0
  4  5  1  0  0  0  0
  4  6  1  0  0  0  0
  4  7  1  0  0  0  0
  7  8  1  0  0  0  0
  7  9  1  0  0  0  0
  7 10  1  0  0  0  0
 10 11  1  0  0  0  0
 10 12  1  0  0  0  0
 10 13  1  0  0  0  0
 13 14  1  0  0  0  0
 13 15  1  0  0  0  0
 13 16  1  0  0  0  0
 16 17  1  0  0  0  0
 16 18  1  0  0  0  0
 16 19  1  0  0  0  0
 19 20  1  0  0  0  0
 19 21  1  0  0  0  0
 19 22  1  0  0  0  0
 22 23  1  0  0  0  0
 22 24  1  0  0  0  0
 22 25  1  0  0  0  0
M  END
> <VConfSearch Rank>
898

> <Conf_Id>
87

> <Delta U+W>
1.453

> <U+W>
-50.176

> <U>
9.763

> <W>
-59.940

> <W(PB)>
-62.392

> <W(SA)>
2.452

> <Valence>
8.883

> <Coulomb>
-0.122

> <VdW>
1.003

> <VdW6>
-9.782

> <VdW12>
10.785

> <Bond>
0.212

> <Angle>
2.940

> <Pdih>
5.730

> <Idih>
0.001

> <Tether>
0.000

$$$$
VeraChem MOL file


 25 24  0  0  0  0  0  0  0  0999 V2000     
   18.0281   22.3568   24.3054 C   0  0  0  0  0  0  0  0  0  0  0  0
   16.8830   22.0074   24.0971 O   0  5  0  0  0  0  0  0  0  0  0  0
   18.3433   23.1494   25.1709 O   0  0  0  0  0  0  0  0  0  0  0  0
   19.1327   21.7534   23.4452 C   0  0  0  0  0  0  0  0  0  0  0  0
   19.9216   22.5058   23.3270 H   0  0  0  0  0  0  0  0  0  0  0  0
   18.7195   21.5570   22.4485 H   0  0  0  0  0  0  0  0  0  0  0  0
   19.7193   20.4521   24.0455 C   0  0  0  0  0  0  0  0  0  0  0  0
   20.1214   20.6623   25.0462 H   0  0  0  0  0  0  0  0  0  0  0  0
   18.9084   19.7227   24.1726 H   0  0  0  0  0  0  0  0  0  0  0  0
   20.8314   19.8580   23.1507 C   0  0  0  0  0  0  0  0  0  0  0  0
   21.5989   20.6246   22.9780 H   0  0  0  0  0  0  0  0  0  0  0  0
   20.4210   19.6103   22.1629 H   0  0  0  0  0  0  0  0  0  0  0  0
   21.5167   18.6114   23.7646 C   0  0  0  0  0  0  0  0  0  0  0  0
   22.3284   18.2894   23.0992 H   0  0  0  0  0  0  0  0  0  0  0  0
   22.0024   18.9020   24.7059 H   0  0  0  0  0  0  0  0  0  0  0  0
   20.5770   17.4085   24.0436 C   0  0  0  0  0  0  0  0  0  0  0  0
   19.8638   17.6799   24.8329 H   0  0  0  0  0  0  0  0  0  0  0  0
   21.1759   16.5853   24.4562 H   0  0  0  0  0  0  0  0  0  0  0  0
   19.7916   16.8865   22.8154 C   0  0  0  0  0  0  0  0  0  0  0  0
   19.1466   16.0579   23.1384 H   0  0  0  0  0  0  0  0  0  0  0  0
   19.1173   17.6669   22.4385 H   0  0  0  0  0  0  0  0  0  0  0  0
   20.7045   16.3898   21.6734 C   0  0  0  0  0  0  0  0  0  0  0  0
   21.3989   15.6194   22.0327 H   0  0  0  0  0  0  0  0  0  0  0  0
   20.1048   15.9544   20.8637 H   0  0  0  0  0  0  0  0  0  0  0  0
   21.2926   17.2122   21.2471 H   0  0  0  0  0  0  0  0  0  0  0  0
  1  2  1  0  0  0  0
  1  3  2  0  0  0  0
  1  4  1  0  0  0  0
  4  5  1  0  0  0  0
  4  6  1  0  0  0  0
  4  7  1  0  0  0  0
  7  8  1  0  0  0  0
  7  9  1  0  0  0  0
  7 10  1  0  0  0  0
 10 11  1  0  0  0  0
 10 12  1  0  0  0  0
 10 13  1  0  0  0  0
 13 14  1  0  0  0  0
 13 15  1  0  0  0  0
 13 16  1  0  0  0  0
 16 17  1  0  0  0  0
 16 18  1  0  0  0  0
 16 19  1  0  0  0  0
 19 20  1  0  0  0  0
 19 21  1  0  0  0  0
 19 22  1  0  0  0  0
 22 23  1  0  0  0  0
 22 24  1  0  0  0  0
 22 25  1  0  0  0  0
M  END
> <VConfSearch Rank>
899

> <Conf_Id>
29

> <Delta U+W>
0.850

> <U+W>
-50.780

> <U>
8.646

> <W>
-59.426

> <W(PB)>
-61.868

> <W(SA)>
2.442

> <Valence>
8.924

> <Coulomb>
-1.171

> <VdW>
0.894

> <VdW6>
-10.223

> <VdW12>
11.117

> <Bond>
0.231

> <Angle>
3.232

> <Pdih>
5.461

> <Idih>
0.001

> <Tether>
0.000

$$$$
VeraChem MOL file


 25 24  0  0  0  0  0  0  0  0999 V2000     
   23.7243   19.7505   24.5356 C   0  0  0  0  0  0  0  0  0  0  0  0
   24.2624   18.7191   24.1843 O   0  5  0  0  0  0  0  0  0  0  0  0
   24.0544   20.3803   25.5211 O   0  0  0  0  0  0  0  0  0  0  0  0
   22.5582   20.2734   23.7045 C   0  0  0  0  0  0  0  0  0  0  0  0
   22.7331   19.9945   22.6585 H   0  0  0  0  0  0  0  0  0  0  0  0
   22.5685   21.3688   23.7545 H   0  0  0  0  0  0  0  0  0  0  0  0
   21.1889   19.7287   24.1801 C   0  0  0  0  0  0  0  0  0  0  0  0
   21.2099   18.6315   24.1400 H   0  0  0  0  0  0  0  0  0  0  0  0
   21.0312   20.0083   25.2308 H   0  0  0  0  0  0  0  0  0  0  0  0
   20.0255   20.2684   23.3164 C   0  0  0  0  0  0  0  0  0  0  0  0
   20.1611   19.9555   22.2728 H   0  0  0  0  0  0  0  0  0  0  0  0
   20.0628   21.3662   23.3125 H   0  0  0  0  0  0  0  0  0  0  0  0
   18.6279   19.8297   23.8210 C   0  0  0  0  0  0  0  0  0  0  0  0
   18.4734   20.2331   24.8309 H   0  0  0  0  0  0  0  0  0  0  0  0
   17.8603   20.3006   23.1930 H   0  0  0  0  0  0  0  0  0  0  0  0
   18.3877   18.2971   23.8586 C   0  0  0  0  0  0  0  0  0  0  0  0
   17.3641   18.1121   24.2114 H   0  0  0  0  0  0  0  0  0  0  0  0
   19.0465   17.8444   24.6112 H   0  0  0  0  0  0  0  0  0  0  0  0
   18.5897   17.5647   22.5092 C   0  0  0  0  0  0  0  0  0  0  0  0
   19.6327   17.6610   22.1795 H   0  0  0  0  0  0  0  0  0  0  0  0
   18.4182   16.4907   22.6645 H   0  0  0  0  0  0  0  0  0  0  0  0
   17.6427   18.0636   21.3964 C   0  0  0  0  0  0  0  0  0  0  0  0
   17.8523   19.1080   21.1335 H   0  0  0  0  0  0  0  0  0  0  0  0
   17.7658   17.4602   20.4879 H   0  0  0  0  0  0  0  0  0  0  0  0
   16.5938   17.9912   21.7118 H   0  0  0  0  0  0  0  0  0  0  0  0
  1  2  1  0  0  0  0
  1  3  2  0  0  0  0
  1  4  1  0  0  0  0
  4  5  1  0  0  0  0
  4  6  1  0  0  0  0
  4  7  1  0  0  0  0
  7  8  1  0  0  0  0
  7  9  1  0  0  0  0
  7 10  1  0  0  0  0
 10 11  1  0  0  0  0
 10 12  1  0  0  0  0
 10 13  1  0  0  0  0
 13 14  1  0  0  0  0
 13 15  1  0  0  0  0
 13 16  1  0  0  0  0
 16 17  1  0  0  0  0
 16 18  1  0  0  0  0
 16 19  1  0  0  0  0
 19 20  1  0  0  0  0
 19 21  1  0  0  0  0
 19 22  1  0  0  0  0
 22 23  1  0  0  0  0
 22 24  1  0  0  0  0
 22 25  1  0  0  0  0
M  END
> <VConfSearch Rank>
900

> <Conf_Id>
30

> <Delta U+W>
0.843

> <U+W>
-50.787

> <U>
8.647

> <W>
-59.434

> <W(PB)>
-61.861

> <W(SA)>
2.428

> <Valence>
8.924

> <Coulomb>
-1.170

> <VdW>
0.894

> <VdW6>
-10.224

> <VdW12>
11.118

> <Bond>
0.231

> <Angle>
3.232

> <Pdih>
5.460

> <Idih>
0.000

> <Tether>
0.000

$$$$
VeraChem MOL file


 25 24  0  0  0  0  0  0  0  0999 V2000     
   23.7305   18.1811   25.9137 C   0  0  0  0  0  0  0  0  0  0  0  0
   24.5532   18.4885   25.0727 O   0  5  0  0  0  0  0  0  0  0  0  0
   24.0308   17.7815   27.0211 O   0  0  0  0  0  0  0  0  0  0  0  0
   22.2393   18.2916   25.5921 C   0  0  0  0  0  0  0  0  0  0  0  0
   21.7919   18.9563   26.3404 H   0  0  0  0  0  0  0  0  0  0  0  0
   21.7985   17.2988   25.7403 H   0  0  0  0  0  0  0  0  0  0  0  0
   21.9057   18.8064   24.1666 C   0  0  0  0  0  0  0  0  0  0  0  0
   22.3556   19.7985   24.0228 H   0  0  0  0  0  0  0  0  0  0  0  0
   22.3622   18.1395   23.4221 H   0  0  0  0  0  0  0  0  0  0  0  0
   20.3823   18.8871   23.9270 C   0  0  0  0  0  0  0  0  0  0  0  0
   19.9280   19.5543   24.6724 H   0  0  0  0  0  0  0  0  0  0  0  0
   19.9346   17.8942   24.0714 H   0  0  0  0  0  0  0  0  0  0  0  0
   20.0527   19.3994   22.5084 C   0  0  0  0  0  0  0  0  0  0  0  0
   20.5002   20.3924   22.3638 H   0  0  0  0  0  0  0  0  0  0  0  0
   20.5067   18.7324   21.7628 H   0  0  0  0  0  0  0  0  0  0  0  0
   18.5296   19.4804   22.2682 C   0  0  0  0  0  0  0  0  0  0  0  0
   18.0754   20.1474   23.0137 H   0  0  0  0  0  0  0  0  0  0  0  0
   18.0819   18.4876   22.4127 H   0  0  0  0  0  0  0  0  0  0  0  0
   18.2001   19.9925   20.8503 C   0  0  0  0  0  0  0  0  0  0  0  0
   18.6448   20.9865   20.7027 H   0  0  0  0  0  0  0  0  0  0  0  0
   18.6513   19.3266   20.1017 H   0  0  0  0  0  0  0  0  0  0  0  0
   16.6783   20.0720   20.6143 C   0  0  0  0  0  0  0  0  0  0  0  0
   16.2050   20.7567   21.3302 H   0  0  0  0  0  0  0  0  0  0  0  0
   16.4623   20.4377   19.6021 H   0  0  0  0  0  0  0  0  0  0  0  0
   16.2116   19.0844   20.7246 H   0  0  0  0  0  0  0  0  0  0  0  0
  1  2  1  0  0  0  0
  1  3  2  0  0  0  0
  1  4  1  0  0  0  0
  4  5  1  0  0  0  0
  4  6  1  0  0  0  0
  4  7  1  0  0  0  0
  7  8  1  0  0  0  0
  7  9  1  0  0  0  0
  7 10  1  0  0  0  0
 10 11  1  0  0  0  0
 10 12  1  0  0  0  0
 10 13  1  0  0  0  0
 13 14  1  0  0  0  0
 13 15  1  0  0  0  0
 13 16  1  0  0  0  0
 16 17  1  0  0  0  0
 16 18  1  0  0  0  0
 16 19  1  0  0  0  0
 19 20  1  0  0  0  0
 19 21  1  0  0  0  0
 19 22  1  0  0  0  0
 22 23  1  0  0  0  0
 22 24  1  0  0  0  0
 22 25  1  0  0  0  0
M  END
> <VConfSearch Rank>
901

> <Conf_Id>
0

> <Delta U+W>
0.000

> <U+W>
-51.629

> <U>
6.586

> <W>
-58.216

> <W(PB)>
-60.757

> <W(SA)>
2.541

> <Valence>
8.027

> <Coulomb>
-2.892

> <VdW>
1.451

> <VdW6>
-7.931

> <VdW12>
9.383

> <Bond>
0.149

> <Angle>
2.726

> <Pdih>
5.152

> <Idih>
0.000

> <Tether>
0.000

$$$$
VeraChem MOL file


 25 24  0  0  0  0  0  0  0  0999 V2000     
   23.7267   19.7826   20.2367 C   0  0  0  0  0  0  0  0  0  0  0  0
   24.4232   18.7994   20.0792 O   0  5  0  0  0  0  0  0  0  0  0  0
   23.5380   20.6192   19.3757 O   0  0  0  0  0  0  0  0  0  0  0  0
   23.0325   19.9648   21.5816 C   0  0  0  0  0  0  0  0  0  0  0  0
   22.9496   21.0403   21.7792 H   0  0  0  0  0  0  0  0  0  0  0  0
   23.6796   19.5412   22.3591 H   0  0  0  0  0  0  0  0  0  0  0  0
   21.6335   19.3027   21.6309 C   0  0  0  0  0  0  0  0  0  0  0  0
   21.0025   19.7282   20.8382 H   0  0  0  0  0  0  0  0  0  0  0  0
   21.7325   18.2291   21.4179 H   0  0  0  0  0  0  0  0  0  0  0  0
   20.9516   19.5008   23.0019 C   0  0  0  0  0  0  0  0  0  0  0  0
   20.8552   20.5748   23.2123 H   0  0  0  0  0  0  0  0  0  0  0  0
   21.5855   19.0755   23.7922 H   0  0  0  0  0  0  0  0  0  0  0  0
   19.5574   18.8394   23.0481 C   0  0  0  0  0  0  0  0  0  0  0  0
   18.9233   19.2646   22.2579 H   0  0  0  0  0  0  0  0  0  0  0  0
   19.6535   17.7654   22.8377 H   0  0  0  0  0  0  0  0  0  0  0  0
   18.8748   19.0371   24.4188 C   0  0  0  0  0  0  0  0  0  0  0  0
   18.7784   20.1111   24.6294 H   0  0  0  0  0  0  0  0  0  0  0  0
   19.5087   18.6120   25.2092 H   0  0  0  0  0  0  0  0  0  0  0  0
   17.4812   18.3761   24.4652 C   0  0  0  0  0  0  0  0  0  0  0  0
   16.8436   18.8001   23.6770 H   0  0  0  0  0  0  0  0  0  0  0  0
   17.5739   17.3011   24.2568 H   0  0  0  0  0  0  0  0  0  0  0  0
   16.8030   18.5756   25.8355 C   0  0  0  0  0  0  0  0  0  0  0  0
   15.8139   18.0997   25.8507 H   0  0  0  0  0  0  0  0  0  0  0  0
   17.4047   18.1325   26.6399 H   0  0  0  0  0  0  0  0  0  0  0  0
   16.6689   19.6428   26.0557 H   0  0  0  0  0  0  0  0  0  0  0  0
  1  2  1  0  0  0  0
  1  3  2  0  0  0  0
  1  4  1  0  0  0  0
  4  5  1  0  0  0  0
  4  6  1  0  0  0  0
  4  7  1  0  0  0  0
  7  8  1  0  0  0  0
  7  9  1  0  0  0  0
  7 10  1  0  0  0  0
 10 11  1  0  0  0  0
 10 12  1  0  0  0  0
 10 13  1  0  0  0  0
 13 14  1  0  0  0  0
 13 15  1  0  0  0  0
 13 16  1  0  0  0  0
 16 17  1  0  0  0  0
 16 18  1  0  0  0  0
 16 19  1  0  0  0  0
 19 20  1  0  0  0  0
 19 21  1  0  0  0  0
 19 22  1  0  0  0  0
 22 23  1  0  0  0  0
 22 24  1  0  0  0  0
 22 25  1  0  0  0  0
M  END
> <VConfSearch Rank>
902

> <Conf_Id>
27

> <Delta U+W>
-1.297

> <U+W>
-52.926

> <U>
5.617

> <W>
-58.543

> <W(PB)>
-61.065

> <W(SA)>
2.522

> <Valence>
7.531

> <Coulomb>
-2.818

> <VdW>
0.904

> <VdW6>
-7.640

> <VdW12>
8.544

> <Bond>
0.115

> <Angle>
2.271

> <Pdih>
5.144

> <Idih>
0.001

> <Tether>
0.000

$$$$
VeraChem MOL file


 25 24  0  0  0  0  0  0  0  0999 V2000     
   20.2694   23.0188   22.4482 C   0  0  0  0  0  0  0  0  0  0  0  0
   21.1907   23.6241   22.9599 O   0  5  0  0  0  0  0  0  0  0  0  0
   20.1587   22.8495   21.2498 O   0  0  0  0  0  0  0  0  0  0  0  0
   19.1841   22.4556   23.3614 C   0  0  0  0  0  0  0  0  0  0  0  0
   18.2884   22.2580   22.7601 H   0  0  0  0  0  0  0  0  0  0  0  0
   18.9182   23.2416   24.0780 H   0  0  0  0  0  0  0  0  0  0  0  0
   19.6073   21.1762   24.1288 C   0  0  0  0  0  0  0  0  0  0  0  0
   20.5207   21.3823   24.7040 H   0  0  0  0  0  0  0  0  0  0  0  0
   18.8254   20.9226   24.8574 H   0  0  0  0  0  0  0  0  0  0  0  0
   19.8402   19.9704   23.1909 C   0  0  0  0  0  0  0  0  0  0  0  0
   20.6338   20.2102   22.4697 H   0  0  0  0  0  0  0  0  0  0  0  0
   18.9289   19.7770   22.6085 H   0  0  0  0  0  0  0  0  0  0  0  0
   20.2292   18.7005   23.9781 C   0  0  0  0  0  0  0  0  0  0  0  0
   21.1405   18.8949   24.5601 H   0  0  0  0  0  0  0  0  0  0  0  0
   19.4356   18.4571   24.6978 H   0  0  0  0  0  0  0  0  0  0  0  0
   20.4629   17.4955   23.0415 C   0  0  0  0  0  0  0  0  0  0  0  0
   21.2565   17.7388   22.3217 H   0  0  0  0  0  0  0  0  0  0  0  0
   19.5518   17.3012   22.4591 H   0  0  0  0  0  0  0  0  0  0  0  0
   20.8522   16.2261   23.8279 C   0  0  0  0  0  0  0  0  0  0  0  0
   21.7644   16.4163   24.4103 H   0  0  0  0  0  0  0  0  0  0  0  0
   20.0597   15.9785   24.5477 H   0  0  0  0  0  0  0  0  0  0  0  0
   21.0849   15.0252   22.8890 C   0  0  0  0  0  0  0  0  0  0  0  0
   21.8950   15.2337   22.1779 H   0  0  0  0  0  0  0  0  0  0  0  0
   21.3606   14.1319   23.4644 H   0  0  0  0  0  0  0  0  0  0  0  0
   20.1775   14.7927   22.3163 H   0  0  0  0  0  0  0  0  0  0  0  0
  1  2  1  0  0  0  0
  1  3  2  0  0  0  0
  1  4  1  0  0  0  0
  4  5  1  0  0  0  0
  4  6  1  0  0  0  0
  4  7  1  0  0  0  0
  7  8  1  0  0  0  0
  7  9  1  0  0  0  0
  7 10  1  0  0  0  0
 10 11  1  0  0  0  0
 10 12  1  0  0  0  0
 10 13  1  0  0  0  0
 13 14  1  0  0  0  0
 13 15  1  0  0  0  0
 13 16  1  0  0  0  0
 16 17  1  0  0  0  0
 16 18  1  0  0  0  0
 16 19  1  0  0  0  0
 19 20  1  0  0  0  0
 19 21  1  0  0  0  0
 19 22  1  0  0  0  0
 22 23  1  0  0  0  0
 22 24  1  0  0  0  0
 22 25  1  0  0  0  0
M  END
> <VConfSearch Rank>
903

> <Conf_Id>
37

> <Delta U+W>
-0.230

> <U+W>
-51.860

> <U>
7.816

> <W>
-59.675

> <W(PB)>
-62.180

> <W(SA)>
2.505

> <Valence>
7.785

> <Coulomb>
-0.713

> <VdW>
0.744

> <VdW6>
-8.514

> <VdW12>
9.259

> <Bond>
0.136

> <Angle>
2.433

> <Pdih>
5.216

> <Idih>
0.000

> <Tether>
0.000

$$$$
VeraChem MOL file


 25 24  0  0  0  0  0  0  0  0999 V2000     
   21.7957   21.7375   20.6526 C   0  0  0  0  0  0  0  0  0  0  0  0
   21.2427   21.7613   19.5706 O   0  5  0  0  0  0  0  0  0  0  0  0
   22.9034   21.2707   20.8319 O   0  0  0  0  0  0  0  0  0  0  0  0
   21.0636   22.3422   21.8473 C   0  0  0  0  0  0  0  0  0  0  0  0
   20.6531   23.3068   21.5263 H   0  0  0  0  0  0  0  0  0  0  0  0
   21.7960   22.5552   22.6354 H   0  0  0  0  0  0  0  0  0  0  0  0
   19.9218   21.4523   22.4033 C   0  0  0  0  0  0  0  0  0  0  0  0
   19.3661   22.0187   23.1629 H   0  0  0  0  0  0  0  0  0  0  0  0
   19.2117   21.2248   21.5961 H   0  0  0  0  0  0  0  0  0  0  0  0
   20.4429   20.1383   23.0277 C   0  0  0  0  0  0  0  0  0  0  0  0
   21.1622   20.3708   23.8249 H   0  0  0  0  0  0  0  0  0  0  0  0
   20.9854   19.5575   22.2690 H   0  0  0  0  0  0  0  0  0  0  0  0
   19.2932   19.2833   23.6028 C   0  0  0  0  0  0  0  0  0  0  0  0
   18.7510   19.8610   24.3639 H   0  0  0  0  0  0  0  0  0  0  0  0
   18.5744   19.0512   22.8049 H   0  0  0  0  0  0  0  0  0  0  0  0
   19.8130   17.9699   24.2262 C   0  0  0  0  0  0  0  0  0  0  0  0
   20.5319   18.2017   25.0240 H   0  0  0  0  0  0  0  0  0  0  0  0
   20.3553   17.3920   23.4653 H   0  0  0  0  0  0  0  0  0  0  0  0
   18.6641   17.1146   24.8006 C   0  0  0  0  0  0  0  0  0  0  0  0
   18.1204   17.6889   25.5636 H   0  0  0  0  0  0  0  0  0  0  0  0
   17.9439   16.8792   24.0048 H   0  0  0  0  0  0  0  0  0  0  0  0
   19.1874   15.8040   25.4222 C   0  0  0  0  0  0  0  0  0  0  0  0
   19.8867   16.0104   26.2430 H   0  0  0  0  0  0  0  0  0  0  0  0
   18.3578   15.2087   25.8253 H   0  0  0  0  0  0  0  0  0  0  0  0
   19.7089   15.1946   24.6725 H   0  0  0  0  0  0  0  0  0  0  0  0
  1  2  1  0  0  0  0
  1  3  2  0  0  0  0
  1  4  1  0  0  0  0
  4  5  1  0  0  0  0
  4  6  1  0  0  0  0
  4  7  1  0  0  0  0
  7  8  1  0  0  0  0
  7  9  1  0  0  0  0
  7 10  1  0  0  0  0
 10 11  1  0  0  0  0
 10 12  1  0  0  0  0
 10 13  1  0  0  0  0
 13 14  1  0  0  0  0
 13 15  1  0  0  0  0
 13 16  1  0  0  0  0
 16 17  1  0  0  0  0
 16 18  1  0  0  0  0
 16 19  1  0  0  0  0
 19 20  1  0  0  0  0
 19 21  1  0  0  0  0
 19 22  1  0  0  0  0
 22 23  1  0  0  0  0
 22 24  1  0  0  0  0
 22 25  1  0  0  0  0
M  END
> <VConfSearch Rank>
904

> <Conf_Id>
54

> <Delta U+W>
-0.224

> <U+W>
-51.854

> <U>
7.816

> <W>
-59.670

> <W(PB)>
-62.157

> <W(SA)>
2.487

> <Valence>
7.785

> <Coulomb>
-0.713

> <VdW>
0.744

> <VdW6>
-8.515

> <VdW12>
9.259

> <Bond>
0.136

> <Angle>
2.433

> <Pdih>
5.215

> <Idih>
0.000

> <Tether>
0.000

$$$$
VeraChem MOL file


 25 24  0  0  0  0  0  0  0  0999 V2000     
   20.6201   16.7936   26.6006 C   0  0  0  0  0  0  0  0  0  0  0  0
   21.7923   16.9150   26.8979 O   0  5  0  0  0  0  0  0  0  0  0  0
   19.7080   16.9292   27.3923 O   0  0  0  0  0  0  0  0  0  0  0  0
   20.2732   16.4328   25.1589 C   0  0  0  0  0  0  0  0  0  0  0  0
   19.5298   15.6277   25.1934 H   0  0  0  0  0  0  0  0  0  0  0  0
   21.1669   16.0191   24.6762 H   0  0  0  0  0  0  0  0  0  0  0  0
   19.7151   17.6171   24.3273 C   0  0  0  0  0  0  0  0  0  0  0  0
   19.3528   17.2266   23.3681 H   0  0  0  0  0  0  0  0  0  0  0  0
   18.8458   18.0467   24.8442 H   0  0  0  0  0  0  0  0  0  0  0  0
   20.7740   18.7181   24.0774 C   0  0  0  0  0  0  0  0  0  0  0  0
   21.6225   18.2979   23.5203 H   0  0  0  0  0  0  0  0  0  0  0  0
   21.1756   19.0557   25.0426 H   0  0  0  0  0  0  0  0  0  0  0  0
   20.2197   19.9519   23.3255 C   0  0  0  0  0  0  0  0  0  0  0  0
   19.3596   20.3604   23.8731 H   0  0  0  0  0  0  0  0  0  0  0  0
   20.9934   20.7301   23.3365 H   0  0  0  0  0  0  0  0  0  0  0  0
   19.8139   19.6532   21.8609 C   0  0  0  0  0  0  0  0  0  0  0  0
   19.0350   18.8805   21.8475 H   0  0  0  0  0  0  0  0  0  0  0  0
   20.6731   19.2400   21.3152 H   0  0  0  0  0  0  0  0  0  0  0  0
   19.2708   20.8911   21.1093 C   0  0  0  0  0  0  0  0  0  0  0  0
   18.8804   20.5669   20.1348 H   0  0  0  0  0  0  0  0  0  0  0  0
   18.4189   21.3148   21.6588 H   0  0  0  0  0  0  0  0  0  0  0  0
   20.3359   21.9848   20.8762 C   0  0  0  0  0  0  0  0  0  0  0  0
   20.6700   22.4286   21.8221 H   0  0  0  0  0  0  0  0  0  0  0  0
   21.2130   21.5753   20.3584 H   0  0  0  0  0  0  0  0  0  0  0  0
   19.9258   22.7936   20.2576 H   0  0  0  0  0  0  0  0  0  0  0  0
  1  2  1  0  0  0  0
  1  3  2  0  0  0  0
  1  4  1  0  0  0  0
  4  5  1  0  0  0  0
  4  6  1  0  0  0  0
  4  7  1  0  0  0  0
  7  8  1  0  0  0  0
  7  9  1  0  0  0  0
  7 10  1  0  0  0  0
 10 11  1  0  0  0  0
 10 12  1  0  0  0  0
 10 13  1  0  0  0  0
 13 14  1  0  0  0  0
 13 15  1  0  0  0  0
 13 16  1  0  0  0  0
 16 17  1  0  0  0  0
 16 18  1  0  0  0  0
 16 19  1  0  0  0  0
 19 20  1  0  0  0  0
 19 21  1  0  0  0  0
 19 22  1  0  0  0  0
 22 23  1  0  0  0  0
 22 24  1  0  0  0  0
 22 25  1  0  0  0  0
M  END
> <VConfSearch Rank>
905

> <Conf_Id>
101

> <Delta U+W>
1.534

> <U+W>
-50.095

> <U>
9.416

> <W>
-59.512

> <W(PB)>
-61.988

> <W(SA)>
2.476

> <Valence>
8.939

> <Coulomb>
-0.615

> <VdW>
1.092

> <VdW6>
-9.710

> <VdW12>
10.802

> <Bond>
0.216

> <Angle>
2.979

> <Pdih>
5.743

> <Idih>
0.000

> <Tether>
0.000

$$$$
VeraChem MOL file


 25 24  0  0  0  0  0  0  0  0999 V2000     
   22.3747   16.1043   24.9411 C   0  0  0  0  0  0  0  0  0  0  0  0
   23.3573   15.9581   24.2412 O   0  5  0  0  0  0  0  0  0  0  0  0
   22.3066   15.7242   26.0934 O   0  0  0  0  0  0  0  0  0  0  0  0
   21.1689   16.8243   24.3482 C   0  0  0  0  0  0  0  0  0  0  0  0
   20.2647   16.4099   24.8098 H   0  0  0  0  0  0  0  0  0  0  0  0
   21.1295   16.5825   23.2803 H   0  0  0  0  0  0  0  0  0  0  0  0
   21.2232   18.3596   24.5616 C   0  0  0  0  0  0  0  0  0  0  0  0
   21.3612   18.5602   25.6331 H   0  0  0  0  0  0  0  0  0  0  0  0
   22.1065   18.7706   24.0534 H   0  0  0  0  0  0  0  0  0  0  0  0
   19.9518   19.0991   24.0805 C   0  0  0  0  0  0  0  0  0  0  0  0
   20.0268   20.1456   24.4024 H   0  0  0  0  0  0  0  0  0  0  0  0
   19.0692   18.6800   24.5825 H   0  0  0  0  0  0  0  0  0  0  0  0
   19.7541   19.0487   22.5455 C   0  0  0  0  0  0  0  0  0  0  0  0
   20.6358   19.4682   22.0438 H   0  0  0  0  0  0  0  0  0  0  0  0
   19.6873   18.0031   22.2199 H   0  0  0  0  0  0  0  0  0  0  0  0
   18.4739   19.7769   22.0625 C   0  0  0  0  0  0  0  0  0  0  0  0
   17.5972   19.2872   22.5077 H   0  0  0  0  0  0  0  0  0  0  0  0
   18.3797   19.6369   20.9771 H   0  0  0  0  0  0  0  0  0  0  0  0
   18.4106   21.2927   22.3753 C   0  0  0  0  0  0  0  0  0  0  0  0
   17.4616   21.6891   21.9892 H   0  0  0  0  0  0  0  0  0  0  0  0
   18.3865   21.4560   23.4607 H   0  0  0  0  0  0  0  0  0  0  0  0
   19.5734   22.0958   21.7532 C   0  0  0  0  0  0  0  0  0  0  0  0
   19.6314   21.9281   20.6699 H   0  0  0  0  0  0  0  0  0  0  0  0
   19.4317   23.1710   21.9226 H   0  0  0  0  0  0  0  0  0  0  0  0
   20.5357   21.8131   22.1982 H   0  0  0  0  0  0  0  0  0  0  0  0
  1  2  1  0  0  0  0
  1  3  2  0  0  0  0
  1  4  1  0  0  0  0
  4  5  1  0  0  0  0
  4  6  1  0  0  0  0
  4  7  1  0  0  0  0
  7  8  1  0  0  0  0
  7  9  1  0  0  0  0
  7 10  1  0  0  0  0
 10 11  1  0  0  0  0
 10 12  1  0  0  0  0
 10 13  1  0  0  0  0
 13 14  1  0  0  0  0
 13 15  1  0  0  0  0
 13 16  1  0  0  0  0
 16 17  1  0  0  0  0
 16 18  1  0  0  0  0
 16 19  1  0  0  0  0
 19 20  1  0  0  0  0
 19 21  1  0  0  0  0
 19 22  1  0  0  0  0
 22 23  1  0  0  0  0
 22 24  1  0  0  0  0
 22 25  1  0  0  0  0
M  END
> <VConfSearch Rank>
906

> <Conf_Id>
75

> <Delta U+W>
1.014

> <U+W>
-50.615

> <U>
8.474

> <W>
-59.089

> <W(PB)>
-61.530

> <W(SA)>
2.441

> <Valence>
9.080

> <Coulomb>
-1.772

> <VdW>
1.165

> <VdW6>
-9.830

> <VdW12>
10.996

> <Bond>
0.240

> <Angle>
3.225

> <Pdih>
5.615

> <Idih>
0.001

> <Tether>
0.000

$$$$
VeraChem MOL file


 25 24  0  0  0  0  0  0  0  0999 V2000     
   17.3734   21.4817   20.9938 C   0  0  0  0  0  0  0  0  0  0  0  0
   17.6788   21.3774   19.8223 O   0  5  0  0  0  0  0  0  0  0  0  0
   16.2493   21.7403   21.3762 O   0  0  0  0  0  0  0  0  0  0  0  0
   18.4560   21.2546   22.0429 C   0  0  0  0  0  0  0  0  0  0  0  0
   18.2344   21.8946   22.9053 H   0  0  0  0  0  0  0  0  0  0  0  0
   19.4117   21.5930   21.6248 H   0  0  0  0  0  0  0  0  0  0  0  0
   18.5613   19.7751   22.4880 C   0  0  0  0  0  0  0  0  0  0  0  0
   17.5933   19.4477   22.8920 H   0  0  0  0  0  0  0  0  0  0  0  0
   18.7703   19.1466   21.6113 H   0  0  0  0  0  0  0  0  0  0  0  0
   19.6648   19.5710   23.5486 C   0  0  0  0  0  0  0  0  0  0  0  0
   19.4521   20.2014   24.4227 H   0  0  0  0  0  0  0  0  0  0  0  0
   20.6251   19.9103   23.1425 H   0  0  0  0  0  0  0  0  0  0  0  0
   19.7619   18.0929   23.9943 C   0  0  0  0  0  0  0  0  0  0  0  0
   18.7935   17.8008   24.4230 H   0  0  0  0  0  0  0  0  0  0  0  0
   19.9209   17.4407   23.1247 H   0  0  0  0  0  0  0  0  0  0  0  0
   20.8641   17.8422   25.0548 C   0  0  0  0  0  0  0  0  0  0  0  0
   20.4986   17.0762   25.7523 H   0  0  0  0  0  0  0  0  0  0  0  0
   21.0231   18.7451   25.6602 H   0  0  0  0  0  0  0  0  0  0  0  0
   22.2129   17.3428   24.4801 C   0  0  0  0  0  0  0  0  0  0  0  0
   22.8880   17.1211   25.3181 H   0  0  0  0  0  0  0  0  0  0  0  0
   22.0581   16.3924   23.9509 H   0  0  0  0  0  0  0  0  0  0  0  0
   22.9089   18.3461   23.5371 C   0  0  0  0  0  0  0  0  0  0  0  0
   23.0176   19.3275   24.0166 H   0  0  0  0  0  0  0  0  0  0  0  0
   23.9107   17.9878   23.2674 H   0  0  0  0  0  0  0  0  0  0  0  0
   22.3419   18.4726   22.6064 H   0  0  0  0  0  0  0  0  0  0  0  0
  1  2  1  0  0  0  0
  1  3  2  0  0  0  0
  1  4  1  0  0  0  0
  4  5  1  0  0  0  0
  4  6  1  0  0  0  0
  4  7  1  0  0  0  0
  7  8  1  0  0  0  0
  7  9  1  0  0  0  0
  7 10  1  0  0  0  0
 10 11  1  0  0  0  0
 10 12  1  0  0  0  0
 10 13  1  0  0  0  0
 13 14  1  0  0  0  0
 13 15  1  0  0  0  0
 13 16  1  0  0  0  0
 16 17  1  0  0  0  0
 16 18  1  0  0  0  0
 16 19  1  0  0  0  0
 19 20  1  0  0  0  0
 19 21  1  0  0  0  0
 19 22  1  0  0  0  0
 22 23  1  0  0  0  0
 22 24  1  0  0  0  0
 22 25  1  0  0  0  0
M  END
> <VConfSearch Rank>
907

> <Conf_Id>
125

> <Delta U+W>
2.314

> <U+W>
-49.315

> <U>
9.740

> <W>
-59.054

> <W(PB)>
-61.488

> <W(SA)>
2.433

> <Valence>
10.506

> <Coulomb>
-1.761

> <VdW>
0.994

> <VdW6>
-9.209

> <VdW12>
10.203

> <Bond>
0.193

> <Angle>
2.979

> <Pdih>
7.334

> <Idih>
0.001

> <Tether>
0.000

$$$$
VeraChem MOL file


 25 24  0  0  0  0  0  0  0  0999 V2000     
   20.2549   18.7112   19.2363 C   0  0  0  0  0  0  0  0  0  0  0  0
   19.6350   17.6937   18.9970 O   0  5  0  0  0  0  0  0  0  0  0  0
   20.8869   19.3266   18.4006 O   0  0  0  0  0  0  0  0  0  0  0  0
   20.2600   19.2311   20.6694 C   0  0  0  0  0  0  0  0  0  0  0  0
   19.2895   18.9864   21.1156 H   0  0  0  0  0  0  0  0  0  0  0  0
   20.3362   20.3244   20.6343 H   0  0  0  0  0  0  0  0  0  0  0  0
   21.4166   18.6407   21.5173 C   0  0  0  0  0  0  0  0  0  0  0  0
   21.3028   17.5499   21.5841 H   0  0  0  0  0  0  0  0  0  0  0  0
   22.3655   18.8218   20.9936 H   0  0  0  0  0  0  0  0  0  0  0  0
   21.5121   19.2445   22.9387 C   0  0  0  0  0  0  0  0  0  0  0  0
   21.6355   20.3339   22.8683 H   0  0  0  0  0  0  0  0  0  0  0  0
   22.4213   18.8592   23.4200 H   0  0  0  0  0  0  0  0  0  0  0  0
   20.2921   18.9153   23.8301 C   0  0  0  0  0  0  0  0  0  0  0  0
   19.3879   19.3550   23.3922 H   0  0  0  0  0  0  0  0  0  0  0  0
   20.1413   17.8277   23.8585 H   0  0  0  0  0  0  0  0  0  0  0  0
   20.4785   19.4482   25.2697 C   0  0  0  0  0  0  0  0  0  0  0  0
   20.5828   20.5417   25.2487 H   0  0  0  0  0  0  0  0  0  0  0  0
   21.4189   19.0539   25.6784 H   0  0  0  0  0  0  0  0  0  0  0  0
   19.3267   19.0567   26.2246 C   0  0  0  0  0  0  0  0  0  0  0  0
   19.2232   17.9631   26.2522 H   0  0  0  0  0  0  0  0  0  0  0  0
   19.5928   19.3688   27.2439 H   0  0  0  0  0  0  0  0  0  0  0  0
   17.9735   19.6973   25.8463 C   0  0  0  0  0  0  0  0  0  0  0  0
   17.6083   19.3226   24.8820 H   0  0  0  0  0  0  0  0  0  0  0  0
   17.2133   19.4630   26.6027 H   0  0  0  0  0  0  0  0  0  0  0  0
   18.0603   20.7897   25.7815 H   0  0  0  0  0  0  0  0  0  0  0  0
  1  2  1  0  0  0  0
  1  3  2  0  0  0  0
  1  4  1  0  0  0  0
  4  5  1  0  0  0  0
  4  6  1  0  0  0  0
  4  7  1  0  0  0  0
  7  8  1  0  0  0  0
  7  9  1  0  0  0  0
  7 10  1  0  0  0  0
 10 11  1  0  0  0  0
 10 12  1  0  0  0  0
 10 13  1  0  0  0  0
 13 14  1  0  0  0  0
 13 15  1  0  0  0  0
 13 16  1  0  0  0  0
 16 17  1  0  0  0  0
 16 18  1  0  0  0  0
 16 19  1  0  0  0  0
 19 20  1  0  0  0  0
 19 21  1  0  0  0  0
 19 22  1  0  0  0  0
 22 23  1  0  0  0  0
 22 24  1  0  0  0  0
 22 25  1  0  0  0  0
M  END
> <VConfSearch Rank>
908

> <Conf_Id>
4

> <Delta U+W>
0.189

> <U+W>
-51.441

> <U>
7.701

> <W>
-59.141

> <W(PB)>
-61.609

> <W(SA)>
2.467

> <Valence>
8.550

> <Coulomb>
-1.988

> <VdW>
1.139

> <VdW6>
-8.988

> <VdW12>
10.127

> <Bond>
0.191

> <Angle>
2.738

> <Pdih>
5.621

> <Idih>
0.001

> <Tether>
0.000

$$$$
VeraChem MOL file


 25 24  0  0  0  0  0  0  0  0999 V2000     
   22.2927   19.5462   26.6906 C   0  0  0  0  0  0  0  0  0  0  0  0
   23.4333   19.3114   26.3432 O   0  5  0  0  0  0  0  0  0  0  0  0
   21.9949   19.9407   27.8007 O   0  0  0  0  0  0  0  0  0  0  0  0
   21.1759   19.3582   25.6700 C   0  0  0  0  0  0  0  0  0  0  0  0
   20.2692   19.0592   26.2093 H   0  0  0  0  0  0  0  0  0  0  0  0
   21.4576   18.5234   25.0185 H   0  0  0  0  0  0  0  0  0  0  0  0
   20.9052   20.6368   24.8351 C   0  0  0  0  0  0  0  0  0  0  0  0
   20.7196   21.4738   25.5225 H   0  0  0  0  0  0  0  0  0  0  0  0
   21.8060   20.8991   24.2633 H   0  0  0  0  0  0  0  0  0  0  0  0
   19.6974   20.5054   23.8769 C   0  0  0  0  0  0  0  0  0  0  0  0
   19.5086   21.4859   23.4187 H   0  0  0  0  0  0  0  0  0  0  0  0
   18.7965   20.2528   24.4527 H   0  0  0  0  0  0  0  0  0  0  0  0
   19.9106   19.4593   22.7583 C   0  0  0  0  0  0  0  0  0  0  0  0
   20.8386   19.6858   22.2160 H   0  0  0  0  0  0  0  0  0  0  0  0
   20.0320   18.4646   23.2039 H   0  0  0  0  0  0  0  0  0  0  0  0
   18.7251   19.4374   21.7657 C   0  0  0  0  0  0  0  0  0  0  0  0
   18.5694   20.4510   21.3717 H   0  0  0  0  0  0  0  0  0  0  0  0
   17.8028   19.1652   22.2970 H   0  0  0  0  0  0  0  0  0  0  0  0
   18.9384   18.4756   20.5735 C   0  0  0  0  0  0  0  0  0  0  0  0
   18.1122   18.6086   19.8615 H   0  0  0  0  0  0  0  0  0  0  0  0
   19.8574   18.7483   20.0366 H   0  0  0  0  0  0  0  0  0  0  0  0
   19.0013   16.9898   20.9896 C   0  0  0  0  0  0  0  0  0  0  0  0
   18.1061   16.7021   21.5561 H   0  0  0  0  0  0  0  0  0  0  0  0
   19.0617   16.3454   20.1031 H   0  0  0  0  0  0  0  0  0  0  0  0
   19.8826   16.7841   21.6098 H   0  0  0  0  0  0  0  0  0  0  0  0
  1  2  1  0  0  0  0
  1  3  2  0  0  0  0
  1  4  1  0  0  0  0
  4  5  1  0  0  0  0
  4  6  1  0  0  0  0
  4  7  1  0  0  0  0
  7  8  1  0  0  0  0
  7  9  1  0  0  0  0
  7 10  1  0  0  0  0
 10 11  1  0  0  0  0
 10 12  1  0  0  0  0
 10 13  1  0  0  0  0
 13 14  1  0  0  0  0
 13 15  1  0  0  0  0
 13 16  1  0  0  0  0
 16 17  1  0  0  0  0
 16 18  1  0  0  0  0
 16 19  1  0  0  0  0
 19 20  1  0  0  0  0
 19 21  1  0  0  0  0
 19 22  1  0  0  0  0
 22 23  1  0  0  0  0
 22 24  1  0  0  0  0
 22 25  1  0  0  0  0
M  END
> <VConfSearch Rank>
909

> <Conf_Id>
17

> <Delta U+W>
0.219

> <U+W>
-51.411

> <U>
7.701

> <W>
-59.111

> <W(PB)>
-61.599

> <W(SA)>
2.488

> <Valence>
8.550

> <Coulomb>
-1.988

> <VdW>
1.139

> <VdW6>
-8.988

> <VdW12>
10.127

> <Bond>
0.191

> <Angle>
2.738

> <Pdih>
5.621

> <Idih>
0.001

> <Tether>
0.000

$$$$
VeraChem MOL file


 25 24  0  0  0  0  0  0  0  0999 V2000     
   17.1068   17.2134   22.1402 C   0  0  0  0  0  0  0  0  0  0  0  0
   16.0775   17.5171   22.7108 O   0  5  0  0  0  0  0  0  0  0  0  0
   17.6326   16.1220   22.2366 O   0  0  0  0  0  0  0  0  0  0  0  0
   17.7665   18.2519   21.2372 C   0  0  0  0  0  0  0  0  0  0  0  0
   17.0204   19.0114   20.9741 H   0  0  0  0  0  0  0  0  0  0  0  0
   18.0467   17.7463   20.3056 H   0  0  0  0  0  0  0  0  0  0  0  0
   19.0185   18.9224   21.8599 C   0  0  0  0  0  0  0  0  0  0  0  0
   19.7413   18.1418   22.1321 H   0  0  0  0  0  0  0  0  0  0  0  0
   19.5012   19.5518   21.1002 H   0  0  0  0  0  0  0  0  0  0  0  0
   18.6738   19.7870   23.0961 C   0  0  0  0  0  0  0  0  0  0  0  0
   18.2548   19.1531   23.8898 H   0  0  0  0  0  0  0  0  0  0  0  0
   17.8855   20.5018   22.8231 H   0  0  0  0  0  0  0  0  0  0  0  0
   19.8824   20.5770   23.6519 C   0  0  0  0  0  0  0  0  0  0  0  0
   20.2976   21.2183   22.8624 H   0  0  0  0  0  0  0  0  0  0  0  0
   19.5237   21.2503   24.4424 H   0  0  0  0  0  0  0  0  0  0  0  0
   20.9961   19.6731   24.2293 C   0  0  0  0  0  0  0  0  0  0  0  0
   21.4190   19.0452   23.4344 H   0  0  0  0  0  0  0  0  0  0  0  0
   20.5665   18.9951   24.9794 H   0  0  0  0  0  0  0  0  0  0  0  0
   22.1276   20.5024   24.8725 C   0  0  0  0  0  0  0  0  0  0  0  0
   22.5583   21.1830   24.1251 H   0  0  0  0  0  0  0  0  0  0  0  0
   21.7171   21.1292   25.6763 H   0  0  0  0  0  0  0  0  0  0  0  0
   23.2392   19.5997   25.4445 C   0  0  0  0  0  0  0  0  0  0  0  0
   23.6902   18.9840   24.6553 H   0  0  0  0  0  0  0  0  0  0  0  0
   24.0345   20.2054   25.8980 H   0  0  0  0  0  0  0  0  0  0  0  0
   22.8415   18.9290   26.2174 H   0  0  0  0  0  0  0  0  0  0  0  0
  1  2  1  0  0  0  0
  1  3  2  0  0  0  0
  1  4  1  0  0  0  0
  4  5  1  0  0  0  0
  4  6  1  0  0  0  0
  4  7  1  0  0  0  0
  7  8  1  0  0  0  0
  7  9  1  0  0  0  0
  7 10  1  0  0  0  0
 10 11  1  0  0  0  0
 10 12  1  0  0  0  0
 10 13  1  0  0  0  0
 13 14  1  0  0  0  0
 13 15  1  0  0  0  0
 13 16  1  0  0  0  0
 16 17  1  0  0  0  0
 16 18  1  0  0  0  0
 16 19  1  0  0  0  0
 19 20  1  0  0  0  0
 19 21  1  0  0  0  0
 19 22  1  0  0  0  0
 22 23  1  0  0  0  0
 22 24  1  0  0  0  0
 22 25  1  0  0  0  0
M  END
> <VConfSearch Rank>
910

> <Conf_Id>
142

> <Delta U+W>
0.593

> <U+W>
-51.037

> <U>
8.903

> <W>
-59.940

> <W(PB)>
-62.418

> <W(SA)>
2.478

> <Valence>
8.305

> <Coulomb>
-0.223

> <VdW>
0.821

> <VdW6>
-9.236

> <VdW12>
10.057

> <Bond>
0.173

> <Angle>
2.663

> <Pdih>
5.469

> <Idih>
0.001

> <Tether>
0.000

$$$$
VeraChem MOL file


 25 24  0  0  0  0  0  0  0  0999 V2000     
   18.4854   17.0378   21.2441 C   0  0  0  0  0  0  0  0  0  0  0  0
   18.1292   15.8771   21.1849 O   0  5  0  0  0  0  0  0  0  0  0  0
   17.7778   17.9747   20.9301 O   0  0  0  0  0  0  0  0  0  0  0  0
   19.9083   17.3296   21.7120 C   0  0  0  0  0  0  0  0  0  0  0  0
   20.1601   18.3631   21.4478 H   0  0  0  0  0  0  0  0  0  0  0  0
   20.5809   16.6879   21.1313 H   0  0  0  0  0  0  0  0  0  0  0  0
   20.1409   17.0807   23.2273 C   0  0  0  0  0  0  0  0  0  0  0  0
   19.9460   16.0213   23.4438 H   0  0  0  0  0  0  0  0  0  0  0  0
   21.2004   17.2452   23.4624 H   0  0  0  0  0  0  0  0  0  0  0  0
   19.2582   17.9478   24.1620 C   0  0  0  0  0  0  0  0  0  0  0  0
   19.4927   17.6933   25.2045 H   0  0  0  0  0  0  0  0  0  0  0  0
   18.2046   17.6735   24.0145 H   0  0  0  0  0  0  0  0  0  0  0  0
   19.4015   19.4791   23.9749 C   0  0  0  0  0  0  0  0  0  0  0  0
   19.0633   19.7658   22.9702 H   0  0  0  0  0  0  0  0  0  0  0  0
   18.7199   19.9776   24.6774 H   0  0  0  0  0  0  0  0  0  0  0  0
   20.8379   19.9993   24.2135 C   0  0  0  0  0  0  0  0  0  0  0  0
   21.5202   19.5650   23.4713 H   0  0  0  0  0  0  0  0  0  0  0  0
   21.1873   19.6722   25.2022 H   0  0  0  0  0  0  0  0  0  0  0  0
   20.9093   21.5383   24.1240 C   0  0  0  0  0  0  0  0  0  0  0  0
   20.5575   21.8678   23.1365 H   0  0  0  0  0  0  0  0  0  0  0  0
   20.2355   21.9847   24.8684 H   0  0  0  0  0  0  0  0  0  0  0  0
   22.3434   22.0551   24.3562 C   0  0  0  0  0  0  0  0  0  0  0  0
   23.0335   21.6491   23.6050 H   0  0  0  0  0  0  0  0  0  0  0  0
   22.3755   23.1503   24.2892 H   0  0  0  0  0  0  0  0  0  0  0  0
   22.7091   21.7653   25.3499 H   0  0  0  0  0  0  0  0  0  0  0  0
  1  2  1  0  0  0  0
  1  3  2  0  0  0  0
  1  4  1  0  0  0  0
  4  5  1  0  0  0  0
  4  6  1  0  0  0  0
  4  7  1  0  0  0  0
  7  8  1  0  0  0  0
  7  9  1  0  0  0  0
  7 10  1  0  0  0  0
 10 11  1  0  0  0  0
 10 12  1  0  0  0  0
 10 13  1  0  0  0  0
 13 14  1  0  0  0  0
 13 15  1  0  0  0  0
 13 16  1  0  0  0  0
 16 17  1  0  0  0  0
 16 18  1  0  0  0  0
 16 19  1  0  0  0  0
 19 20  1  0  0  0  0
 19 21  1  0  0  0  0
 19 22  1  0  0  0  0
 22 23  1  0  0  0  0
 22 24  1  0  0  0  0
 22 25  1  0  0  0  0
M  END
> <VConfSearch Rank>
911

> <Conf_Id>
135

> <Delta U+W>
1.314

> <U+W>
-50.316

> <U>
9.773

> <W>
-60.088

> <W(PB)>
-62.535

> <W(SA)>
2.447

> <Valence>
8.741

> <Coulomb>
0.479

> <VdW>
0.552

> <VdW6>
-10.627

> <VdW12>
11.179

> <Bond>
0.227

> <Angle>
3.155

> <Pdih>
5.358

> <Idih>
0.001

> <Tether>
0.000

$$$$
VeraChem MOL file


 25 24  0  0  0  0  0  0  0  0999 V2000     
   22.3534   22.1935   21.3411 C   0  0  0  0  0  0  0  0  0  0  0  0
   22.2238   23.2942   21.8396 O   0  5  0  0  0  0  0  0  0  0  0  0
   23.2878   21.8830   20.6289 O   0  0  0  0  0  0  0  0  0  0  0  0
   21.2972   21.1368   21.6443 C   0  0  0  0  0  0  0  0  0  0  0  0
   21.2179   20.4760   20.7728 H   0  0  0  0  0  0  0  0  0  0  0  0
   20.3354   21.6500   21.7522 H   0  0  0  0  0  0  0  0  0  0  0  0
   21.6249   20.3097   22.9149 C   0  0  0  0  0  0  0  0  0  0  0  0
   22.6356   19.8916   22.8092 H   0  0  0  0  0  0  0  0  0  0  0  0
   21.6546   20.9740   23.7895 H   0  0  0  0  0  0  0  0  0  0  0  0
   20.6353   19.1480   23.1725 C   0  0  0  0  0  0  0  0  0  0  0  0
   21.0384   18.5381   23.9907 H   0  0  0  0  0  0  0  0  0  0  0  0
   20.5883   18.4993   22.2873 H   0  0  0  0  0  0  0  0  0  0  0  0
   19.2124   19.6228   23.5524 C   0  0  0  0  0  0  0  0  0  0  0  0
   19.2616   20.2218   24.4718 H   0  0  0  0  0  0  0  0  0  0  0  0
   18.8267   20.2889   22.7707 H   0  0  0  0  0  0  0  0  0  0  0  0
   18.1891   18.4744   23.7410 C   0  0  0  0  0  0  0  0  0  0  0  0
   18.0620   17.9254   22.7979 H   0  0  0  0  0  0  0  0  0  0  0  0
   17.2135   18.9332   23.9521 H   0  0  0  0  0  0  0  0  0  0  0  0
   18.5189   17.4927   24.8932 C   0  0  0  0  0  0  0  0  0  0  0  0
   19.1235   17.9949   25.6610 H   0  0  0  0  0  0  0  0  0  0  0  0
   17.5811   17.2012   25.3861 H   0  0  0  0  0  0  0  0  0  0  0  0
   19.2251   16.2057   24.4114 C   0  0  0  0  0  0  0  0  0  0  0  0
   20.1775   16.4241   23.9151 H   0  0  0  0  0  0  0  0  0  0  0  0
   19.4334   15.5412   25.2599 H   0  0  0  0  0  0  0  0  0  0  0  0
   18.5926   15.6561   23.7022 H   0  0  0  0  0  0  0  0  0  0  0  0
  1  2  1  0  0  0  0
  1  3  2  0  0  0  0
  1  4  1  0  0  0  0
  4  5  1  0  0  0  0
  4  6  1  0  0  0  0
  4  7  1  0  0  0  0
  7  8  1  0  0  0  0
  7  9  1  0  0  0  0
  7 10  1  0  0  0  0
 10 11  1  0  0  0  0
 10 12  1  0  0  0  0
 10 13  1  0  0  0  0
 13 14  1  0  0  0  0
 13 15  1  0  0  0  0
 13 16  1  0  0  0  0
 16 17  1  0  0  0  0
 16 18  1  0  0  0  0
 16 19  1  0  0  0  0
 19 20  1  0  0  0  0
 19 21  1  0  0  0  0
 19 22  1  0  0  0  0
 22 23  1  0  0  0  0
 22 24  1  0  0  0  0
 22 25  1  0  0  0  0
M  END
> <VConfSearch Rank>
912

> <Conf_Id>
19

> <Delta U+W>
3.222

> <U+W>
-48.407

> <U>
10.617

> <W>
-59.025

> <W(PB)>
-61.462

> <W(SA)>
2.437

> <Valence>
11.188

> <Coulomb>
-1.778

> <VdW>
1.208

> <VdW6>
-9.786

> <VdW12>
10.993

> <Bond>
0.241

> <Angle>
3.294

> <Pdih>
7.653

> <Idih>
0.001

> <Tether>
0.000

$$$$
VeraChem MOL file


 25 24  0  0  0  0  0  0  0  0999 V2000     
   18.8218   15.5644   21.5441 C   0  0  0  0  0  0  0  0  0  0  0  0
   17.8411   15.0902   22.0827 O   0  5  0  0  0  0  0  0  0  0  0  0
   19.5866   14.9216   20.8523 O   0  0  0  0  0  0  0  0  0  0  0  0
   19.1222   17.0422   21.7674 C   0  0  0  0  0  0  0  0  0  0  0  0
   18.1642   17.5650   21.8634 H   0  0  0  0  0  0  0  0  0  0  0  0
   19.6153   17.4284   20.8674 H   0  0  0  0  0  0  0  0  0  0  0  0
   20.0118   17.2911   23.0134 C   0  0  0  0  0  0  0  0  0  0  0  0
   19.4883   16.9444   23.9152 H   0  0  0  0  0  0  0  0  0  0  0  0
   20.9175   16.6752   22.9253 H   0  0  0  0  0  0  0  0  0  0  0  0
   20.4358   18.7690   23.1892 C   0  0  0  0  0  0  0  0  0  0  0  0
   20.9365   19.1209   22.2770 H   0  0  0  0  0  0  0  0  0  0  0  0
   21.1793   18.8121   23.9949 H   0  0  0  0  0  0  0  0  0  0  0  0
   19.2590   19.7107   23.5394 C   0  0  0  0  0  0  0  0  0  0  0  0
   18.4788   19.6242   22.7730 H   0  0  0  0  0  0  0  0  0  0  0  0
   18.8013   19.3862   24.4838 H   0  0  0  0  0  0  0  0  0  0  0  0
   19.6522   21.2059   23.6456 C   0  0  0  0  0  0  0  0  0  0  0  0
   18.7336   21.7755   23.8420 H   0  0  0  0  0  0  0  0  0  0  0  0
   20.0246   21.5665   22.6769 H   0  0  0  0  0  0  0  0  0  0  0  0
   20.6700   21.5322   24.7671 C   0  0  0  0  0  0  0  0  0  0  0  0
   20.4015   22.4988   25.2153 H   0  0  0  0  0  0  0  0  0  0  0  0
   20.5982   20.7911   25.5750 H   0  0  0  0  0  0  0  0  0  0  0  0
   22.1252   21.6302   24.2571 C   0  0  0  0  0  0  0  0  0  0  0  0
   22.2221   22.4237   23.5048 H   0  0  0  0  0  0  0  0  0  0  0  0
   22.8070   21.8669   25.0841 H   0  0  0  0  0  0  0  0  0  0  0  0
   22.4626   20.6916   23.8028 H   0  0  0  0  0  0  0  0  0  0  0  0
  1  2  1  0  0  0  0
  1  3  2  0  0  0  0
  1  4  1  0  0  0  0
  4  5  1  0  0  0  0
  4  6  1  0  0  0  0
  4  7  1  0  0  0  0
  7  8  1  0  0  0  0
  7  9  1  0  0  0  0
  7 10  1  0  0  0  0
 10 11  1  0  0  0  0
 10 12  1  0  0  0  0
 10 13  1  0  0  0  0
 13 14  1  0  0  0  0
 13 15  1  0  0  0  0
 13 16  1  0  0  0  0
 16 17  1  0  0  0  0
 16 18  1  0  0  0  0
 16 19  1  0  0  0  0
 19 20  1  0  0  0  0
 19 21  1  0  0  0  0
 19 22  1  0  0  0  0
 22 23  1  0  0  0  0
 22 24  1  0  0  0  0
 22 25  1  0  0  0  0
M  END
> <VConfSearch Rank>
913

> <Conf_Id>
20

> <Delta U+W>
3.224

> <U+W>
-48.406

> <U>
10.617

> <W>
-59.023

> <W(PB)>
-61.467

> <W(SA)>
2.444

> <Valence>
11.188

> <Coulomb>
-1.778

> <VdW>
1.208

> <VdW6>
-9.786

> <VdW12>
10.993

> <Bond>
0.241

> <Angle>
3.294

> <Pdih>
7.653

> <Idih>
0.001

> <Tether>
0.000

$$$$
VeraChem MOL file


 25 24  0  0  0  0  0  0  0  0999 V2000     
   20.0736   16.1019   24.0000 C   0  0  0  0  0  0  0  0  0  0  0  0
   21.2532   15.8506   24.1517 O   0  5  0  0  0  0  0  0  0  0  0  0
   19.4735   15.9020   22.9621 O   0  0  0  0  0  0  0  0  0  0  0  0
   19.2863   16.6354   25.1954 C   0  0  0  0  0  0  0  0  0  0  0  0
   19.3097   15.8467   25.9563 H   0  0  0  0  0  0  0  0  0  0  0  0
   18.2363   16.7593   24.9041 H   0  0  0  0  0  0  0  0  0  0  0  0
   19.8325   17.9525   25.8150 C   0  0  0  0  0  0  0  0  0  0  0  0
   19.4425   18.0329   26.8386 H   0  0  0  0  0  0  0  0  0  0  0  0
   20.9257   17.8957   25.9120 H   0  0  0  0  0  0  0  0  0  0  0  0
   19.4332   19.2421   25.0556 C   0  0  0  0  0  0  0  0  0  0  0  0
   19.7414   20.1050   25.6618 H   0  0  0  0  0  0  0  0  0  0  0  0
   18.3393   19.2985   24.9725 H   0  0  0  0  0  0  0  0  0  0  0  0
   20.0679   19.3692   23.6522 C   0  0  0  0  0  0  0  0  0  0  0  0
   21.1525   19.2085   23.7219 H   0  0  0  0  0  0  0  0  0  0  0  0
   19.6691   18.5897   22.9908 H   0  0  0  0  0  0  0  0  0  0  0  0
   19.7888   20.7511   23.0220 C   0  0  0  0  0  0  0  0  0  0  0  0
   20.1915   21.5400   23.6720 H   0  0  0  0  0  0  0  0  0  0  0  0
   18.7039   20.9120   22.9577 H   0  0  0  0  0  0  0  0  0  0  0  0
   20.4124   20.8749   21.6159 C   0  0  0  0  0  0  0  0  0  0  0  0
   21.4979   20.7152   21.6770 H   0  0  0  0  0  0  0  0  0  0  0  0
   20.0107   20.0881   20.9623 H   0  0  0  0  0  0  0  0  0  0  0  0
   20.1317   22.2554   20.9890 C   0  0  0  0  0  0  0  0  0  0  0  0
   20.5509   23.0601   21.6072 H   0  0  0  0  0  0  0  0  0  0  0  0
   20.5820   22.3256   19.9904 H   0  0  0  0  0  0  0  0  0  0  0  0
   19.0523   22.4282   20.8871 H   0  0  0  0  0  0  0  0  0  0  0  0
  1  2  1  0  0  0  0
  1  3  2  0  0  0  0
  1  4  1  0  0  0  0
  4  5  1  0  0  0  0
  4  6  1  0  0  0  0
  4  7  1  0  0  0  0
  7  8  1  0  0  0  0
  7  9  1  0  0  0  0
  7 10  1  0  0  0  0
 10 11  1  0  0  0  0
 10 12  1  0  0  0  0
 10 13  1  0  0  0  0
 13 14  1  0  0  0  0
 13 15  1  0  0  0  0
 13 16  1  0  0  0  0
 16 17  1  0  0  0  0
 16 18  1  0  0  0  0
 16 19  1  0  0  0  0
 19 20  1  0  0  0  0
 19 21  1  0  0  0  0
 19 22  1  0  0  0  0
 22 23  1  0  0  0  0
 22 24  1  0  0  0  0
 22 25  1  0  0  0  0
M  END
> <VConfSearch Rank>
914

> <Conf_Id>
24

> <Delta U+W>
1.784

> <U+W>
-49.846

> <U>
10.904

> <W>
-60.749

> <W(PB)>
-63.220

> <W(SA)>
2.471

> <Valence>
9.445

> <Coulomb>
0.780

> <VdW>
0.679

> <VdW6>
-10.008

> <VdW12>
10.687

> <Bond>
0.201

> <Angle>
3.198

> <Pdih>
6.039

> <Idih>
0.006

> <Tether>
0.000

$$$$
VeraChem MOL file


 25 24  0  0  0  0  0  0  0  0999 V2000     
   20.7863   16.9955   25.9918 C   0  0  0  0  0  0  0  0  0  0  0  0
   20.4251   15.8945   25.6243 O   0  5  0  0  0  0  0  0  0  0  0  0
   21.9490   17.3490   26.0080 O   0  0  0  0  0  0  0  0  0  0  0  0
   19.7320   17.9640   26.5244 C   0  0  0  0  0  0  0  0  0  0  0  0
   20.2285   18.8832   26.8581 H   0  0  0  0  0  0  0  0  0  0  0  0
   19.3067   17.4948   27.4191 H   0  0  0  0  0  0  0  0  0  0  0  0
   18.5814   18.3020   25.5349 C   0  0  0  0  0  0  0  0  0  0  0  0
   18.2264   17.3843   25.0458 H   0  0  0  0  0  0  0  0  0  0  0  0
   17.7319   18.6805   26.1193 H   0  0  0  0  0  0  0  0  0  0  0  0
   18.9336   19.3695   24.4693 C   0  0  0  0  0  0  0  0  0  0  0  0
   19.2762   20.2880   24.9652 H   0  0  0  0  0  0  0  0  0  0  0  0
   18.0121   19.6339   23.9327 H   0  0  0  0  0  0  0  0  0  0  0  0
   19.9918   18.9087   23.4414 C   0  0  0  0  0  0  0  0  0  0  0  0
   20.9586   18.7659   23.9404 H   0  0  0  0  0  0  0  0  0  0  0  0
   19.6995   17.9365   23.0215 H   0  0  0  0  0  0  0  0  0  0  0  0
   20.1644   19.9347   22.3003 C   0  0  0  0  0  0  0  0  0  0  0  0
   20.4520   20.9074   22.7225 H   0  0  0  0  0  0  0  0  0  0  0  0
   19.2037   20.0797   21.7874 H   0  0  0  0  0  0  0  0  0  0  0  0
   21.2291   19.4810   21.2795 C   0  0  0  0  0  0  0  0  0  0  0  0
   22.1921   19.3366   21.7887 H   0  0  0  0  0  0  0  0  0  0  0  0
   20.9440   18.5085   20.8548 H   0  0  0  0  0  0  0  0  0  0  0  0
   21.3995   20.5075   20.1416 C   0  0  0  0  0  0  0  0  0  0  0  0
   21.7155   21.4821   20.5359 H   0  0  0  0  0  0  0  0  0  0  0  0
   22.1598   20.1689   19.4258 H   0  0  0  0  0  0  0  0  0  0  0  0
   20.4578   20.6477   19.5948 H   0  0  0  0  0  0  0  0  0  0  0  0
  1  2  1  0  0  0  0
  1  3  2  0  0  0  0
  1  4  1  0  0  0  0
  4  5  1  0  0  0  0
  4  6  1  0  0  0  0
  4  7  1  0  0  0  0
  7  8  1  0  0  0  0
  7  9  1  0  0  0  0
  7 10  1  0  0  0  0
 10 11  1  0  0  0  0
 10 12  1  0  0  0  0
 10 13  1  0  0  0  0
 13 14  1  0  0  0  0
 13 15  1  0  0  0  0
 13 16  1  0  0  0  0
 16 17  1  0  0  0  0
 16 18  1  0  0  0  0
 16 19  1  0  0  0  0
 19 20  1  0  0  0  0
 19 21  1  0  0  0  0
 19 22  1  0  0  0  0
 22 23  1  0  0  0  0
 22 24  1  0  0  0  0
 22 25  1  0  0  0  0
M  END
> <VConfSearch Rank>
915

> <Conf_Id>
9

> <Delta U+W>
1.764

> <U+W>
-49.865

> <U>
10.902

> <W>
-60.768

> <W(PB)>
-63.223

> <W(SA)>
2.456

> <Valence>
9.445

> <Coulomb>
0.778

> <VdW>
0.679

> <VdW6>
-10.007

> <VdW12>
10.687

> <Bond>
0.201

> <Angle>
3.198

> <Pdih>
6.040

> <Idih>
0.006

> <Tether>
0.000

$$$$
VeraChem MOL file


 25 24  0  0  0  0  0  0  0  0999 V2000     
   17.6860   16.2743   23.1945 C   0  0  0  0  0  0  0  0  0  0  0  0
   18.0742   15.9992   22.0763 O   0  5  0  0  0  0  0  0  0  0  0  0
   17.0429   15.5131   23.8901 O   0  0  0  0  0  0  0  0  0  0  0  0
   18.0426   17.6424   23.7644 C   0  0  0  0  0  0  0  0  0  0  0  0
   17.2226   17.9598   24.4194 H   0  0  0  0  0  0  0  0  0  0  0  0
   18.0791   18.3522   22.9323 H   0  0  0  0  0  0  0  0  0  0  0  0
   19.3794   17.6337   24.5521 C   0  0  0  0  0  0  0  0  0  0  0  0
   19.2816   16.9120   25.3749 H   0  0  0  0  0  0  0  0  0  0  0  0
   20.1924   17.2606   23.9139 H   0  0  0  0  0  0  0  0  0  0  0  0
   19.7552   19.0147   25.1470 C   0  0  0  0  0  0  0  0  0  0  0  0
   20.2511   18.8466   26.1128 H   0  0  0  0  0  0  0  0  0  0  0  0
   18.8484   19.5918   25.3739 H   0  0  0  0  0  0  0  0  0  0  0  0
   20.7174   19.8558   24.2709 C   0  0  0  0  0  0  0  0  0  0  0  0
   20.9795   20.7677   24.8244 H   0  0  0  0  0  0  0  0  0  0  0  0
   21.6533   19.2991   24.1312 H   0  0  0  0  0  0  0  0  0  0  0  0
   20.1374   20.2545   22.8933 C   0  0  0  0  0  0  0  0  0  0  0  0
   19.1312   20.6720   23.0340 H   0  0  0  0  0  0  0  0  0  0  0  0
   20.0270   19.3614   22.2645 H   0  0  0  0  0  0  0  0  0  0  0  0
   21.0022   21.2942   22.1432 C   0  0  0  0  0  0  0  0  0  0  0  0
   20.4759   21.5961   21.2273 H   0  0  0  0  0  0  0  0  0  0  0  0
   21.1059   22.2013   22.7546 H   0  0  0  0  0  0  0  0  0  0  0  0
   22.4008   20.7623   21.7621 C   0  0  0  0  0  0  0  0  0  0  0  0
   22.3226   19.8405   21.1711 H   0  0  0  0  0  0  0  0  0  0  0  0
   22.9435   21.5039   21.1619 H   0  0  0  0  0  0  0  0  0  0  0  0
   23.0043   20.5497   22.6534 H   0  0  0  0  0  0  0  0  0  0  0  0
  1  2  1  0  0  0  0
  1  3  2  0  0  0  0
  1  4  1  0  0  0  0
  4  5  1  0  0  0  0
  4  6  1  0  0  0  0
  4  7  1  0  0  0  0
  7  8  1  0  0  0  0
  7  9  1  0  0  0  0
  7 10  1  0  0  0  0
 10 11  1  0  0  0  0
 10 12  1  0  0  0  0
 10 13  1  0  0  0  0
 13 14  1  0  0  0  0
 13 15  1  0  0  0  0
 13 16  1  0  0  0  0
 16 17  1  0  0  0  0
 16 18  1  0  0  0  0
 16 19  1  0  0  0  0
 19 20  1  0  0  0  0
 19 21  1  0  0  0  0
 19 22  1  0  0  0  0
 22 23  1  0  0  0  0
 22 24  1  0  0  0  0
 22 25  1  0  0  0  0
M  END
> <VConfSearch Rank>
916

> <Conf_Id>
89

> <Delta U+W>
2.903

> <U+W>
-48.726

> <U>
10.996

> <W>
-59.723

> <W(PB)>
-62.151

> <W(SA)>
2.428

> <Valence>
10.985

> <Coulomb>
-0.995

> <VdW>
1.006

> <VdW6>
-10.062

> <VdW12>
11.069

> <Bond>
0.238

> <Angle>
3.202

> <Pdih>
7.544

> <Idih>
0.001

> <Tether>
0.000

$$$$
VeraChem MOL file


 25 24  0  0  0  0  0  0  0  0999 V2000     
   18.3394   16.4694   25.0344 C   0  0  0  0  0  0  0  0  0  0  0  0
   18.9296   15.5211   24.5551 O   0  5  0  0  0  0  0  0  0  0  0  0
   18.3533   16.7384   26.2197 O   0  0  0  0  0  0  0  0  0  0  0  0
   17.4837   17.3288   24.1056 C   0  0  0  0  0  0  0  0  0  0  0  0
   16.4467   17.1998   24.4366 H   0  0  0  0  0  0  0  0  0  0  0  0
   17.5412   16.9218   23.0889 H   0  0  0  0  0  0  0  0  0  0  0  0
   17.8273   18.8452   24.0998 C   0  0  0  0  0  0  0  0  0  0  0  0
   16.9481   19.3891   23.7291 H   0  0  0  0  0  0  0  0  0  0  0  0
   17.9882   19.1976   25.1282 H   0  0  0  0  0  0  0  0  0  0  0  0
   19.0326   19.2377   23.2091 C   0  0  0  0  0  0  0  0  0  0  0  0
   19.0631   20.3330   23.1556 H   0  0  0  0  0  0  0  0  0  0  0  0
   18.8647   18.8828   22.1833 H   0  0  0  0  0  0  0  0  0  0  0  0
   20.3944   18.7126   23.7248 C   0  0  0  0  0  0  0  0  0  0  0  0
   20.5392   19.0138   24.7713 H   0  0  0  0  0  0  0  0  0  0  0  0
   20.3862   17.6159   23.7143 H   0  0  0  0  0  0  0  0  0  0  0  0
   21.6000   19.1830   22.8758 C   0  0  0  0  0  0  0  0  0  0  0  0
   21.4388   18.9098   21.8240 H   0  0  0  0  0  0  0  0  0  0  0  0
   22.4910   18.6317   23.2060 H   0  0  0  0  0  0  0  0  0  0  0  0
   21.8833   20.6986   22.9857 C   0  0  0  0  0  0  0  0  0  0  0  0
   21.0389   21.2735   22.5842 H   0  0  0  0  0  0  0  0  0  0  0  0
   21.9892   20.9798   24.0425 H   0  0  0  0  0  0  0  0  0  0  0  0
   23.1637   21.0909   22.2210 C   0  0  0  0  0  0  0  0  0  0  0  0
   23.0748   20.8450   21.1547 H   0  0  0  0  0  0  0  0  0  0  0  0
   23.3497   22.1695   22.3058 H   0  0  0  0  0  0  0  0  0  0  0  0
   24.0390   20.5638   22.6228 H   0  0  0  0  0  0  0  0  0  0  0  0
  1  2  1  0  0  0  0
  1  3  2  0  0  0  0
  1  4  1  0  0  0  0
  4  5  1  0  0  0  0
  4  6  1  0  0  0  0
  4  7  1  0  0  0  0
  7  8  1  0  0  0  0
  7  9  1  0  0  0  0
  7 10  1  0  0  0  0
 10 11  1  0  0  0  0
 10 12  1  0  0  0  0
 10 13  1  0  0  0  0
 13 14  1  0  0  0  0
 13 15  1  0  0  0  0
 13 16  1  0  0  0  0
 16 17  1  0  0  0  0
 16 18  1  0  0  0  0
 16 19  1  0  0  0  0
 19 20  1  0  0  0  0
 19 21  1  0  0  0  0
 19 22  1  0  0  0  0
 22 23  1  0  0  0  0
 22 24  1  0  0  0  0
 22 25  1  0  0  0  0
M  END
> <VConfSearch Rank>
917

> <Conf_Id>
114

> <Delta U+W>
2.758

> <U+W>
-48.871

> <U>
11.422

> <W>
-60.293

> <W(PB)>
-62.719

> <W(SA)>
2.425

> <Valence>
10.135

> <Coulomb>
0.369

> <VdW>
0.918

> <VdW6>
-10.482

> <VdW12>
11.400

> <Bond>
0.245

> <Angle>
3.539

> <Pdih>
6.346

> <Idih>
0.006

> <Tether>
0.000

$$$$
VeraChem MOL file


 25 24  0  0  0  0  0  0  0  0999 V2000     
   18.5557   19.8390   20.0276 C   0  0  0  0  0  0  0  0  0  0  0  0
   19.4455   20.2587   19.3140 O   0  5  0  0  0  0  0  0  0  0  0  0
   17.9236   18.8283   19.7909 O   0  0  0  0  0  0  0  0  0  0  0  0
   18.1969   20.6346   21.2795 C   0  0  0  0  0  0  0  0  0  0  0  0
   17.1037   20.7068   21.3206 H   0  0  0  0  0  0  0  0  0  0  0  0
   18.5783   21.6565   21.1661 H   0  0  0  0  0  0  0  0  0  0  0  0
   18.7247   20.0077   22.5961 C   0  0  0  0  0  0  0  0  0  0  0  0
   18.3142   20.5674   23.4473 H   0  0  0  0  0  0  0  0  0  0  0  0
   18.3442   18.9810   22.6774 H   0  0  0  0  0  0  0  0  0  0  0  0
   20.2702   20.0152   22.6769 C   0  0  0  0  0  0  0  0  0  0  0  0
   20.6304   21.0377   22.4989 H   0  0  0  0  0  0  0  0  0  0  0  0
   20.6897   19.3958   21.8722 H   0  0  0  0  0  0  0  0  0  0  0  0
   20.8214   19.5322   24.0398 C   0  0  0  0  0  0  0  0  0  0  0  0
   21.9038   19.7122   24.0503 H   0  0  0  0  0  0  0  0  0  0  0  0
   20.3961   20.1441   24.8468 H   0  0  0  0  0  0  0  0  0  0  0  0
   20.5472   18.0338   24.3195 C   0  0  0  0  0  0  0  0  0  0  0  0
   20.9696   17.4227   23.5103 H   0  0  0  0  0  0  0  0  0  0  0  0
   19.4649   17.8531   24.3138 H   0  0  0  0  0  0  0  0  0  0  0  0
   21.1054   17.5502   25.6786 C   0  0  0  0  0  0  0  0  0  0  0  0
   20.6938   18.1670   26.4895 H   0  0  0  0  0  0  0  0  0  0  0  0
   20.7519   16.5256   25.8588 H   0  0  0  0  0  0  0  0  0  0  0  0
   22.6481   17.5606   25.7481 C   0  0  0  0  0  0  0  0  0  0  0  0
   22.9922   17.1197   26.6926 H   0  0  0  0  0  0  0  0  0  0  0  0
   23.0825   16.9779   24.9254 H   0  0  0  0  0  0  0  0  0  0  0  0
   23.0459   18.5816   25.6951 H   0  0  0  0  0  0  0  0  0  0  0  0
  1  2  1  0  0  0  0
  1  3  2  0  0  0  0
  1  4  1  0  0  0  0
  4  5  1  0  0  0  0
  4  6  1  0  0  0  0
  4  7  1  0  0  0  0
  7  8  1  0  0  0  0
  7  9  1  0  0  0  0
  7 10  1  0  0  0  0
 10 11  1  0  0  0  0
 10 12  1  0  0  0  0
 10 13  1  0  0  0  0
 13 14  1  0  0  0  0
 13 15  1  0  0  0  0
 13 16  1  0  0  0  0
 16 17  1  0  0  0  0
 16 18  1  0  0  0  0
 16 19  1  0  0  0  0
 19 20  1  0  0  0  0
 19 21  1  0  0  0  0
 19 22  1  0  0  0  0
 22 23  1  0  0  0  0
 22 24  1  0  0  0  0
 22 25  1  0  0  0  0
M  END
> <VConfSearch Rank>
918

> <Conf_Id>
87

> <Delta U+W>
1.453

> <U+W>
-50.176

> <U>
9.763

> <W>
-59.940

> <W(PB)>
-62.392

> <W(SA)>
2.452

> <Valence>
8.883

> <Coulomb>
-0.122

> <VdW>
1.003

> <VdW6>
-9.782

> <VdW12>
10.785

> <Bond>
0.212

> <Angle>
2.940

> <Pdih>
5.730

> <Idih>
0.001

> <Tether>
0.000

$$$$
VeraChem MOL file


 25 24  0  0  0  0  0  0  0  0999 V2000     
   19.5243   15.1784   23.4312 C   0  0  0  0  0  0  0  0  0  0  0  0
   18.3787   15.0737   23.0397 O   0  5  0  0  0  0  0  0  0  0  0  0
   20.3857   14.3470   23.2224 O   0  0  0  0  0  0  0  0  0  0  0  0
   19.9069   16.4307   24.2118 C   0  0  0  0  0  0  0  0  0  0  0  0
   20.6800   16.1557   24.9393 H   0  0  0  0  0  0  0  0  0  0  0  0
   19.0285   16.7595   24.7802 H   0  0  0  0  0  0  0  0  0  0  0  0
   20.4122   17.5763   23.3007 C   0  0  0  0  0  0  0  0  0  0  0  0
   21.2861   17.2300   22.7319 H   0  0  0  0  0  0  0  0  0  0  0  0
   19.6299   17.8199   22.5697 H   0  0  0  0  0  0  0  0  0  0  0  0
   20.7862   18.8355   24.1163 C   0  0  0  0  0  0  0  0  0  0  0  0
   21.5177   18.5576   24.8872 H   0  0  0  0  0  0  0  0  0  0  0  0
   19.9035   19.2059   24.6537 H   0  0  0  0  0  0  0  0  0  0  0  0
   21.3935   19.9706   23.2542 C   0  0  0  0  0  0  0  0  0  0  0  0
   21.6849   20.7990   23.9132 H   0  0  0  0  0  0  0  0  0  0  0  0
   22.3266   19.6101   22.8006 H   0  0  0  0  0  0  0  0  0  0  0  0
   20.4734   20.5125   22.1284 C   0  0  0  0  0  0  0  0  0  0  0  0
   20.3147   19.7263   21.3788 H   0  0  0  0  0  0  0  0  0  0  0  0
   21.0016   21.3199   21.6034 H   0  0  0  0  0  0  0  0  0  0  0  0
   19.0965   21.0418   22.5997 C   0  0  0  0  0  0  0  0  0  0  0  0
   18.5284   21.3725   21.7194 H   0  0  0  0  0  0  0  0  0  0  0  0
   18.5126   20.2279   23.0496 H   0  0  0  0  0  0  0  0  0  0  0  0
   19.2028   22.2187   23.5936 C   0  0  0  0  0  0  0  0  0  0  0  0
   19.7973   23.0383   23.1696 H   0  0  0  0  0  0  0  0  0  0  0  0
   18.2060   22.6114   23.8323 H   0  0  0  0  0  0  0  0  0  0  0  0
   19.6710   21.9042   24.5347 H   0  0  0  0  0  0  0  0  0  0  0  0
  1  2  1  0  0  0  0
  1  3  2  0  0  0  0
  1  4  1  0  0  0  0
  4  5  1  0  0  0  0
  4  6  1  0  0  0  0
  4  7  1  0  0  0  0
  7  8  1  0  0  0  0
  7  9  1  0  0  0  0
  7 10  1  0  0  0  0
 10 11  1  0  0  0  0
 10 12  1  0  0  0  0
 10 13  1  0  0  0  0
 13 14  1  0  0  0  0
 13 15  1  0  0  0  0
 13 16  1  0  0  0  0
 16 17  1  0  0  0  0
 16 18  1  0  0  0  0
 16 19  1  0  0  0  0
 19 20  1  0  0  0  0
 19 21  1  0  0  0  0
 19 22  1  0  0  0  0
 22 23  1  0  0  0  0
 22 24  1  0  0  0  0
 22 25  1  0  0  0  0
M  END
> <VConfSearch Rank>
919

> <Conf_Id>
29

> <Delta U+W>
0.850

> <U+W>
-50.780

> <U>
8.646

> <W>
-59.426

> <W(PB)>
-61.868

> <W(SA)>
2.442

> <Valence>
8.924

> <Coulomb>
-1.171

> <VdW>
0.894

> <VdW6>
-10.223

> <VdW12>
11.117

> <Bond>
0.231

> <Angle>
3.232

> <Pdih>
5.461

> <Idih>
0.001

> <Tether>
0.000

$$$$
VeraChem MOL file


 25 24  0  0  0  0  0  0  0  0999 V2000     
   17.0305   17.0471   24.8782 C   0  0  0  0  0  0  0  0  0  0  0  0
   17.4218   15.9098   24.7042 O   0  5  0  0  0  0  0  0  0  0  0  0
   15.8578   17.3653   24.8635 O   0  0  0  0  0  0  0  0  0  0  0  0
   18.0696   18.1386   25.1088 C   0  0  0  0  0  0  0  0  0  0  0  0
   18.9215   17.6922   25.6357 H   0  0  0  0  0  0  0  0  0  0  0  0
   17.6319   18.8897   25.7771 H   0  0  0  0  0  0  0  0  0  0  0  0
   18.5449   18.8039   23.7937 C   0  0  0  0  0  0  0  0  0  0  0  0
   18.9601   18.0302   23.1343 H   0  0  0  0  0  0  0  0  0  0  0  0
   17.6806   19.2389   23.2732 H   0  0  0  0  0  0  0  0  0  0  0  0
   19.6026   19.9009   24.0555 C   0  0  0  0  0  0  0  0  0  0  0  0
   20.4837   19.4597   24.5397 H   0  0  0  0  0  0  0  0  0  0  0  0
   19.1941   20.6277   24.7706 H   0  0  0  0  0  0  0  0  0  0  0  0
   20.0302   20.6629   22.7761 C   0  0  0  0  0  0  0  0  0  0  0  0
   19.1528   21.1757   22.3595 H   0  0  0  0  0  0  0  0  0  0  0  0
   20.7335   21.4583   23.0557 H   0  0  0  0  0  0  0  0  0  0  0  0
   20.6655   19.7868   21.6640 C   0  0  0  0  0  0  0  0  0  0  0  0
   20.9432   20.4365   20.8230 H   0  0  0  0  0  0  0  0  0  0  0  0
   19.9086   19.0973   21.2678 H   0  0  0  0  0  0  0  0  0  0  0  0
   21.9094   18.9721   22.0963 C   0  0  0  0  0  0  0  0  0  0  0  0
   21.6357   18.2505   22.8774 H   0  0  0  0  0  0  0  0  0  0  0  0
   22.2531   18.3765   21.2395 H   0  0  0  0  0  0  0  0  0  0  0  0
   23.0767   19.8552   22.5879 C   0  0  0  0  0  0  0  0  0  0  0  0
   22.8113   20.3899   23.5085 H   0  0  0  0  0  0  0  0  0  0  0  0
   23.9600   19.2401   22.8027 H   0  0  0  0  0  0  0  0  0  0  0  0
   23.3562   20.5958   21.8274 H   0  0  0  0  0  0  0  0  0  0  0  0
  1  2  1  0  0  0  0
  1  3  2  0  0  0  0
  1  4  1  0  0  0  0
  4  5  1  0  0  0  0
  4  6  1  0  0  0  0
  4  7  1  0  0  0  0
  7  8  1  0  0  0  0
  7  9  1  0  0  0  0
  7 10  1  0  0  0  0
 10 11  1  0  0  0  0
 10 12  1  0  0  0  0
 10 13  1  0  0  0  0
 13 14  1  0  0  0  0
 13 15  1  0  0  0  0
 13 16  1  0  0  0  0
 16 17  1  0  0  0  0
 16 18  1  0  0  0  0
 16 19  1  0  0  0  0
 19 20  1  0  0  0  0
 19 21  1  0  0  0  0
 19 22  1  0  0  0  0
 22 23  1  0  0  0  0
 22 24  1  0  0  0  0
 22 25  1  0  0  0  0
M  END
> <VConfSearch Rank>
920

> <Conf_Id>
30

> <Delta U+W>
0.843

> <U+W>
-50.787

> <U>
8.647

> <W>
-59.434

> <W(PB)>
-61.861

> <W(SA)>
2.428

> <Valence>
8.924

> <Coulomb>
-1.170

> <VdW>
0.894

> <VdW6>
-10.224

> <VdW12>
11.118

> <Bond>
0.231

> <Angle>
3.232

> <Pdih>
5.460

> <Idih>
0.000

> <Tether>
0.000

$$$$
VeraChem MOL file


 25 24  0  0  0  0  0  0  0  0999 V2000     
   20.6357   23.7834   23.8836 C   0  0  0  0  0  0  0  0  0  0  0  0
   20.1134   23.7460   24.9811 O   0  5  0  0  0  0  0  0  0  0  0  0
   21.0704   24.8049   23.3899 O   0  0  0  0  0  0  0  0  0  0  0  0
   20.7658   22.5004   23.0612 C   0  0  0  0  0  0  0  0  0  0  0  0
   21.8304   22.3602   22.8404 H   0  0  0  0  0  0  0  0  0  0  0  0
   20.2595   22.6728   22.1042 H   0  0  0  0  0  0  0  0  0  0  0  0
   20.1966   21.2226   23.7332 C   0  0  0  0  0  0  0  0  0  0  0  0
   20.7037   21.0595   24.6943 H   0  0  0  0  0  0  0  0  0  0  0  0
   19.1313   21.3723   23.9574 H   0  0  0  0  0  0  0  0  0  0  0  0
   20.3688   19.9769   22.8369 C   0  0  0  0  0  0  0  0  0  0  0  0
   21.4345   19.8292   22.6141 H   0  0  0  0  0  0  0  0  0  0  0  0
   19.8611   20.1423   21.8767 H   0  0  0  0  0  0  0  0  0  0  0  0
   19.8019   18.7070   23.5073 C   0  0  0  0  0  0  0  0  0  0  0  0
   20.3095   18.5414   24.4676 H   0  0  0  0  0  0  0  0  0  0  0  0
   18.7362   18.8544   23.7302 H   0  0  0  0  0  0  0  0  0  0  0  0
   19.9738   17.4611   22.6117 C   0  0  0  0  0  0  0  0  0  0  0  0
   21.0395   17.3135   22.3887 H   0  0  0  0  0  0  0  0  0  0  0  0
   19.4662   17.6265   21.6514 H   0  0  0  0  0  0  0  0  0  0  0  0
   19.4073   16.1917   23.2818 C   0  0  0  0  0  0  0  0  0  0  0  0
   19.9140   16.0220   24.2419 H   0  0  0  0  0  0  0  0  0  0  0  0
   18.3408   16.3349   23.5046 H   0  0  0  0  0  0  0  0  0  0  0  0
   19.5809   14.9499   22.3843 C   0  0  0  0  0  0  0  0  0  0  0  0
   20.6418   14.7644   22.1712 H   0  0  0  0  0  0  0  0  0  0  0  0
   19.1729   14.0571   22.8760 H   0  0  0  0  0  0  0  0  0  0  0  0
   19.0567   15.0797   21.4284 H   0  0  0  0  0  0  0  0  0  0  0  0
  1  2  1  0  0  0  0
  1  3  2  0  0  0  0
  1  4  1  0  0  0  0
  4  5  1  0  0  0  0
  4  6  1  0  0  0  0
  4  7  1  0  0  0  0
  7  8  1  0  0  0  0
  7  9  1  0  0  0  0
  7 10  1  0  0  0  0
 10 11  1  0  0  0  0
 10 12  1  0  0  0  0
 10 13  1  0  0  0  0
 13 14  1  0  0  0  0
 13 15  1  0  0  0  0
 13 16  1  0  0  0  0
 16 17  1  0  0  0  0
 16 18  1  0  0  0  0
 16 19  1  0  0  0  0
 19 20  1  0  0  0  0
 19 21  1  0  0  0  0
 19 22  1  0  0  0  0
 22 23  1  0  0  0  0
 22 24  1  0  0  0  0
 22 25  1  0  0  0  0
M  END
> <VConfSearch Rank>
921

> <Conf_Id>
0

> <Delta U+W>
0.000

> <U+W>
-51.629

> <U>
6.586

> <W>
-58.216

> <W(PB)>
-60.757

> <W(SA)>
2.541

> <Valence>
8.027

> <Coulomb>
-2.892

> <VdW>
1.451

> <VdW6>
-7.931

> <VdW12>
9.383

> <Bond>
0.149

> <Angle>
2.726

> <Pdih>
5.152

> <Idih>
0.000

> <Tether>
0.000

$$$$
VeraChem MOL file


 25 24  0  0  0  0  0  0  0  0999 V2000     
   24.3399   17.2886   22.3852 C   0  0  0  0  0  0  0  0  0  0  0  0
   24.6510   16.4147   23.1702 O   0  5  0  0  0  0  0  0  0  0  0  0
   24.6984   17.3099   21.2243 O   0  0  0  0  0  0  0  0  0  0  0  0
   23.4305   18.4084   22.8783 C   0  0  0  0  0  0  0  0  0  0  0  0
   23.6915   19.3238   22.3337 H   0  0  0  0  0  0  0  0  0  0  0  0
   23.6529   18.5864   23.9373 H   0  0  0  0  0  0  0  0  0  0  0  0
   21.9269   18.0869   22.6943 C   0  0  0  0  0  0  0  0  0  0  0  0
   21.7236   17.8984   21.6309 H   0  0  0  0  0  0  0  0  0  0  0  0
   21.6851   17.1609   23.2343 H   0  0  0  0  0  0  0  0  0  0  0  0
   21.0273   19.2351   23.2008 C   0  0  0  0  0  0  0  0  0  0  0  0
   21.2723   20.1595   22.6598 H   0  0  0  0  0  0  0  0  0  0  0  0
   21.2340   19.4220   24.2636 H   0  0  0  0  0  0  0  0  0  0  0  0
   19.5291   18.9117   23.0163 C   0  0  0  0  0  0  0  0  0  0  0  0
   19.3222   18.7248   21.9535 H   0  0  0  0  0  0  0  0  0  0  0  0
   19.2839   17.9874   23.5572 H   0  0  0  0  0  0  0  0  0  0  0  0
   18.6289   20.0594   23.5226 C   0  0  0  0  0  0  0  0  0  0  0  0
   18.8737   20.9839   22.9818 H   0  0  0  0  0  0  0  0  0  0  0  0
   18.8355   20.2465   24.5853 H   0  0  0  0  0  0  0  0  0  0  0  0
   17.1312   19.7363   23.3383 C   0  0  0  0  0  0  0  0  0  0  0  0
   16.9203   19.5504   22.2760 H   0  0  0  0  0  0  0  0  0  0  0  0
   16.8821   18.8130   23.8796 H   0  0  0  0  0  0  0  0  0  0  0  0
   16.2357   20.8847   23.8450 C   0  0  0  0  0  0  0  0  0  0  0  0
   15.1750   20.6382   23.7064 H   0  0  0  0  0  0  0  0  0  0  0  0
   16.4034   21.0713   24.9139 H   0  0  0  0  0  0  0  0  0  0  0  0
   16.4419   21.8142   23.2983 H   0  0  0  0  0  0  0  0  0  0  0  0
  1  2  1  0  0  0  0
  1  3  2  0  0  0  0
  1  4  1  0  0  0  0
  4  5  1  0  0  0  0
  4  6  1  0  0  0  0
  4  7  1  0  0  0  0
  7  8  1  0  0  0  0
  7  9  1  0  0  0  0
  7 10  1  0  0  0  0
 10 11  1  0  0  0  0
 10 12  1  0  0  0  0
 10 13  1  0  0  0  0
 13 14  1  0  0  0  0
 13 15  1  0  0  0  0
 13 16  1  0  0  0  0
 16 17  1  0  0  0  0
 16 18  1  0  0  0  0
 16 19  1  0  0  0  0
 19 20  1  0  0  0  0
 19 21  1  0  0  0  0
 19 22  1  0  0  0  0
 22 23  1  0  0  0  0
 22 24  1  0  0  0  0
 22 25  1  0  0  0  0
M  END
> <VConfSearch Rank>
922

> <Conf_Id>
27

> <Delta U+W>
-1.297

> <U+W>
-52.926

> <U>
5.617

> <W>
-58.543

> <W(PB)>
-61.065

> <W(SA)>
2.522

> <Valence>
7.531

> <Coulomb>
-2.818

> <VdW>
0.904

> <VdW6>
-7.640

> <VdW12>
8.544

> <Bond>
0.115

> <Angle>
2.271

> <Pdih>
5.144

> <Idih>
0.001

> <Tether>
0.000

$$$$
VeraChem MOL file


 25 24  0  0  0  0  0  0  0  0999 V2000     
   17.8800   15.8173   23.2740 C   0  0  0  0  0  0  0  0  0  0  0  0
   16.7503   16.0355   22.8825 O   0  5  0  0  0  0  0  0  0  0  0  0
   18.6815   15.1333   22.6685 O   0  0  0  0  0  0  0  0  0  0  0  0
   18.3078   16.4227   24.6079 C   0  0  0  0  0  0  0  0  0  0  0  0
   19.1826   15.8738   24.9770 H   0  0  0  0  0  0  0  0  0  0  0  0
   17.4965   16.2454   25.3237 H   0  0  0  0  0  0  0  0  0  0  0  0
   18.6170   17.9409   24.5408 C   0  0  0  0  0  0  0  0  0  0  0  0
   17.7417   18.4734   24.1435 H   0  0  0  0  0  0  0  0  0  0  0  0
   18.7800   18.3168   25.5600 H   0  0  0  0  0  0  0  0  0  0  0  0
   19.8585   18.2568   23.6767 C   0  0  0  0  0  0  0  0  0  0  0  0
   19.6960   17.8992   22.6505 H   0  0  0  0  0  0  0  0  0  0  0  0
   20.7276   17.7117   24.0697 H   0  0  0  0  0  0  0  0  0  0  0  0
   20.1666   19.7694   23.6499 C   0  0  0  0  0  0  0  0  0  0  0  0
   19.2969   20.3137   23.2567 H   0  0  0  0  0  0  0  0  0  0  0  0
   20.3324   20.1287   24.6748 H   0  0  0  0  0  0  0  0  0  0  0  0
   21.4065   20.0859   22.7859 C   0  0  0  0  0  0  0  0  0  0  0  0
   21.2408   19.7267   21.7609 H   0  0  0  0  0  0  0  0  0  0  0  0
   22.2762   19.5415   23.1787 H   0  0  0  0  0  0  0  0  0  0  0  0
   21.7145   21.5978   22.7583 C   0  0  0  0  0  0  0  0  0  0  0  0
   20.8472   22.1455   22.3642 H   0  0  0  0  0  0  0  0  0  0  0  0
   21.8827   21.9603   23.7819 H   0  0  0  0  0  0  0  0  0  0  0  0
   22.9531   21.9096   21.8945 C   0  0  0  0  0  0  0  0  0  0  0  0
   22.7999   21.5856   20.8567 H   0  0  0  0  0  0  0  0  0  0  0  0
   23.1574   22.9881   21.8861 H   0  0  0  0  0  0  0  0  0  0  0  0
   23.8431   21.3991   22.2851 H   0  0  0  0  0  0  0  0  0  0  0  0
  1  2  1  0  0  0  0
  1  3  2  0  0  0  0
  1  4  1  0  0  0  0
  4  5  1  0  0  0  0
  4  6  1  0  0  0  0
  4  7  1  0  0  0  0
  7  8  1  0  0  0  0
  7  9  1  0  0  0  0
  7 10  1  0  0  0  0
 10 11  1  0  0  0  0
 10 12  1  0  0  0  0
 10 13  1  0  0  0  0
 13 14  1  0  0  0  0
 13 15  1  0  0  0  0
 13 16  1  0  0  0  0
 16 17  1  0  0  0  0
 16 18  1  0  0  0  0
 16 19  1  0  0  0  0
 19 20  1  0  0  0  0
 19 21  1  0  0  0  0
 19 22  1  0  0  0  0
 22 23  1  0  0  0  0
 22 24  1  0  0  0  0
 22 25  1  0  0  0  0
M  END
> <VConfSearch Rank>
923

> <Conf_Id>
37

> <Delta U+W>
-0.230

> <U+W>
-51.860

> <U>
7.816

> <W>
-59.675

> <W(PB)>
-62.180

> <W(SA)>
2.505

> <Valence>
7.785

> <Coulomb>
-0.713

> <VdW>
0.744

> <VdW6>
-8.514

> <VdW12>
9.259

> <Bond>
0.136

> <Angle>
2.433

> <Pdih>
5.216

> <Idih>
0.000

> <Tether>
0.000

$$$$
VeraChem MOL file


 25 24  0  0  0  0  0  0  0  0999 V2000     
   18.0873   19.1568   19.7886 C   0  0  0  0  0  0  0  0  0  0  0  0
   18.7158   18.5722   18.9282 O   0  5  0  0  0  0  0  0  0  0  0  0
   17.8385   20.3457   19.7494 O   0  0  0  0  0  0  0  0  0  0  0  0
   17.5689   18.3480   20.9744 C   0  0  0  0  0  0  0  0  0  0  0  0
   17.1196   17.4313   20.5748 H   0  0  0  0  0  0  0  0  0  0  0  0
   16.7622   18.9127   21.4574 H   0  0  0  0  0  0  0  0  0  0  0  0
   18.6610   17.9801   22.0122 C   0  0  0  0  0  0  0  0  0  0  0  0
   18.2325   17.2892   22.7508 H   0  0  0  0  0  0  0  0  0  0  0  0
   19.4745   17.4398   21.5083 H   0  0  0  0  0  0  0  0  0  0  0  0
   19.2285   19.2183   22.7420 C   0  0  0  0  0  0  0  0  0  0  0  0
   18.4098   19.7623   23.2327 H   0  0  0  0  0  0  0  0  0  0  0  0
   19.6747   19.9067   22.0110 H   0  0  0  0  0  0  0  0  0  0  0  0
   20.2904   18.8264   23.7919 C   0  0  0  0  0  0  0  0  0  0  0  0
   19.8456   18.1402   24.5257 H   0  0  0  0  0  0  0  0  0  0  0  0
   21.1087   18.2825   23.3002 H   0  0  0  0  0  0  0  0  0  0  0  0
   20.8584   20.0631   24.5211 C   0  0  0  0  0  0  0  0  0  0  0  0
   20.0402   20.6073   25.0126 H   0  0  0  0  0  0  0  0  0  0  0  0
   21.3031   20.7494   23.7874 H   0  0  0  0  0  0  0  0  0  0  0  0
   21.9203   19.6719   25.5702 C   0  0  0  0  0  0  0  0  0  0  0  0
   21.4783   18.9867   26.3069 H   0  0  0  0  0  0  0  0  0  0  0  0
   22.7413   19.1290   25.0817 H   0  0  0  0  0  0  0  0  0  0  0  0
   22.4849   20.9097   26.2960 C   0  0  0  0  0  0  0  0  0  0  0  0
   21.6890   21.4547   26.8202 H   0  0  0  0  0  0  0  0  0  0  0  0
   23.2379   20.6133   27.0377 H   0  0  0  0  0  0  0  0  0  0  0  0
   22.9614   21.5981   25.5857 H   0  0  0  0  0  0  0  0  0  0  0  0
  1  2  1  0  0  0  0
  1  3  2  0  0  0  0
  1  4  1  0  0  0  0
  4  5  1  0  0  0  0
  4  6  1  0  0  0  0
  4  7  1  0  0  0  0
  7  8  1  0  0  0  0
  7  9  1  0  0  0  0
  7 10  1  0  0  0  0
 10 11  1  0  0  0  0
 10 12  1  0  0  0  0
 10 13  1  0  0  0  0
 13 14  1  0  0  0  0
 13 15  1  0  0  0  0
 13 16  1  0  0  0  0
 16 17  1  0  0  0  0
 16 18  1  0  0  0  0
 16 19  1  0  0  0  0
 19 20  1  0  0  0  0
 19 21  1  0  0  0  0
 19 22  1  0  0  0  0
 22 23  1  0  0  0  0
 22 24  1  0  0  0  0
 22 25  1  0  0  0  0
M  END
> <VConfSearch Rank>
924

> <Conf_Id>
54

> <Delta U+W>
-0.224

> <U+W>
-51.854

> <U>
7.816

> <W>
-59.670

> <W(PB)>
-62.157

> <W(SA)>
2.487

> <Valence>
7.785

> <Coulomb>
-0.713

> <VdW>
0.744

> <VdW6>
-8.515

> <VdW12>
9.259

> <Bond>
0.136

> <Angle>
2.433

> <Pdih>
5.215

> <Idih>
0.000

> <Tether>
0.000

$$$$
VeraChem MOL file


 25 24  0  0  0  0  0  0  0  0999 V2000     
   21.8289   18.8045   19.6431 C   0  0  0  0  0  0  0  0  0  0  0  0
   21.3387   17.8028   19.1599 O   0  5  0  0  0  0  0  0  0  0  0  0
   21.8743   19.8750   19.0695 O   0  0  0  0  0  0  0  0  0  0  0  0
   22.4381   18.7105   21.0392 C   0  0  0  0  0  0  0  0  0  0  0  0
   23.4150   19.2069   21.0035 H   0  0  0  0  0  0  0  0  0  0  0  0
   22.6267   17.6548   21.2691 H   0  0  0  0  0  0  0  0  0  0  0  0
   21.5708   19.3543   22.1523 C   0  0  0  0  0  0  0  0  0  0  0  0
   22.1573   19.3761   23.0793 H   0  0  0  0  0  0  0  0  0  0  0  0
   21.3561   20.3989   21.8875 H   0  0  0  0  0  0  0  0  0  0  0  0
   20.2459   18.5898   22.3894 C   0  0  0  0  0  0  0  0  0  0  0  0
   20.4625   17.5582   22.6985 H   0  0  0  0  0  0  0  0  0  0  0  0
   19.6976   18.5188   21.4400 H   0  0  0  0  0  0  0  0  0  0  0  0
   19.3214   19.2610   23.4333 C   0  0  0  0  0  0  0  0  0  0  0  0
   19.1205   20.2984   23.1335 H   0  0  0  0  0  0  0  0  0  0  0  0
   18.3561   18.7394   23.4146 H   0  0  0  0  0  0  0  0  0  0  0  0
   19.8914   19.2332   24.8732 C   0  0  0  0  0  0  0  0  0  0  0  0
   20.8533   19.7606   24.8961 H   0  0  0  0  0  0  0  0  0  0  0  0
   20.0968   18.1959   25.1706 H   0  0  0  0  0  0  0  0  0  0  0  0
   18.9596   19.8950   25.9155 C   0  0  0  0  0  0  0  0  0  0  0  0
   19.4930   19.9569   26.8740 H   0  0  0  0  0  0  0  0  0  0  0  0
   18.7416   20.9291   25.6149 H   0  0  0  0  0  0  0  0  0  0  0  0
   17.6379   19.1267   26.1339 C   0  0  0  0  0  0  0  0  0  0  0  0
   17.0106   19.1422   25.2341 H   0  0  0  0  0  0  0  0  0  0  0  0
   17.8315   18.0798   26.4016 H   0  0  0  0  0  0  0  0  0  0  0  0
   17.0599   19.5821   26.9484 H   0  0  0  0  0  0  0  0  0  0  0  0
  1  2  1  0  0  0  0
  1  3  2  0  0  0  0
  1  4  1  0  0  0  0
  4  5  1  0  0  0  0
  4  6  1  0  0  0  0
  4  7  1  0  0  0  0
  7  8  1  0  0  0  0
  7  9  1  0  0  0  0
  7 10  1  0  0  0  0
 10 11  1  0  0  0  0
 10 12  1  0  0  0  0
 10 13  1  0  0  0  0
 13 14  1  0  0  0  0
 13 15  1  0  0  0  0
 13 16  1  0  0  0  0
 16 17  1  0  0  0  0
 16 18  1  0  0  0  0
 16 19  1  0  0  0  0
 19 20  1  0  0  0  0
 19 21  1  0  0  0  0
 19 22  1  0  0  0  0
 22 23  1  0  0  0  0
 22 24  1  0  0  0  0
 22 25  1  0  0  0  0
M  END
> <VConfSearch Rank>
925

> <Conf_Id>
101

> <Delta U+W>
1.534

> <U+W>
-50.095

> <U>
9.416

> <W>
-59.512

> <W(PB)>
-61.988

> <W(SA)>
2.476

> <Valence>
8.939

> <Coulomb>
-0.615

> <VdW>
1.092

> <VdW6>
-9.710

> <VdW12>
10.802

> <Bond>
0.216

> <Angle>
2.979

> <Pdih>
5.743

> <Idih>
0.000

> <Tether>
0.000

$$$$
VeraChem MOL file


 25 24  0  0  0  0  0  0  0  0999 V2000     
   19.4781   16.4831   26.4046 C   0  0  0  0  0  0  0  0  0  0  0  0
   18.3024   16.5368   26.7075 O   0  5  0  0  0  0  0  0  0  0  0  0
   20.1994   15.5421   26.6710 O   0  0  0  0  0  0  0  0  0  0  0  0
   20.0757   17.6507   25.6276 C   0  0  0  0  0  0  0  0  0  0  0  0
   21.1314   17.7417   25.9094 H   0  0  0  0  0  0  0  0  0  0  0  0
   19.5700   18.5642   25.9595 H   0  0  0  0  0  0  0  0  0  0  0  0
   19.9446   17.4780   24.0918 C   0  0  0  0  0  0  0  0  0  0  0  0
   20.3752   16.5072   23.8099 H   0  0  0  0  0  0  0  0  0  0  0  0
   18.8819   17.4374   23.8156 H   0  0  0  0  0  0  0  0  0  0  0  0
   20.6542   18.5875   23.2792 C   0  0  0  0  0  0  0  0  0  0  0  0
   20.6272   18.3010   22.2201 H   0  0  0  0  0  0  0  0  0  0  0  0
   21.7141   18.6328   23.5640 H   0  0  0  0  0  0  0  0  0  0  0  0
   20.0066   19.9840   23.4481 C   0  0  0  0  0  0  0  0  0  0  0  0
   18.9476   19.9389   23.1627 H   0  0  0  0  0  0  0  0  0  0  0  0
   20.0245   20.2692   24.5073 H   0  0  0  0  0  0  0  0  0  0  0  0
   20.7239   21.0995   22.6459 C   0  0  0  0  0  0  0  0  0  0  0  0
   21.7578   21.1877   23.0065 H   0  0  0  0  0  0  0  0  0  0  0  0
   20.2415   22.0599   22.8733 H   0  0  0  0  0  0  0  0  0  0  0  0
   20.7468   20.9064   21.1092 C   0  0  0  0  0  0  0  0  0  0  0  0
   21.2822   21.7537   20.6591 H   0  0  0  0  0  0  0  0  0  0  0  0
   21.3250   20.0107   20.8473 H   0  0  0  0  0  0  0  0  0  0  0  0
   19.3387   20.8198   20.4815 C   0  0  0  0  0  0  0  0  0  0  0  0
   18.7339   21.6953   20.7508 H   0  0  0  0  0  0  0  0  0  0  0  0
   19.4078   20.7793   19.3868 H   0  0  0  0  0  0  0  0  0  0  0  0
   18.8089   19.9185   20.8147 H   0  0  0  0  0  0  0  0  0  0  0  0
  1  2  1  0  0  0  0
  1  3  2  0  0  0  0
  1  4  1  0  0  0  0
  4  5  1  0  0  0  0
  4  6  1  0  0  0  0
  4  7  1  0  0  0  0
  7  8  1  0  0  0  0
  7  9  1  0  0  0  0
  7 10  1  0  0  0  0
 10 11  1  0  0  0  0
 10 12  1  0  0  0  0
 10 13  1  0  0  0  0
 13 14  1  0  0  0  0
 13 15  1  0  0  0  0
 13 16  1  0  0  0  0
 16 17  1  0  0  0  0
 16 18  1  0  0  0  0
 16 19  1  0  0  0  0
 19 20  1  0  0  0  0
 19 21  1  0  0  0  0
 19 22  1  0  0  0  0
 22 23  1  0  0  0  0
 22 24  1  0  0  0  0
 22 25  1  0  0  0  0
M  END
> <VConfSearch Rank>
926

> <Conf_Id>
75

> <Delta U+W>
1.014

> <U+W>
-50.615

> <U>
8.474

> <W>
-59.089

> <W(PB)>
-61.530

> <W(SA)>
2.441

> <Valence>
9.080

> <Coulomb>
-1.772

> <VdW>
1.165

> <VdW6>
-9.830

> <VdW12>
10.996

> <Bond>
0.240

> <Angle>
3.225

> <Pdih>
5.615

> <Idih>
0.001

> <Tether>
0.000

$$$$
VeraChem MOL file


 25 24  0  0  0  0  0  0  0  0999 V2000     
   20.5917   19.8571   27.4326 C   0  0  0  0  0  0  0  0  0  0  0  0
   20.7833   18.7860   27.9735 O   0  5  0  0  0  0  0  0  0  0  0  0
   20.9831   20.9170   27.8801 O   0  0  0  0  0  0  0  0  0  0  0  0
   19.8370   19.8699   26.1081 C   0  0  0  0  0  0  0  0  0  0  0  0
   19.2704   20.8068   26.0478 H   0  0  0  0  0  0  0  0  0  0  0  0
   19.1082   19.0506   26.1234 H   0  0  0  0  0  0  0  0  0  0  0  0
   20.7720   19.7305   24.8815 C   0  0  0  0  0  0  0  0  0  0  0  0
   21.5036   20.5505   24.8877 H   0  0  0  0  0  0  0  0  0  0  0  0
   21.3413   18.7942   24.9639 H   0  0  0  0  0  0  0  0  0  0  0  0
   19.9843   19.7445   23.5536 C   0  0  0  0  0  0  0  0  0  0  0  0
   19.4166   20.6818   23.4758 H   0  0  0  0  0  0  0  0  0  0  0  0
   19.2490   18.9312   23.5597 H   0  0  0  0  0  0  0  0  0  0  0  0
   20.9231   19.6112   22.3315 C   0  0  0  0  0  0  0  0  0  0  0  0
   21.6221   20.4586   22.3432 H   0  0  0  0  0  0  0  0  0  0  0  0
   21.5387   18.7055   22.4189 H   0  0  0  0  0  0  0  0  0  0  0  0
   20.1712   19.6135   20.9761 C   0  0  0  0  0  0  0  0  0  0  0  0
   20.7916   20.1466   20.2426 H   0  0  0  0  0  0  0  0  0  0  0  0
   19.2413   20.1927   21.0570 H   0  0  0  0  0  0  0  0  0  0  0  0
   19.8736   18.2073   20.3992 C   0  0  0  0  0  0  0  0  0  0  0  0
   19.4162   18.3271   19.4075 H   0  0  0  0  0  0  0  0  0  0  0  0
   20.8173   17.6678   20.2389 H   0  0  0  0  0  0  0  0  0  0  0  0
   18.9365   17.3498   21.2750 C   0  0  0  0  0  0  0  0  0  0  0  0
   18.0101   17.8906   21.5079 H   0  0  0  0  0  0  0  0  0  0  0  0
   18.6657   16.4226   20.7537 H   0  0  0  0  0  0  0  0  0  0  0  0
   19.4233   17.0687   22.2172 H   0  0  0  0  0  0  0  0  0  0  0  0
  1  2  1  0  0  0  0
  1  3  2  0  0  0  0
  1  4  1  0  0  0  0
  4  5  1  0  0  0  0
  4  6  1  0  0  0  0
  4  7  1  0  0  0  0
  7  8  1  0  0  0  0
  7  9  1  0  0  0  0
  7 10  1  0  0  0  0
 10 11  1  0  0  0  0
 10 12  1  0  0  0  0
 10 13  1  0  0  0  0
 13 14  1  0  0  0  0
 13 15  1  0  0  0  0
 13 16  1  0  0  0  0
 16 17  1  0  0  0  0
 16 18  1  0  0  0  0
 16 19  1  0  0  0  0
 19 20  1  0  0  0  0
 19 21  1  0  0  0  0
 19 22  1  0  0  0  0
 22 23  1  0  0  0  0
 22 24  1  0  0  0  0
 22 25  1  0  0  0  0
M  END
> <VConfSearch Rank>
927

> <Conf_Id>
125

> <Delta U+W>
2.314

> <U+W>
-49.315

> <U>
9.740

> <W>
-59.054

> <W(PB)>
-61.488

> <W(SA)>
2.433

> <Valence>
10.506

> <Coulomb>
-1.761

> <VdW>
0.994

> <VdW6>
-9.209

> <VdW12>
10.203

> <Bond>
0.193

> <Angle>
2.979

> <Pdih>
7.334

> <Idih>
0.001

> <Tether>
0.000

$$$$
VeraChem MOL file


 25 24  0  0  0  0  0  0  0  0999 V2000     
   20.8507   15.4763   21.6473 C   0  0  0  0  0  0  0  0  0  0  0  0
   19.7589   15.0175   21.3752 O   0  5  0  0  0  0  0  0  0  0  0  0
   21.8866   14.8474   21.5576 O   0  0  0  0  0  0  0  0  0  0  0  0
   20.9225   16.9130   22.1523 C   0  0  0  0  0  0  0  0  0  0  0  0
   20.1265   17.4800   21.6569 H   0  0  0  0  0  0  0  0  0  0  0  0
   21.8784   17.3405   21.8268 H   0  0  0  0  0  0  0  0  0  0  0  0
   20.7883   17.0139   23.6941 C   0  0  0  0  0  0  0  0  0  0  0  0
   19.8080   16.6258   24.0032 H   0  0  0  0  0  0  0  0  0  0  0  0
   21.5405   16.3601   24.1569 H   0  0  0  0  0  0  0  0  0  0  0  0
   20.9776   18.4498   24.2386 C   0  0  0  0  0  0  0  0  0  0  0  0
   21.9624   18.8314   23.9360 H   0  0  0  0  0  0  0  0  0  0  0  0
   20.9845   18.4075   25.3363 H   0  0  0  0  0  0  0  0  0  0  0  0
   19.8751   19.4321   23.7793 C   0  0  0  0  0  0  0  0  0  0  0  0
   19.9049   19.5335   22.6878 H   0  0  0  0  0  0  0  0  0  0  0  0
   18.8888   19.0244   24.0391 H   0  0  0  0  0  0  0  0  0  0  0  0
   20.0457   20.8243   24.4304 C   0  0  0  0  0  0  0  0  0  0  0  0
   21.0119   21.2553   24.1343 H   0  0  0  0  0  0  0  0  0  0  0  0
   20.0789   20.7072   25.5222 H   0  0  0  0  0  0  0  0  0  0  0  0
   18.9090   21.8119   24.0778 C   0  0  0  0  0  0  0  0  0  0  0  0
   17.9414   21.3863   24.3776 H   0  0  0  0  0  0  0  0  0  0  0  0
   19.0418   22.7278   24.6700 H   0  0  0  0  0  0  0  0  0  0  0  0
   18.8689   22.1898   22.5810 C   0  0  0  0  0  0  0  0  0  0  0  0
   18.6212   21.3233   21.9553 H   0  0  0  0  0  0  0  0  0  0  0  0
   18.1068   22.9587   22.3997 H   0  0  0  0  0  0  0  0  0  0  0  0
   19.8367   22.5886   22.2503 H   0  0  0  0  0  0  0  0  0  0  0  0
  1  2  1  0  0  0  0
  1  3  2  0  0  0  0
  1  4  1  0  0  0  0
  4  5  1  0  0  0  0
  4  6  1  0  0  0  0
  4  7  1  0  0  0  0
  7  8  1  0  0  0  0
  7  9  1  0  0  0  0
  7 10  1  0  0  0  0
 10 11  1  0  0  0  0
 10 12  1  0  0  0  0
 10 13  1  0  0  0  0
 13 14  1  0  0  0  0
 13 15  1  0  0  0  0
 13 16  1  0  0  0  0
 16 17  1  0  0  0  0
 16 18  1  0  0  0  0
 16 19  1  0  0  0  0
 19 20  1  0  0  0  0
 19 21  1  0  0  0  0
 19 22  1  0  0  0  0
 22 23  1  0  0  0  0
 22 24  1  0  0  0  0
 22 25  1  0  0  0  0
M  END
> <VConfSearch Rank>
928

> <Conf_Id>
4

> <Delta U+W>
0.189

> <U+W>
-51.441

> <U>
7.701

> <W>
-59.141

> <W(PB)>
-61.609

> <W(SA)>
2.467

> <Valence>
8.550

> <Coulomb>
-1.988

> <VdW>
1.139

> <VdW6>
-8.988

> <VdW12>
10.127

> <Bond>
0.191

> <Angle>
2.738

> <Pdih>
5.621

> <Idih>
0.001

> <Tether>
0.000

$$$$
VeraChem MOL file


 25 24  0  0  0  0  0  0  0  0999 V2000     
   20.3322   16.0600   25.8844 C   0  0  0  0  0  0  0  0  0  0  0  0
   19.9698   16.4914   26.9610 O   0  5  0  0  0  0  0  0  0  0  0  0
   20.5686   14.8866   25.6744 O   0  0  0  0  0  0  0  0  0  0  0  0
   20.4758   17.0413   24.7266 C   0  0  0  0  0  0  0  0  0  0  0  0
   21.2780   16.6801   24.0721 H   0  0  0  0  0  0  0  0  0  0  0  0
   20.8021   18.0012   25.1425 H   0  0  0  0  0  0  0  0  0  0  0  0
   19.1627   17.2126   23.9195 C   0  0  0  0  0  0  0  0  0  0  0  0
   18.8143   16.2211   23.5986 H   0  0  0  0  0  0  0  0  0  0  0  0
   18.3798   17.6192   24.5746 H   0  0  0  0  0  0  0  0  0  0  0  0
   19.3177   18.1116   22.6697 C   0  0  0  0  0  0  0  0  0  0  0  0
   18.3788   18.0805   22.1002 H   0  0  0  0  0  0  0  0  0  0  0  0
   20.0941   17.6971   22.0122 H   0  0  0  0  0  0  0  0  0  0  0  0
   19.6530   19.5828   23.0080 C   0  0  0  0  0  0  0  0  0  0  0  0
   18.9024   19.9794   23.7050 H   0  0  0  0  0  0  0  0  0  0  0  0
   20.6231   19.6307   23.5173 H   0  0  0  0  0  0  0  0  0  0  0  0
   19.6943   20.4639   21.7379 C   0  0  0  0  0  0  0  0  0  0  0  0
   18.7421   20.3610   21.1998 H   0  0  0  0  0  0  0  0  0  0  0  0
   20.4765   20.0977   21.0590 H   0  0  0  0  0  0  0  0  0  0  0  0
   19.9289   21.9631   22.0365 C   0  0  0  0  0  0  0  0  0  0  0  0
   19.8255   22.5291   21.1004 H   0  0  0  0  0  0  0  0  0  0  0  0
   19.1451   22.3341   22.7113 H   0  0  0  0  0  0  0  0  0  0  0  0
   21.3183   22.2562   22.6433 C   0  0  0  0  0  0  0  0  0  0  0  0
   22.1181   21.8658   22.0006 H   0  0  0  0  0  0  0  0  0  0  0  0
   21.4694   23.3381   22.7513 H   0  0  0  0  0  0  0  0  0  0  0  0
   21.4245   21.8057   23.6380 H   0  0  0  0  0  0  0  0  0  0  0  0
  1  2  1  0  0  0  0
  1  3  2  0  0  0  0
  1  4  1  0  0  0  0
  4  5  1  0  0  0  0
  4  6  1  0  0  0  0
  4  7  1  0  0  0  0
  7  8  1  0  0  0  0
  7  9  1  0  0  0  0
  7 10  1  0  0  0  0
 10 11  1  0  0  0  0
 10 12  1  0  0  0  0
 10 13  1  0  0  0  0
 13 14  1  0  0  0  0
 13 15  1  0  0  0  0
 13 16  1  0  0  0  0
 16 17  1  0  0  0  0
 16 18  1  0  0  0  0
 16 19  1  0  0  0  0
 19 20  1  0  0  0  0
 19 21  1  0  0  0  0
 19 22  1  0  0  0  0
 22 23  1  0  0  0  0
 22 24  1  0  0  0  0
 22 25  1  0  0  0  0
M  END
> <VConfSearch Rank>
929

> <Conf_Id>
17

> <Delta U+W>
0.219

> <U+W>
-51.411

> <U>
7.701

> <W>
-59.111

> <W(PB)>
-61.599

> <W(SA)>
2.488

> <Valence>
8.550

> <Coulomb>
-1.988

> <VdW>
1.139

> <VdW6>
-8.988

> <VdW12>
10.127

> <Bond>
0.191

> <Angle>
2.738

> <Pdih>
5.621

> <Idih>
0.001

> <Tether>
0.000

$$$$
VeraChem MOL file


 25 24  0  0  0  0  0  0  0  0999 V2000     
   16.4890   20.7045   22.9210 C   0  0  0  0  0  0  0  0  0  0  0  0
   15.7176   20.1790   23.6993 O   0  5  0  0  0  0  0  0  0  0  0  0
   16.4139   20.5833   21.7140 O   0  0  0  0  0  0  0  0  0  0  0  0
   17.6025   21.5810   23.4873 C   0  0  0  0  0  0  0  0  0  0  0  0
   17.3300   21.8775   24.5074 H   0  0  0  0  0  0  0  0  0  0  0  0
   17.6350   22.4986   22.8882 H   0  0  0  0  0  0  0  0  0  0  0  0
   18.9992   20.9072   23.4792 C   0  0  0  0  0  0  0  0  0  0  0  0
   19.2409   20.6026   22.4523 H   0  0  0  0  0  0  0  0  0  0  0  0
   19.7541   21.6470   23.7775 H   0  0  0  0  0  0  0  0  0  0  0  0
   19.0741   19.6888   24.4304 C   0  0  0  0  0  0  0  0  0  0  0  0
   18.3714   18.9122   24.0981 H   0  0  0  0  0  0  0  0  0  0  0  0
   18.7433   19.9968   25.4317 H   0  0  0  0  0  0  0  0  0  0  0  0
   20.4934   19.0839   24.5462 C   0  0  0  0  0  0  0  0  0  0  0  0
   21.1962   19.8565   24.8869 H   0  0  0  0  0  0  0  0  0  0  0  0
   20.4792   18.3110   25.3268 H   0  0  0  0  0  0  0  0  0  0  0  0
   21.0054   18.4575   23.2285 C   0  0  0  0  0  0  0  0  0  0  0  0
   21.0980   19.2322   22.4564 H   0  0  0  0  0  0  0  0  0  0  0  0
   20.2736   17.7247   22.8619 H   0  0  0  0  0  0  0  0  0  0  0  0
   22.3733   17.7686   23.4182 C   0  0  0  0  0  0  0  0  0  0  0  0
   23.1073   18.4986   23.7867 H   0  0  0  0  0  0  0  0  0  0  0  0
   22.2908   16.9845   24.1836 H   0  0  0  0  0  0  0  0  0  0  0  0
   22.8842   17.1476   22.1025 C   0  0  0  0  0  0  0  0  0  0  0  0
   23.0070   17.9155   21.3274 H   0  0  0  0  0  0  0  0  0  0  0  0
   23.8568   16.6622   22.2558 H   0  0  0  0  0  0  0  0  0  0  0  0
   22.1830   16.3908   21.7272 H   0  0  0  0  0  0  0  0  0  0  0  0
  1  2  1  0  0  0  0
  1  3  2  0  0  0  0
  1  4  1  0  0  0  0
  4  5  1  0  0  0  0
  4  6  1  0  0  0  0
  4  7  1  0  0  0  0
  7  8  1  0  0  0  0
  7  9  1  0  0  0  0
  7 10  1  0  0  0  0
 10 11  1  0  0  0  0
 10 12  1  0  0  0  0
 10 13  1  0  0  0  0
 13 14  1  0  0  0  0
 13 15  1  0  0  0  0
 13 16  1  0  0  0  0
 16 17  1  0  0  0  0
 16 18  1  0  0  0  0
 16 19  1  0  0  0  0
 19 20  1  0  0  0  0
 19 21  1  0  0  0  0
 19 22  1  0  0  0  0
 22 23  1  0  0  0  0
 22 24  1  0  0  0  0
 22 25  1  0  0  0  0
M  END
> <VConfSearch Rank>
930

> <Conf_Id>
142

> <Delta U+W>
0.593

> <U+W>
-51.037

> <U>
8.903

> <W>
-59.940

> <W(PB)>
-62.418

> <W(SA)>
2.478

> <Valence>
8.305

> <Coulomb>
-0.223

> <VdW>
0.821

> <VdW6>
-9.236

> <VdW12>
10.057

> <Bond>
0.173

> <Angle>
2.663

> <Pdih>
5.469

> <Idih>
0.001

> <Tether>
0.000

$$$$
VeraChem MOL file


 25 24  0  0  0  0  0  0  0  0999 V2000     
   23.2546   18.4307   25.0876 C   0  0  0  0  0  0  0  0  0  0  0  0
   24.0732   18.9816   25.7975 O   0  5  0  0  0  0  0  0  0  0  0  0
   22.8395   17.3062   25.2881 O   0  0  0  0  0  0  0  0  0  0  0  0
   22.7428   19.1841   23.8631 C   0  0  0  0  0  0  0  0  0  0  0  0
   22.2465   18.4716   23.1942 H   0  0  0  0  0  0  0  0  0  0  0  0
   23.6186   19.5600   23.3217 H   0  0  0  0  0  0  0  0  0  0  0  0
   21.7970   20.3697   24.1978 C   0  0  0  0  0  0  0  0  0  0  0  0
   22.3472   21.0964   24.8112 H   0  0  0  0  0  0  0  0  0  0  0  0
   21.5352   20.8962   23.2709 H   0  0  0  0  0  0  0  0  0  0  0  0
   20.5035   19.9644   24.9510 C   0  0  0  0  0  0  0  0  0  0  0  0
   19.9104   20.8685   25.1448 H   0  0  0  0  0  0  0  0  0  0  0  0
   20.7747   19.5647   25.9377 H   0  0  0  0  0  0  0  0  0  0  0  0
   19.6122   18.9260   24.2245 C   0  0  0  0  0  0  0  0  0  0  0  0
   20.1534   17.9758   24.1224 H   0  0  0  0  0  0  0  0  0  0  0  0
   18.7429   18.7122   24.8611 H   0  0  0  0  0  0  0  0  0  0  0  0
   19.1161   19.3990   22.8386 C   0  0  0  0  0  0  0  0  0  0  0  0
   19.9714   19.5475   22.1667 H   0  0  0  0  0  0  0  0  0  0  0  0
   18.6142   20.3708   22.9403 H   0  0  0  0  0  0  0  0  0  0  0  0
   18.1461   18.3813   22.2023 C   0  0  0  0  0  0  0  0  0  0  0  0
   18.6455   17.4075   22.1020 H   0  0  0  0  0  0  0  0  0  0  0  0
   17.2812   18.2301   22.8629 H   0  0  0  0  0  0  0  0  0  0  0  0
   17.6570   18.8515   20.8176 C   0  0  0  0  0  0  0  0  0  0  0  0
   18.5000   18.9798   20.1261 H   0  0  0  0  0  0  0  0  0  0  0  0
   16.9688   18.1166   20.3802 H   0  0  0  0  0  0  0  0  0  0  0  0
   17.1266   19.8097   20.8931 H   0  0  0  0  0  0  0  0  0  0  0  0
  1  2  1  0  0  0  0
  1  3  2  0  0  0  0
  1  4  1  0  0  0  0
  4  5  1  0  0  0  0
  4  6  1  0  0  0  0
  4  7  1  0  0  0  0
  7  8  1  0  0  0  0
  7  9  1  0  0  0  0
  7 10  1  0  0  0  0
 10 11  1  0  0  0  0
 10 12  1  0  0  0  0
 10 13  1  0  0  0  0
 13 14  1  0  0  0  0
 13 15  1  0  0  0  0
 13 16  1  0  0  0  0
 16 17  1  0  0  0  0
 16 18  1  0  0  0  0
 16 19  1  0  0  0  0
 19 20  1  0  0  0  0
 19 21  1  0  0  0  0
 19 22  1  0  0  0  0
 22 23  1  0  0  0  0
 22 24  1  0  0  0  0
 22 25  1  0  0  0  0
M  END
> <VConfSearch Rank>
931

> <Conf_Id>
135

> <Delta U+W>
1.314

> <U+W>
-50.316

> <U>
9.773

> <W>
-60.088

> <W(PB)>
-62.535

> <W(SA)>
2.447

> <Valence>
8.741

> <Coulomb>
0.479

> <VdW>
0.552

> <VdW6>
-10.627

> <VdW12>
11.179

> <Bond>
0.227

> <Angle>
3.155

> <Pdih>
5.358

> <Idih>
0.001

> <Tether>
0.000

$$$$
VeraChem MOL file


 25 24  0  0  0  0  0  0  0  0999 V2000     
   20.6639   16.4186   26.3724 C   0  0  0  0  0  0  0  0  0  0  0  0
   20.6262   15.2614   26.0034 O   0  5  0  0  0  0  0  0  0  0  0  0
   21.1729   16.7760   27.4163 O   0  0  0  0  0  0  0  0  0  0  0  0
   20.0591   17.4839   25.4648 C   0  0  0  0  0  0  0  0  0  0  0  0
   19.6700   18.2893   26.0989 H   0  0  0  0  0  0  0  0  0  0  0  0
   19.2040   17.0339   24.9486 H   0  0  0  0  0  0  0  0  0  0  0  0
   21.0804   18.0519   24.4448 C   0  0  0  0  0  0  0  0  0  0  0  0
   21.9644   18.4044   24.9941 H   0  0  0  0  0  0  0  0  0  0  0  0
   21.4278   17.2461   23.7835 H   0  0  0  0  0  0  0  0  0  0  0  0
   20.5270   19.2230   23.5979 C   0  0  0  0  0  0  0  0  0  0  0  0
   21.3620   19.6502   23.0284 H   0  0  0  0  0  0  0  0  0  0  0  0
   20.1572   20.0166   24.2613 H   0  0  0  0  0  0  0  0  0  0  0  0
   19.4112   18.7986   22.6133 C   0  0  0  0  0  0  0  0  0  0  0  0
   19.8070   18.0478   21.9159 H   0  0  0  0  0  0  0  0  0  0  0  0
   18.6003   18.3086   23.1663 H   0  0  0  0  0  0  0  0  0  0  0  0
   18.7934   19.9712   21.8102 C   0  0  0  0  0  0  0  0  0  0  0  0
   18.3115   20.6828   22.4945 H   0  0  0  0  0  0  0  0  0  0  0  0
   17.9844   19.5578   21.1925 H   0  0  0  0  0  0  0  0  0  0  0  0
   19.7827   20.7113   20.8755 C   0  0  0  0  0  0  0  0  0  0  0  0
   20.5989   20.0398   20.5754 H   0  0  0  0  0  0  0  0  0  0  0  0
   19.2559   20.9833   19.9504 H   0  0  0  0  0  0  0  0  0  0  0  0
   20.3539   22.0051   21.4977 C   0  0  0  0  0  0  0  0  0  0  0  0
   20.9028   21.8044   22.4248 H   0  0  0  0  0  0  0  0  0  0  0  0
   21.0438   22.4953   20.7987 H   0  0  0  0  0  0  0  0  0  0  0  0
   19.5491   22.7151   21.7283 H   0  0  0  0  0  0  0  0  0  0  0  0
  1  2  1  0  0  0  0
  1  3  2  0  0  0  0
  1  4  1  0  0  0  0
  4  5  1  0  0  0  0
  4  6  1  0  0  0  0
  4  7  1  0  0  0  0
  7  8  1  0  0  0  0
  7  9  1  0  0  0  0
  7 10  1  0  0  0  0
 10 11  1  0  0  0  0
 10 12  1  0  0  0  0
 10 13  1  0  0  0  0
 13 14  1  0  0  0  0
 13 15  1  0  0  0  0
 13 16  1  0  0  0  0
 16 17  1  0  0  0  0
 16 18  1  0  0  0  0
 16 19  1  0  0  0  0
 19 20  1  0  0  0  0
 19 21  1  0  0  0  0
 19 22  1  0  0  0  0
 22 23  1  0  0  0  0
 22 24  1  0  0  0  0
 22 25  1  0  0  0  0
M  END
> <VConfSearch Rank>
932

> <Conf_Id>
19

> <Delta U+W>
3.222

> <U+W>
-48.407

> <U>
10.617

> <W>
-59.025

> <W(PB)>
-61.462

> <W(SA)>
2.437

> <Valence>
11.188

> <Coulomb>
-1.778

> <VdW>
1.208

> <VdW6>
-9.786

> <VdW12>
10.993

> <Bond>
0.241

> <Angle>
3.294

> <Pdih>
7.653

> <Idih>
0.001

> <Tether>
0.000

$$$$
VeraChem MOL file


 25 24  0  0  0  0  0  0  0  0999 V2000     
   23.6643   20.9885   24.6003 C   0  0  0  0  0  0  0  0  0  0  0  0
   23.6746   22.1981   24.4837 O   0  5  0  0  0  0  0  0  0  0  0  0
   24.6686   20.3158   24.7250 O   0  0  0  0  0  0  0  0  0  0  0  0
   22.3185   20.2731   24.5646 C   0  0  0  0  0  0  0  0  0  0  0  0
   21.5769   20.9379   25.0209 H   0  0  0  0  0  0  0  0  0  0  0  0
   22.3909   19.3816   25.1990 H   0  0  0  0  0  0  0  0  0  0  0  0
   21.8899   19.8743   23.1283 C   0  0  0  0  0  0  0  0  0  0  0  0
   21.7736   20.7780   22.5142 H   0  0  0  0  0  0  0  0  0  0  0  0
   22.7008   19.2911   22.6703 H   0  0  0  0  0  0  0  0  0  0  0  0
   20.5903   19.0356   23.0779 C   0  0  0  0  0  0  0  0  0  0  0  0
   20.6998   18.1457   23.7124 H   0  0  0  0  0  0  0  0  0  0  0  0
   20.4614   18.6767   22.0490 H   0  0  0  0  0  0  0  0  0  0  0  0
   19.3286   19.8276   23.4964 C   0  0  0  0  0  0  0  0  0  0  0  0
   19.4748   20.2482   24.4990 H   0  0  0  0  0  0  0  0  0  0  0  0
   19.1938   20.6824   22.8198 H   0  0  0  0  0  0  0  0  0  0  0  0
   18.0292   18.9836   23.5238 C   0  0  0  0  0  0  0  0  0  0  0  0
   17.2207   19.6342   23.8844 H   0  0  0  0  0  0  0  0  0  0  0  0
   18.1185   18.1799   24.2674 H   0  0  0  0  0  0  0  0  0  0  0  0
   17.6033   18.4014   22.1527 C   0  0  0  0  0  0  0  0  0  0  0  0
   16.5078   18.4419   22.0784 H   0  0  0  0  0  0  0  0  0  0  0  0
   17.9877   19.0280   21.3361 H   0  0  0  0  0  0  0  0  0  0  0  0
   18.0414   16.9331   21.9537 C   0  0  0  0  0  0  0  0  0  0  0  0
   17.5968   16.2862   22.7211 H   0  0  0  0  0  0  0  0  0  0  0  0
   17.7142   16.5641   20.9731 H   0  0  0  0  0  0  0  0  0  0  0  0
   19.1303   16.8211   22.0076 H   0  0  0  0  0  0  0  0  0  0  0  0
  1  2  1  0  0  0  0
  1  3  2  0  0  0  0
  1  4  1  0  0  0  0
  4  5  1  0  0  0  0
  4  6  1  0  0  0  0
  4  7  1  0  0  0  0
  7  8  1  0  0  0  0
  7  9  1  0  0  0  0
  7 10  1  0  0  0  0
 10 11  1  0  0  0  0
 10 12  1  0  0  0  0
 10 13  1  0  0  0  0
 13 14  1  0  0  0  0
 13 15  1  0  0  0  0
 13 16  1  0  0  0  0
 16 17  1  0  0  0  0
 16 18  1  0  0  0  0
 16 19  1  0  0  0  0
 19 20  1  0  0  0  0
 19 21  1  0  0  0  0
 19 22  1  0  0  0  0
 22 23  1  0  0  0  0
 22 24  1  0  0  0  0
 22 25  1  0  0  0  0
M  END
> <VConfSearch Rank>
933

> <Conf_Id>
20

> <Delta U+W>
3.224

> <U+W>
-48.406

> <U>
10.617

> <W>
-59.023

> <W(PB)>
-61.467

> <W(SA)>
2.444

> <Valence>
11.188

> <Coulomb>
-1.778

> <VdW>
1.208

> <VdW6>
-9.786

> <VdW12>
10.993

> <Bond>
0.241

> <Angle>
3.294

> <Pdih>
7.653

> <Idih>
0.001

> <Tether>
0.000

$$$$
VeraChem MOL file


 25 24  0  0  0  0  0  0  0  0999 V2000     
   21.9251   19.7547   21.1450 C   0  0  0  0  0  0  0  0  0  0  0  0
   23.0254   19.8732   21.6479 O   0  5  0  0  0  0  0  0  0  0  0  0
   21.2646   20.6945   20.7478 O   0  0  0  0  0  0  0  0  0  0  0  0
   21.3694   18.3467   20.9400 C   0  0  0  0  0  0  0  0  0  0  0  0
   22.0516   17.8446   20.2443 H   0  0  0  0  0  0  0  0  0  0  0  0
   20.3995   18.4166   20.4329 H   0  0  0  0  0  0  0  0  0  0  0  0
   21.2419   17.4894   22.2307 C   0  0  0  0  0  0  0  0  0  0  0  0
   21.1964   16.4331   21.9330 H   0  0  0  0  0  0  0  0  0  0  0  0
   22.1506   17.5925   22.8400 H   0  0  0  0  0  0  0  0  0  0  0  0
   19.9892   17.7915   23.0901 C   0  0  0  0  0  0  0  0  0  0  0  0
   19.9262   17.0320   23.8814 H   0  0  0  0  0  0  0  0  0  0  0  0
   19.0843   17.6753   22.4783 H   0  0  0  0  0  0  0  0  0  0  0  0
   19.9969   19.1913   23.7452 C   0  0  0  0  0  0  0  0  0  0  0  0
   20.9488   19.3473   24.2712 H   0  0  0  0  0  0  0  0  0  0  0  0
   19.9268   19.9656   22.9708 H   0  0  0  0  0  0  0  0  0  0  0  0
   18.8242   19.3655   24.7346 C   0  0  0  0  0  0  0  0  0  0  0  0
   18.8887   18.6001   25.5201 H   0  0  0  0  0  0  0  0  0  0  0  0
   17.8736   19.2045   24.2079 H   0  0  0  0  0  0  0  0  0  0  0  0
   18.8244   20.7669   25.3806 C   0  0  0  0  0  0  0  0  0  0  0  0
   19.7738   20.9308   25.9090 H   0  0  0  0  0  0  0  0  0  0  0  0
   18.7583   21.5353   24.5978 H   0  0  0  0  0  0  0  0  0  0  0  0
   17.6521   20.9381   26.3676 C   0  0  0  0  0  0  0  0  0  0  0  0
   17.7112   20.2012   27.1793 H   0  0  0  0  0  0  0  0  0  0  0  0
   17.6678   21.9395   26.8170 H   0  0  0  0  0  0  0  0  0  0  0  0
   16.6879   20.8104   25.8581 H   0  0  0  0  0  0  0  0  0  0  0  0
  1  2  1  0  0  0  0
  1  3  2  0  0  0  0
  1  4  1  0  0  0  0
  4  5  1  0  0  0  0
  4  6  1  0  0  0  0
  4  7  1  0  0  0  0
  7  8  1  0  0  0  0
  7  9  1  0  0  0  0
  7 10  1  0  0  0  0
 10 11  1  0  0  0  0
 10 12  1  0  0  0  0
 10 13  1  0  0  0  0
 13 14  1  0  0  0  0
 13 15  1  0  0  0  0
 13 16  1  0  0  0  0
 16 17  1  0  0  0  0
 16 18  1  0  0  0  0
 16 19  1  0  0  0  0
 19 20  1  0  0  0  0
 19 21  1  0  0  0  0
 19 22  1  0  0  0  0
 22 23  1  0  0  0  0
 22 24  1  0  0  0  0
 22 25  1  0  0  0  0
M  END
> <VConfSearch Rank>
934

> <Conf_Id>
24

> <Delta U+W>
1.784

> <U+W>
-49.846

> <U>
10.904

> <W>
-60.749

> <W(PB)>
-63.220

> <W(SA)>
2.471

> <Valence>
9.445

> <Coulomb>
0.780

> <VdW>
0.679

> <VdW6>
-10.008

> <VdW12>
10.687

> <Bond>
0.201

> <Angle>
3.198

> <Pdih>
6.039

> <Idih>
0.006

> <Tether>
0.000

$$$$
VeraChem MOL file


 25 24  0  0  0  0  0  0  0  0999 V2000     
   20.1982   16.3887   21.7141 C   0  0  0  0  0  0  0  0  0  0  0  0
   19.5675   16.6738   20.7147 O   0  5  0  0  0  0  0  0  0  0  0  0
   21.4125   16.3552   21.7540 O   0  0  0  0  0  0  0  0  0  0  0  0
   19.4255   15.9862   22.9688 C   0  0  0  0  0  0  0  0  0  0  0  0
   20.1396   15.7134   23.7551 H   0  0  0  0  0  0  0  0  0  0  0  0
   18.8768   15.0725   22.7126 H   0  0  0  0  0  0  0  0  0  0  0  0
   18.4209   17.0480   23.4983 C   0  0  0  0  0  0  0  0  0  0  0  0
   17.8463   17.4699   22.6619 H   0  0  0  0  0  0  0  0  0  0  0  0
   17.6902   16.5343   24.1376 H   0  0  0  0  0  0  0  0  0  0  0  0
   19.0587   18.1868   24.3322 C   0  0  0  0  0  0  0  0  0  0  0  0
   19.6213   17.7588   25.1731 H   0  0  0  0  0  0  0  0  0  0  0  0
   18.2480   18.7820   24.7744 H   0  0  0  0  0  0  0  0  0  0  0  0
   19.9768   19.1262   23.5177 C   0  0  0  0  0  0  0  0  0  0  0  0
   20.8636   18.5772   23.1770 H   0  0  0  0  0  0  0  0  0  0  0  0
   19.4472   19.4718   22.6193 H   0  0  0  0  0  0  0  0  0  0  0  0
   20.4317   20.3440   24.3511 C   0  0  0  0  0  0  0  0  0  0  0  0
   20.9567   19.9963   25.2514 H   0  0  0  0  0  0  0  0  0  0  0  0
   19.5515   20.9068   24.6910 H   0  0  0  0  0  0  0  0  0  0  0  0
   21.3577   21.2766   23.5424 C   0  0  0  0  0  0  0  0  0  0  0  0
   22.2404   20.7175   23.2021 H   0  0  0  0  0  0  0  0  0  0  0  0
   20.8351   21.6267   22.6414 H   0  0  0  0  0  0  0  0  0  0  0  0
   21.8107   22.4914   24.3771 C   0  0  0  0  0  0  0  0  0  0  0  0
   22.3641   22.1704   25.2694 H   0  0  0  0  0  0  0  0  0  0  0  0
   22.4679   23.1431   23.7868 H   0  0  0  0  0  0  0  0  0  0  0  0
   20.9482   23.0867   24.7044 H   0  0  0  0  0  0  0  0  0  0  0  0
  1  2  1  0  0  0  0
  1  3  2  0  0  0  0
  1  4  1  0  0  0  0
  4  5  1  0  0  0  0
  4  6  1  0  0  0  0
  4  7  1  0  0  0  0
  7  8  1  0  0  0  0
  7  9  1  0  0  0  0
  7 10  1  0  0  0  0
 10 11  1  0  0  0  0
 10 12  1  0  0  0  0
 10 13  1  0  0  0  0
 13 14  1  0  0  0  0
 13 15  1  0  0  0  0
 13 16  1  0  0  0  0
 16 17  1  0  0  0  0
 16 18  1  0  0  0  0
 16 19  1  0  0  0  0
 19 20  1  0  0  0  0
 19 21  1  0  0  0  0
 19 22  1  0  0  0  0
 22 23  1  0  0  0  0
 22 24  1  0  0  0  0
 22 25  1  0  0  0  0
M  END
> <VConfSearch Rank>
935

> <Conf_Id>
9

> <Delta U+W>
1.764

> <U+W>
-49.865

> <U>
10.902

> <W>
-60.768

> <W(PB)>
-63.223

> <W(SA)>
2.456

> <Valence>
9.445

> <Coulomb>
0.778

> <VdW>
0.679

> <VdW6>
-10.007

> <VdW12>
10.687

> <Bond>
0.201

> <Angle>
3.198

> <Pdih>
6.040

> <Idih>
0.006

> <Tether>
0.000

$$$$
VeraChem MOL file


 25 24  0  0  0  0  0  0  0  0999 V2000     
   19.5696   22.6116   22.1492 C   0  0  0  0  0  0  0  0  0  0  0  0
   20.1643   23.0686   23.1053 O   0  5  0  0  0  0  0  0  0  0  0  0
   19.3468   23.2386   21.1323 O   0  0  0  0  0  0  0  0  0  0  0  0
   19.0946   21.1649   22.2209 C   0  0  0  0  0  0  0  0  0  0  0  0
   18.1634   21.0862   21.6472 H   0  0  0  0  0  0  0  0  0  0  0  0
   18.8461   20.9457   23.2638 H   0  0  0  0  0  0  0  0  0  0  0  0
   20.1435   20.1616   21.6723 C   0  0  0  0  0  0  0  0  0  0  0  0
   20.3472   20.4253   20.6252 H   0  0  0  0  0  0  0  0  0  0  0  0
   21.0958   20.2792   22.2076 H   0  0  0  0  0  0  0  0  0  0  0  0
   19.6751   18.6852   21.7288 C   0  0  0  0  0  0  0  0  0  0  0  0
   20.0763   18.1660   20.8477 H   0  0  0  0  0  0  0  0  0  0  0  0
   18.5819   18.6280   21.6364 H   0  0  0  0  0  0  0  0  0  0  0  0
   20.1458   17.9052   22.9821 C   0  0  0  0  0  0  0  0  0  0  0  0
   19.8308   16.8584   22.8752 H   0  0  0  0  0  0  0  0  0  0  0  0
   21.2434   17.8968   23.0072 H   0  0  0  0  0  0  0  0  0  0  0  0
   19.5982   18.4599   24.3184 C   0  0  0  0  0  0  0  0  0  0  0  0
   18.5138   18.6094   24.2281 H   0  0  0  0  0  0  0  0  0  0  0  0
   20.0400   19.4444   24.5205 H   0  0  0  0  0  0  0  0  0  0  0  0
   19.8691   17.5297   25.5237 C   0  0  0  0  0  0  0  0  0  0  0  0
   19.3668   17.9436   26.4089 H   0  0  0  0  0  0  0  0  0  0  0  0
   19.4162   16.5452   25.3421 H   0  0  0  0  0  0  0  0  0  0  0  0
   21.3716   17.3603   25.8370 C   0  0  0  0  0  0  0  0  0  0  0  0
   21.8515   18.3345   25.9975 H   0  0  0  0  0  0  0  0  0  0  0  0
   21.5092   16.7614   26.7466 H   0  0  0  0  0  0  0  0  0  0  0  0
   21.8953   16.8489   25.0197 H   0  0  0  0  0  0  0  0  0  0  0  0
  1  2  1  0  0  0  0
  1  3  2  0  0  0  0
  1  4  1  0  0  0  0
  4  5  1  0  0  0  0
  4  6  1  0  0  0  0
  4  7  1  0  0  0  0
  7  8  1  0  0  0  0
  7  9  1  0  0  0  0
  7 10  1  0  0  0  0
 10 11  1  0  0  0  0
 10 12  1  0  0  0  0
 10 13  1  0  0  0  0
 13 14  1  0  0  0  0
 13 15  1  0  0  0  0
 13 16  1  0  0  0  0
 16 17  1  0  0  0  0
 16 18  1  0  0  0  0
 16 19  1  0  0  0  0
 19 20  1  0  0  0  0
 19 21  1  0  0  0  0
 19 22  1  0  0  0  0
 22 23  1  0  0  0  0
 22 24  1  0  0  0  0
 22 25  1  0  0  0  0
M  END
> <VConfSearch Rank>
936

> <Conf_Id>
89

> <Delta U+W>
2.903

> <U+W>
-48.726

> <U>
10.996

> <W>
-59.723

> <W(PB)>
-62.151

> <W(SA)>
2.428

> <Valence>
10.985

> <Coulomb>
-0.995

> <VdW>
1.006

> <VdW6>
-10.062

> <VdW12>
11.069

> <Bond>
0.238

> <Angle>
3.202

> <Pdih>
7.544

> <Idih>
0.001

> <Tether>
0.000

$$$$
VeraChem MOL file


 25 24  0  0  0  0  0  0  0  0999 V2000     
   19.3099   21.8426   25.3549 C   0  0  0  0  0  0  0  0  0  0  0  0
   18.5926   21.3212   26.1860 O   0  5  0  0  0  0  0  0  0  0  0  0
   20.3762   22.3623   25.6207 O   0  0  0  0  0  0  0  0  0  0  0  0
   18.8130   21.9037   23.9117 C   0  0  0  0  0  0  0  0  0  0  0  0
   18.6751   22.9659   23.6791 H   0  0  0  0  0  0  0  0  0  0  0  0
   17.8212   21.4391   23.8557 H   0  0  0  0  0  0  0  0  0  0  0  0
   19.7639   21.2742   22.8548 C   0  0  0  0  0  0  0  0  0  0  0  0
   19.5121   21.7039   21.8758 H   0  0  0  0  0  0  0  0  0  0  0  0
   20.8015   21.5739   23.0575 H   0  0  0  0  0  0  0  0  0  0  0  0
   19.6710   19.7329   22.7292 C   0  0  0  0  0  0  0  0  0  0  0  0
   20.2527   19.4360   21.8478 H   0  0  0  0  0  0  0  0  0  0  0  0
   18.6318   19.4409   22.5263 H   0  0  0  0  0  0  0  0  0  0  0  0
   20.1938   18.9672   23.9689 C   0  0  0  0  0  0  0  0  0  0  0  0
   21.2117   19.3008   24.2124 H   0  0  0  0  0  0  0  0  0  0  0  0
   19.5690   19.2140   24.8358 H   0  0  0  0  0  0  0  0  0  0  0  0
   20.1766   17.4291   23.7980 C   0  0  0  0  0  0  0  0  0  0  0  0
   19.1653   17.1003   23.5225 H   0  0  0  0  0  0  0  0  0  0  0  0
   20.3969   16.9709   24.7719 H   0  0  0  0  0  0  0  0  0  0  0  0
   21.1974   16.9081   22.7607 C   0  0  0  0  0  0  0  0  0  0  0  0
   20.9501   17.2863   21.7604 H   0  0  0  0  0  0  0  0  0  0  0  0
   22.2001   17.2838   23.0068 H   0  0  0  0  0  0  0  0  0  0  0  0
   21.2246   15.3668   22.7196 C   0  0  0  0  0  0  0  0  0  0  0  0
   20.2396   14.9641   22.4492 H   0  0  0  0  0  0  0  0  0  0  0  0
   21.9512   15.0124   21.9770 H   0  0  0  0  0  0  0  0  0  0  0  0
   21.5084   14.9521   23.6958 H   0  0  0  0  0  0  0  0  0  0  0  0
  1  2  1  0  0  0  0
  1  3  2  0  0  0  0
  1  4  1  0  0  0  0
  4  5  1  0  0  0  0
  4  6  1  0  0  0  0
  4  7  1  0  0  0  0
  7  8  1  0  0  0  0
  7  9  1  0  0  0  0
  7 10  1  0  0  0  0
 10 11  1  0  0  0  0
 10 12  1  0  0  0  0
 10 13  1  0  0  0  0
 13 14  1  0  0  0  0
 13 15  1  0  0  0  0
 13 16  1  0  0  0  0
 16 17  1  0  0  0  0
 16 18  1  0  0  0  0
 16 19  1  0  0  0  0
 19 20  1  0  0  0  0
 19 21  1  0  0  0  0
 19 22  1  0  0  0  0
 22 23  1  0  0  0  0
 22 24  1  0  0  0  0
 22 25  1  0  0  0  0
M  END
> <VConfSearch Rank>
937

> <Conf_Id>
114

> <Delta U+W>
2.758

> <U+W>
-48.871

> <U>
11.422

> <W>
-60.293

> <W(PB)>
-62.719

> <W(SA)>
2.425

> <Valence>
10.135

> <Coulomb>
0.369

> <VdW>
0.918

> <VdW6>
-10.482

> <VdW12>
11.400

> <Bond>
0.245

> <Angle>
3.539

> <Pdih>
6.346

> <Idih>
0.006

> <Tether>
0.000

$$$$
VeraChem MOL file


 25 24  0  0  0  0  0  0  0  0999 V2000     
   22.8195   19.3201   20.6091 C   0  0  0  0  0  0  0  0  0  0  0  0
   22.1911   19.2952   19.5691 O   0  5  0  0  0  0  0  0  0  0  0  0
   23.5145   20.2561   20.9529 O   0  0  0  0  0  0  0  0  0  0  0  0
   22.7500   18.1018   21.5255 C   0  0  0  0  0  0  0  0  0  0  0  0
   23.7731   17.8740   21.8471 H   0  0  0  0  0  0  0  0  0  0  0  0
   22.4028   17.2424   20.9394 H   0  0  0  0  0  0  0  0  0  0  0  0
   21.8477   18.3020   22.7708 C   0  0  0  0  0  0  0  0  0  0  0  0
   21.9580   17.4338   23.4344 H   0  0  0  0  0  0  0  0  0  0  0  0
   22.2041   19.1770   23.3300 H   0  0  0  0  0  0  0  0  0  0  0  0
   20.3554   18.4744   22.3985 C   0  0  0  0  0  0  0  0  0  0  0  0
   20.0487   17.6338   21.7612 H   0  0  0  0  0  0  0  0  0  0  0  0
   20.2231   19.3833   21.7954 H   0  0  0  0  0  0  0  0  0  0  0  0
   19.4134   18.5280   23.6251 C   0  0  0  0  0  0  0  0  0  0  0  0
   18.3792   18.5022   23.2590 H   0  0  0  0  0  0  0  0  0  0  0  0
   19.5506   17.6245   24.2346 H   0  0  0  0  0  0  0  0  0  0  0  0
   19.6161   19.7873   24.5033 C   0  0  0  0  0  0  0  0  0  0  0  0
   19.4823   20.6905   23.8925 H   0  0  0  0  0  0  0  0  0  0  0  0
   20.6487   19.8121   24.8738 H   0  0  0  0  0  0  0  0  0  0  0  0
   18.6688   19.8437   25.7247 C   0  0  0  0  0  0  0  0  0  0  0  0
   18.7916   18.9363   26.3320 H   0  0  0  0  0  0  0  0  0  0  0  0
   18.9684   20.6865   26.3629 H   0  0  0  0  0  0  0  0  0  0  0  0
   17.1826   20.0170   25.3422 C   0  0  0  0  0  0  0  0  0  0  0  0
   16.5679   20.1478   26.2422 H   0  0  0  0  0  0  0  0  0  0  0  0
   17.0411   20.8999   24.7054 H   0  0  0  0  0  0  0  0  0  0  0  0
   16.8010   19.1398   24.8053 H   0  0  0  0  0  0  0  0  0  0  0  0
  1  2  1  0  0  0  0
  1  3  2  0  0  0  0
  1  4  1  0  0  0  0
  4  5  1  0  0  0  0
  4  6  1  0  0  0  0
  4  7  1  0  0  0  0
  7  8  1  0  0  0  0
  7  9  1  0  0  0  0
  7 10  1  0  0  0  0
 10 11  1  0  0  0  0
 10 12  1  0  0  0  0
 10 13  1  0  0  0  0
 13 14  1  0  0  0  0
 13 15  1  0  0  0  0
 13 16  1  0  0  0  0
 16 17  1  0  0  0  0
 16 18  1  0  0  0  0
 16 19  1  0  0  0  0
 19 20  1  0  0  0  0
 19 21  1  0  0  0  0
 19 22  1  0  0  0  0
 22 23  1  0  0  0  0
 22 24  1  0  0  0  0
 22 25  1  0  0  0  0
M  END
> <VConfSearch Rank>
938

> <Conf_Id>
87

> <Delta U+W>
1.453

> <U+W>
-50.176

> <U>
9.763

> <W>
-59.940

> <W(PB)>
-62.392

> <W(SA)>
2.452

> <Valence>
8.883

> <Coulomb>
-0.122

> <VdW>
1.003

> <VdW6>
-9.782

> <VdW12>
10.785

> <Bond>
0.212

> <Angle>
2.940

> <Pdih>
5.730

> <Idih>
0.001

> <Tether>
0.000

$$$$
VeraChem MOL file


 25 24  0  0  0  0  0  0  0  0999 V2000     
   19.1042   22.7050   24.6704 C   0  0  0  0  0  0  0  0  0  0  0  0
   18.4870   22.4419   25.6836 O   0  5  0  0  0  0  0  0  0  0  0  0
   19.7804   23.7056   24.5347 O   0  0  0  0  0  0  0  0  0  0  0  0
   19.0417   21.7161   23.5119 C   0  0  0  0  0  0  0  0  0  0  0  0
   19.1134   22.2829   22.5760 H   0  0  0  0  0  0  0  0  0  0  0  0
   18.0556   21.2364   23.5262 H   0  0  0  0  0  0  0  0  0  0  0  0
   20.1574   20.6441   23.5755 C   0  0  0  0  0  0  0  0  0  0  0  0
   21.1382   21.1392   23.5690 H   0  0  0  0  0  0  0  0  0  0  0  0
   20.0771   20.1042   24.5283 H   0  0  0  0  0  0  0  0  0  0  0  0
   20.0666   19.6508   22.3941 C   0  0  0  0  0  0  0  0  0  0  0  0
   20.0785   20.2146   21.4514 H   0  0  0  0  0  0  0  0  0  0  0  0
   19.1025   19.1262   22.4228 H   0  0  0  0  0  0  0  0  0  0  0  0
   21.2254   18.6229   22.3622 C   0  0  0  0  0  0  0  0  0  0  0  0
   21.1200   17.9976   21.4660 H   0  0  0  0  0  0  0  0  0  0  0  0
   22.1739   19.1626   22.2376 H   0  0  0  0  0  0  0  0  0  0  0  0
   21.3361   17.7101   23.6121 C   0  0  0  0  0  0  0  0  0  0  0  0
   21.6052   18.3196   24.4846 H   0  0  0  0  0  0  0  0  0  0  0  0
   22.1752   17.0166   23.4653 H   0  0  0  0  0  0  0  0  0  0  0  0
   20.0649   16.8908   23.9451 C   0  0  0  0  0  0  0  0  0  0  0  0
   20.2532   16.3070   24.8565 H   0  0  0  0  0  0  0  0  0  0  0  0
   19.2321   17.5657   24.1834 H   0  0  0  0  0  0  0  0  0  0  0  0
   19.6472   15.9260   22.8142 C   0  0  0  0  0  0  0  0  0  0  0  0
   20.4718   15.2520   22.5484 H   0  0  0  0  0  0  0  0  0  0  0  0
   18.7947   15.3106   23.1293 H   0  0  0  0  0  0  0  0  0  0  0  0
   19.3466   16.4749   21.9130 H   0  0  0  0  0  0  0  0  0  0  0  0
  1  2  1  0  0  0  0
  1  3  2  0  0  0  0
  1  4  1  0  0  0  0
  4  5  1  0  0  0  0
  4  6  1  0  0  0  0
  4  7  1  0  0  0  0
  7  8  1  0  0  0  0
  7  9  1  0  0  0  0
  7 10  1  0  0  0  0
 10 11  1  0  0  0  0
 10 12  1  0  0  0  0
 10 13  1  0  0  0  0
 13 14  1  0  0  0  0
 13 15  1  0  0  0  0
 13 16  1  0  0  0  0
 16 17  1  0  0  0  0
 16 18  1  0  0  0  0
 16 19  1  0  0  0  0
 19 20  1  0  0  0  0
 19 21  1  0  0  0  0
 19 22  1  0  0  0  0
 22 23  1  0  0  0  0
 22 24  1  0  0  0  0
 22 25  1  0  0  0  0
M  END
> <VConfSearch Rank>
939

> <Conf_Id>
29

> <Delta U+W>
0.850

> <U+W>
-50.780

> <U>
8.646

> <W>
-59.426

> <W(PB)>
-61.868

> <W(SA)>
2.442

> <Valence>
8.924

> <Coulomb>
-1.171

> <VdW>
0.894

> <VdW6>
-10.223

> <VdW12>
11.117

> <Bond>
0.231

> <Angle>
3.232

> <Pdih>
5.461

> <Idih>
0.001

> <Tether>
0.000

$$$$
VeraChem MOL file


 25 24  0  0  0  0  0  0  0  0999 V2000     
   16.7054   20.3131   21.4440 C   0  0  0  0  0  0  0  0  0  0  0  0
   16.4019   21.3209   22.0514 O   0  5  0  0  0  0  0  0  0  0  0  0
   15.8950   19.5637   20.9356 O   0  0  0  0  0  0  0  0  0  0  0  0
   18.1838   19.9592   21.3295 C   0  0  0  0  0  0  0  0  0  0  0  0
   18.7565   20.8939   21.2984 H   0  0  0  0  0  0  0  0  0  0  0  0
   18.3391   19.4512   20.3701 H   0  0  0  0  0  0  0  0  0  0  0  0
   18.6806   19.0675   22.4940 C   0  0  0  0  0  0  0  0  0  0  0  0
   18.4966   19.5881   23.4432 H   0  0  0  0  0  0  0  0  0  0  0  0
   18.0929   18.1396   22.5178 H   0  0  0  0  0  0  0  0  0  0  0  0
   20.1833   18.7300   22.3573 C   0  0  0  0  0  0  0  0  0  0  0  0
   20.7749   19.6547   22.3736 H   0  0  0  0  0  0  0  0  0  0  0  0
   20.3589   18.2734   21.3737 H   0  0  0  0  0  0  0  0  0  0  0  0
   20.6979   17.7555   23.4462 C   0  0  0  0  0  0  0  0  0  0  0  0
   20.1594   16.8028   23.3519 H   0  0  0  0  0  0  0  0  0  0  0  0
   21.7514   17.5219   23.2437 H   0  0  0  0  0  0  0  0  0  0  0  0
   20.5581   18.2601   24.9069 C   0  0  0  0  0  0  0  0  0  0  0  0
   20.9715   17.4980   25.5812 H   0  0  0  0  0  0  0  0  0  0  0  0
   19.4936   18.3370   25.1645 H   0  0  0  0  0  0  0  0  0  0  0  0
   21.2457   19.6152   25.2051 C   0  0  0  0  0  0  0  0  0  0  0  0
   20.7867   20.4120   24.6049 H   0  0  0  0  0  0  0  0  0  0  0  0
   21.0584   19.8795   26.2549 H   0  0  0  0  0  0  0  0  0  0  0  0
   22.7704   19.5921   24.9627 C   0  0  0  0  0  0  0  0  0  0  0  0
   23.0029   19.4362   23.9018 H   0  0  0  0  0  0  0  0  0  0  0  0
   23.2223   20.5452   25.2662 H   0  0  0  0  0  0  0  0  0  0  0  0
   23.2480   18.7911   25.5416 H   0  0  0  0  0  0  0  0  0  0  0  0
  1  2  1  0  0  0  0
  1  3  2  0  0  0  0
  1  4  1  0  0  0  0
  4  5  1  0  0  0  0
  4  6  1  0  0  0  0
  4  7  1  0  0  0  0
  7  8  1  0  0  0  0
  7  9  1  0  0  0  0
  7 10  1  0  0  0  0
 10 11  1  0  0  0  0
 10 12  1  0  0  0  0
 10 13  1  0  0  0  0
 13 14  1  0  0  0  0
 13 15  1  0  0  0  0
 13 16  1  0  0  0  0
 16 17  1  0  0  0  0
 16 18  1  0  0  0  0
 16 19  1  0  0  0  0
 19 20  1  0  0  0  0
 19 21  1  0  0  0  0
 19 22  1  0  0  0  0
 22 23  1  0  0  0  0
 22 24  1  0  0  0  0
 22 25  1  0  0  0  0
M  END
> <VConfSearch Rank>
940

> <Conf_Id>
30

> <Delta U+W>
0.843

> <U+W>
-50.787

> <U>
8.647

> <W>
-59.434

> <W(PB)>
-61.861

> <W(SA)>
2.428

> <Valence>
8.924

> <Coulomb>
-1.170

> <VdW>
0.894

> <VdW6>
-10.224

> <VdW12>
11.118

> <Bond>
0.231

> <Angle>
3.232

> <Pdih>
5.460

> <Idih>
0.000

> <Tether>
0.000

$$$$
VeraChem MOL file


 25 24  0  0  0  0  0  0  0  0999 V2000     
   20.4916   15.3071   20.4851 C   0  0  0  0  0  0  0  0  0  0  0  0
   21.5743   15.6355   20.0394 O   0  5  0  0  0  0  0  0  0  0  0  0
   19.9340   14.2720   20.1789 O   0  0  0  0  0  0  0  0  0  0  0  0
   19.7724   16.2194   21.4800 C   0  0  0  0  0  0  0  0  0  0  0  0
   19.5918   15.6337   22.3890 H   0  0  0  0  0  0  0  0  0  0  0  0
   18.7918   16.4601   21.0530 H   0  0  0  0  0  0  0  0  0  0  0  0
   20.5235   17.5288   21.8403 C   0  0  0  0  0  0  0  0  0  0  0  0
   21.5076   17.2804   22.2615 H   0  0  0  0  0  0  0  0  0  0  0  0
   20.7069   18.1076   20.9244 H   0  0  0  0  0  0  0  0  0  0  0  0
   19.7290   18.3882   22.8476 C   0  0  0  0  0  0  0  0  0  0  0  0
   19.5469   17.8075   23.7624 H   0  0  0  0  0  0  0  0  0  0  0  0
   18.7457   18.6352   22.4244 H   0  0  0  0  0  0  0  0  0  0  0  0
   20.4780   19.6901   23.2046 C   0  0  0  0  0  0  0  0  0  0  0  0
   21.4614   19.4434   23.6279 H   0  0  0  0  0  0  0  0  0  0  0  0
   20.6602   20.2710   22.2900 H   0  0  0  0  0  0  0  0  0  0  0  0
   19.6841   20.5499   24.2118 C   0  0  0  0  0  0  0  0  0  0  0  0
   19.5018   19.9691   25.1265 H   0  0  0  0  0  0  0  0  0  0  0  0
   18.7007   20.7968   23.7887 H   0  0  0  0  0  0  0  0  0  0  0  0
   20.4327   21.8513   24.5687 C   0  0  0  0  0  0  0  0  0  0  0  0
   21.4162   21.6081   24.9941 H   0  0  0  0  0  0  0  0  0  0  0  0
   20.6152   22.4358   23.6563 H   0  0  0  0  0  0  0  0  0  0  0  0
   19.6367   22.7069   25.5747 C   0  0  0  0  0  0  0  0  0  0  0  0
   19.4670   22.1574   26.5099 H   0  0  0  0  0  0  0  0  0  0  0  0
   20.1833   23.6276   25.8170 H   0  0  0  0  0  0  0  0  0  0  0  0
   18.6599   22.9913   25.1620 H   0  0  0  0  0  0  0  0  0  0  0  0
  1  2  1  0  0  0  0
  1  3  2  0  0  0  0
  1  4  1  0  0  0  0
  4  5  1  0  0  0  0
  4  6  1  0  0  0  0
  4  7  1  0  0  0  0
  7  8  1  0  0  0  0
  7  9  1  0  0  0  0
  7 10  1  0  0  0  0
 10 11  1  0  0  0  0
 10 12  1  0  0  0  0
 10 13  1  0  0  0  0
 13 14  1  0  0  0  0
 13 15  1  0  0  0  0
 13 16  1  0  0  0  0
 16 17  1  0  0  0  0
 16 18  1  0  0  0  0
 16 19  1  0  0  0  0
 19 20  1  0  0  0  0
 19 21  1  0  0  0  0
 19 22  1  0  0  0  0
 22 23  1  0  0  0  0
 22 24  1  0  0  0  0
 22 25  1  0  0  0  0
M  END
> <VConfSearch Rank>
941

> <Conf_Id>
0

> <Delta U+W>
0.000

> <U+W>
-51.629

> <U>
6.586

> <W>
-58.216

> <W(PB)>
-60.757

> <W(SA)>
2.541

> <Valence>
8.027

> <Coulomb>
-2.892

> <VdW>
1.451

> <VdW6>
-7.931

> <VdW12>
9.383

> <Bond>
0.149

> <Angle>
2.726

> <Pdih>
5.152

> <Idih>
0.000

> <Tether>
0.000

$$$$
VeraChem MOL file


 25 24  0  0  0  0  0  0  0  0999 V2000     
   24.3317   18.0760   24.8564 C   0  0  0  0  0  0  0  0  0  0  0  0
   24.3901   16.9920   25.4023 O   0  5  0  0  0  0  0  0  0  0  0  0
   25.2616   18.5796   24.2578 O   0  0  0  0  0  0  0  0  0  0  0  0
   23.0112   18.8363   24.9056 C   0  0  0  0  0  0  0  0  0  0  0  0
   23.2362   19.9096   24.9130 H   0  0  0  0  0  0  0  0  0  0  0  0
   22.5183   18.6017   25.8567 H   0  0  0  0  0  0  0  0  0  0  0  0
   22.0758   18.4942   23.7198 C   0  0  0  0  0  0  0  0  0  0  0  0
   22.5890   18.7225   22.7752 H   0  0  0  0  0  0  0  0  0  0  0  0
   21.8712   17.4145   23.7188 H   0  0  0  0  0  0  0  0  0  0  0  0
   20.7463   19.2760   23.7922 C   0  0  0  0  0  0  0  0  0  0  0  0
   20.9544   20.3549   23.7941 H   0  0  0  0  0  0  0  0  0  0  0  0
   20.2365   19.0468   24.7381 H   0  0  0  0  0  0  0  0  0  0  0  0
   19.8159   18.9328   22.6090 C   0  0  0  0  0  0  0  0  0  0  0  0
   20.3254   19.1621   21.6630 H   0  0  0  0  0  0  0  0  0  0  0  0
   19.6077   17.8541   22.6069 H   0  0  0  0  0  0  0  0  0  0  0  0
   18.4862   19.7142   22.6808 C   0  0  0  0  0  0  0  0  0  0  0  0
   18.6940   20.7931   22.6828 H   0  0  0  0  0  0  0  0  0  0  0  0
   17.9764   19.4851   23.6267 H   0  0  0  0  0  0  0  0  0  0  0  0
   17.5559   19.3712   21.4982 C   0  0  0  0  0  0  0  0  0  0  0  0
   18.0619   19.6008   20.5502 H   0  0  0  0  0  0  0  0  0  0  0  0
   17.3442   18.2930   21.4941 H   0  0  0  0  0  0  0  0  0  0  0  0
   16.2293   20.1535   21.5735 C   0  0  0  0  0  0  0  0  0  0  0  0
   15.5806   19.8976   20.7257 H   0  0  0  0  0  0  0  0  0  0  0  0
   15.6866   19.9184   22.4985 H   0  0  0  0  0  0  0  0  0  0  0  0
   16.4097   21.2362   21.5475 H   0  0  0  0  0  0  0  0  0  0  0  0
  1  2  1  0  0  0  0
  1  3  2  0  0  0  0
  1  4  1  0  0  0  0
  4  5  1  0  0  0  0
  4  6  1  0  0  0  0
  4  7  1  0  0  0  0
  7  8  1  0  0  0  0
  7  9  1  0  0  0  0
  7 10  1  0  0  0  0
 10 11  1  0  0  0  0
 10 12  1  0  0  0  0
 10 13  1  0  0  0  0
 13 14  1  0  0  0  0
 13 15  1  0  0  0  0
 13 16  1  0  0  0  0
 16 17  1  0  0  0  0
 16 18  1  0  0  0  0
 16 19  1  0  0  0  0
 19 20  1  0  0  0  0
 19 21  1  0  0  0  0
 19 22  1  0  0  0  0
 22 23  1  0  0  0  0
 22 24  1  0  0  0  0
 22 25  1  0  0  0  0
M  END
> <VConfSearch Rank>
942

> <Conf_Id>
27

> <Delta U+W>
-1.297

> <U+W>
-52.926

> <U>
5.617

> <W>
-58.543

> <W(PB)>
-61.065

> <W(SA)>
2.522

> <Valence>
7.531

> <Coulomb>
-2.818

> <VdW>
0.904

> <VdW6>
-7.640

> <VdW12>
8.544

> <Bond>
0.115

> <Angle>
2.271

> <Pdih>
5.144

> <Idih>
0.001

> <Tether>
0.000

$$$$
VeraChem MOL file


 25 24  0  0  0  0  0  0  0  0999 V2000     
   20.6161   15.1017   23.7348 C   0  0  0  0  0  0  0  0  0  0  0  0
   21.7674   14.7170   23.6761 O   0  5  0  0  0  0  0  0  0  0  0  0
   19.9345   15.0341   24.7387 O   0  0  0  0  0  0  0  0  0  0  0  0
   19.9884   15.6860   22.4724 C   0  0  0  0  0  0  0  0  0  0  0  0
   18.8972   15.6597   22.5796 H   0  0  0  0  0  0  0  0  0  0  0  0
   20.2418   15.0180   21.6408 H   0  0  0  0  0  0  0  0  0  0  0  0
   20.4598   17.1261   22.1425 C   0  0  0  0  0  0  0  0  0  0  0  0
   21.5560   17.1415   22.0657 H   0  0  0  0  0  0  0  0  0  0  0  0
   20.0698   17.4116   21.1562 H   0  0  0  0  0  0  0  0  0  0  0  0
   19.9941   18.1591   23.1931 C   0  0  0  0  0  0  0  0  0  0  0  0
   20.3950   17.8899   24.1801 H   0  0  0  0  0  0  0  0  0  0  0  0
   18.8990   18.1303   23.2758 H   0  0  0  0  0  0  0  0  0  0  0  0
   20.4469   19.5894   22.8284 C   0  0  0  0  0  0  0  0  0  0  0  0
   21.5421   19.6172   22.7459 H   0  0  0  0  0  0  0  0  0  0  0  0
   20.0447   19.8619   21.8430 H   0  0  0  0  0  0  0  0  0  0  0  0
   19.9827   20.6220   23.8782 C   0  0  0  0  0  0  0  0  0  0  0  0
   20.3848   20.3496   24.8636 H   0  0  0  0  0  0  0  0  0  0  0  0
   18.8875   20.5941   23.9611 H   0  0  0  0  0  0  0  0  0  0  0  0
   20.4354   22.0517   23.5144 C   0  0  0  0  0  0  0  0  0  0  0  0
   21.5308   22.0838   23.4324 H   0  0  0  0  0  0  0  0  0  0  0  0
   20.0334   22.3284   22.5298 H   0  0  0  0  0  0  0  0  0  0  0  0
   19.9700   23.0797   24.5651 C   0  0  0  0  0  0  0  0  0  0  0  0
   20.3838   22.8449   25.5546 H   0  0  0  0  0  0  0  0  0  0  0  0
   20.3004   24.0900   24.2908 H   0  0  0  0  0  0  0  0  0  0  0  0
   18.8751   23.0913   24.6453 H   0  0  0  0  0  0  0  0  0  0  0  0
  1  2  1  0  0  0  0
  1  3  2  0  0  0  0
  1  4  1  0  0  0  0
  4  5  1  0  0  0  0
  4  6  1  0  0  0  0
  4  7  1  0  0  0  0
  7  8  1  0  0  0  0
  7  9  1  0  0  0  0
  7 10  1  0  0  0  0
 10 11  1  0  0  0  0
 10 12  1  0  0  0  0
 10 13  1  0  0  0  0
 13 14  1  0  0  0  0
 13 15  1  0  0  0  0
 13 16  1  0  0  0  0
 16 17  1  0  0  0  0
 16 18  1  0  0  0  0
 16 19  1  0  0  0  0
 19 20  1  0  0  0  0
 19 21  1  0  0  0  0
 19 22  1  0  0  0  0
 22 23  1  0  0  0  0
 22 24  1  0  0  0  0
 22 25  1  0  0  0  0
M  END
> <VConfSearch Rank>
943

> <Conf_Id>
37

> <Delta U+W>
-0.230

> <U+W>
-51.860

> <U>
7.816

> <W>
-59.675

> <W(PB)>
-62.180

> <W(SA)>
2.505

> <Valence>
7.785

> <Coulomb>
-0.713

> <VdW>
0.744

> <VdW6>
-8.514

> <VdW12>
9.259

> <Bond>
0.136

> <Angle>
2.433

> <Pdih>
5.216

> <Idih>
0.000

> <Tether>
0.000

$$$$
VeraChem MOL file


 25 24  0  0  0  0  0  0  0  0999 V2000     
   16.7820   21.2345   21.8073 C   0  0  0  0  0  0  0  0  0  0  0  0
   17.0588   22.2618   21.2199 O   0  5  0  0  0  0  0  0  0  0  0  0
   16.1454   21.2017   22.8420 O   0  0  0  0  0  0  0  0  0  0  0  0
   17.2466   19.9129   21.2018 C   0  0  0  0  0  0  0  0  0  0  0  0
   17.0156   19.9440   20.1305 H   0  0  0  0  0  0  0  0  0  0  0  0
   16.6480   19.1010   21.6323 H   0  0  0  0  0  0  0  0  0  0  0  0
   18.7580   19.6264   21.3980 C   0  0  0  0  0  0  0  0  0  0  0  0
   19.0298   18.7340   20.8182 H   0  0  0  0  0  0  0  0  0  0  0  0
   19.3430   20.4609   20.9869 H   0  0  0  0  0  0  0  0  0  0  0  0
   19.1332   19.4045   22.8805 C   0  0  0  0  0  0  0  0  0  0  0  0
   18.5363   18.5782   23.2905 H   0  0  0  0  0  0  0  0  0  0  0  0
   18.8801   20.3002   23.4645 H   0  0  0  0  0  0  0  0  0  0  0  0
   20.6352   19.0897   23.0492 C   0  0  0  0  0  0  0  0  0  0  0  0
   20.8900   18.1926   22.4683 H   0  0  0  0  0  0  0  0  0  0  0  0
   21.2313   19.9165   22.6391 H   0  0  0  0  0  0  0  0  0  0  0  0
   21.0110   18.8686   24.5303 C   0  0  0  0  0  0  0  0  0  0  0  0
   20.4149   18.0420   24.9407 H   0  0  0  0  0  0  0  0  0  0  0  0
   20.7562   19.7655   25.1114 H   0  0  0  0  0  0  0  0  0  0  0  0
   22.5124   18.5545   24.6995 C   0  0  0  0  0  0  0  0  0  0  0  0
   22.7705   17.6566   24.1210 H   0  0  0  0  0  0  0  0  0  0  0  0
   23.1118   19.3803   24.2917 H   0  0  0  0  0  0  0  0  0  0  0  0
   22.8835   18.3344   26.1799 C   0  0  0  0  0  0  0  0  0  0  0  0
   22.3209   17.4928   26.6049 H   0  0  0  0  0  0  0  0  0  0  0  0
   23.9537   18.1125   26.2816 H   0  0  0  0  0  0  0  0  0  0  0  0
   22.6647   19.2294   26.7769 H   0  0  0  0  0  0  0  0  0  0  0  0
  1  2  1  0  0  0  0
  1  3  2  0  0  0  0
  1  4  1  0  0  0  0
  4  5  1  0  0  0  0
  4  6  1  0  0  0  0
  4  7  1  0  0  0  0
  7  8  1  0  0  0  0
  7  9  1  0  0  0  0
  7 10  1  0  0  0  0
 10 11  1  0  0  0  0
 10 12  1  0  0  0  0
 10 13  1  0  0  0  0
 13 14  1  0  0  0  0
 13 15  1  0  0  0  0
 13 16  1  0  0  0  0
 16 17  1  0  0  0  0
 16 18  1  0  0  0  0
 16 19  1  0  0  0  0
 19 20  1  0  0  0  0
 19 21  1  0  0  0  0
 19 22  1  0  0  0  0
 22 23  1  0  0  0  0
 22 24  1  0  0  0  0
 22 25  1  0  0  0  0
M  END
> <VConfSearch Rank>
944

> <Conf_Id>
54

> <Delta U+W>
-0.224

> <U+W>
-51.854

> <U>
7.816

> <W>
-59.670

> <W(PB)>
-62.157

> <W(SA)>
2.487

> <Valence>
7.785

> <Coulomb>
-0.713

> <VdW>
0.744

> <VdW6>
-8.515

> <VdW12>
9.259

> <Bond>
0.136

> <Angle>
2.433

> <Pdih>
5.215

> <Idih>
0.000

> <Tether>
0.000

$$$$
VeraChem MOL file


 25 24  0  0  0  0  0  0  0  0999 V2000     
   19.5092   22.6843   21.4793 C   0  0  0  0  0  0  0  0  0  0  0  0
   18.6176   22.4707   20.6814 O   0  5  0  0  0  0  0  0  0  0  0  0
   19.4972   23.6071   22.2701 O   0  0  0  0  0  0  0  0  0  0  0  0
   20.7197   21.7549   21.4772 C   0  0  0  0  0  0  0  0  0  0  0  0
   21.6159   22.3857   21.5087 H   0  0  0  0  0  0  0  0  0  0  0  0
   20.7452   21.2146   20.5232 H   0  0  0  0  0  0  0  0  0  0  0  0
   20.7500   20.7532   22.6610 C   0  0  0  0  0  0  0  0  0  0  0  0
   21.7223   20.2448   22.6598 H   0  0  0  0  0  0  0  0  0  0  0  0
   20.6821   21.3069   23.6077 H   0  0  0  0  0  0  0  0  0  0  0  0
   19.6123   19.7065   22.5823 C   0  0  0  0  0  0  0  0  0  0  0  0
   19.7081   19.1227   21.6567 H   0  0  0  0  0  0  0  0  0  0  0  0
   18.6478   20.2288   22.5192 H   0  0  0  0  0  0  0  0  0  0  0  0
   19.5659   18.7490   23.7972 C   0  0  0  0  0  0  0  0  0  0  0  0
   19.4892   19.3341   24.7237 H   0  0  0  0  0  0  0  0  0  0  0  0
   18.6446   18.1572   23.7260 H   0  0  0  0  0  0  0  0  0  0  0  0
   20.7831   17.7949   23.8798 C   0  0  0  0  0  0  0  0  0  0  0  0
   21.7052   18.3842   23.9585 H   0  0  0  0  0  0  0  0  0  0  0  0
   20.8623   17.2138   22.9510 H   0  0  0  0  0  0  0  0  0  0  0  0
   20.7277   16.8319   25.0890 C   0  0  0  0  0  0  0  0  0  0  0  0
   21.6828   16.2924   25.1523 H   0  0  0  0  0  0  0  0  0  0  0  0
   20.6359   17.4093   26.0194 H   0  0  0  0  0  0  0  0  0  0  0  0
   19.5819   15.8003   25.0012 C   0  0  0  0  0  0  0  0  0  0  0  0
   18.5994   16.2849   25.0584 H   0  0  0  0  0  0  0  0  0  0  0  0
   19.6335   15.2346   24.0618 H   0  0  0  0  0  0  0  0  0  0  0  0
   19.6466   15.0840   25.8305 H   0  0  0  0  0  0  0  0  0  0  0  0
  1  2  1  0  0  0  0
  1  3  2  0  0  0  0
  1  4  1  0  0  0  0
  4  5  1  0  0  0  0
  4  6  1  0  0  0  0
  4  7  1  0  0  0  0
  7  8  1  0  0  0  0
  7  9  1  0  0  0  0
  7 10  1  0  0  0  0
 10 11  1  0  0  0  0
 10 12  1  0  0  0  0
 10 13  1  0  0  0  0
 13 14  1  0  0  0  0
 13 15  1  0  0  0  0
 13 16  1  0  0  0  0
 16 17  1  0  0  0  0
 16 18  1  0  0  0  0
 16 19  1  0  0  0  0
 19 20  1  0  0  0  0
 19 21  1  0  0  0  0
 19 22  1  0  0  0  0
 22 23  1  0  0  0  0
 22 24  1  0  0  0  0
 22 25  1  0  0  0  0
M  END
> <VConfSearch Rank>
945

> <Conf_Id>
101

> <Delta U+W>
1.534

> <U+W>
-50.095

> <U>
9.416

> <W>
-59.512

> <W(PB)>
-61.988

> <W(SA)>
2.476

> <Valence>
8.939

> <Coulomb>
-0.615

> <VdW>
1.092

> <VdW6>
-9.710

> <VdW12>
10.802

> <Bond>
0.216

> <Angle>
2.979

> <Pdih>
5.743

> <Idih>
0.000

> <Tether>
0.000

$$$$
VeraChem MOL file


 25 24  0  0  0  0  0  0  0  0999 V2000     
   17.7663   21.6428   25.7521 C   0  0  0  0  0  0  0  0  0  0  0  0
   17.6657   21.0819   26.8254 O   0  5  0  0  0  0  0  0  0  0  0  0
   17.5882   22.8347   25.5962 O   0  0  0  0  0  0  0  0  0  0  0  0
   18.1599   20.8090   24.5380 C   0  0  0  0  0  0  0  0  0  0  0  0
   17.6879   21.2529   23.6534 H   0  0  0  0  0  0  0  0  0  0  0  0
   17.7316   19.8091   24.6686 H   0  0  0  0  0  0  0  0  0  0  0  0
   19.6960   20.7264   24.3403 C   0  0  0  0  0  0  0  0  0  0  0  0
   20.1015   21.7473   24.3121 H   0  0  0  0  0  0  0  0  0  0  0  0
   20.1530   20.2358   25.2108 H   0  0  0  0  0  0  0  0  0  0  0  0
   20.1172   19.9919   23.0450 C   0  0  0  0  0  0  0  0  0  0  0  0
   21.2015   20.1115   22.9255 H   0  0  0  0  0  0  0  0  0  0  0  0
   19.6514   20.4781   22.1772 H   0  0  0  0  0  0  0  0  0  0  0  0
   19.7663   18.4837   23.0508 C   0  0  0  0  0  0  0  0  0  0  0  0
   20.2324   17.9975   23.9177 H   0  0  0  0  0  0  0  0  0  0  0  0
   18.6835   18.3611   23.1788 H   0  0  0  0  0  0  0  0  0  0  0  0
   20.1746   17.7485   21.7488 C   0  0  0  0  0  0  0  0  0  0  0  0
   19.6313   18.1935   20.9042 H   0  0  0  0  0  0  0  0  0  0  0  0
   19.8328   16.7066   21.8129 H   0  0  0  0  0  0  0  0  0  0  0  0
   21.6897   17.7555   21.4262 C   0  0  0  0  0  0  0  0  0  0  0  0
   21.8483   17.2108   20.4853 H   0  0  0  0  0  0  0  0  0  0  0  0
   22.0343   18.7816   21.2425 H   0  0  0  0  0  0  0  0  0  0  0  0
   22.5537   17.1047   22.5279 C   0  0  0  0  0  0  0  0  0  0  0  0
   22.2109   16.0848   22.7451 H   0  0  0  0  0  0  0  0  0  0  0  0
   23.6030   17.0491   22.2106 H   0  0  0  0  0  0  0  0  0  0  0  0
   22.5180   17.6863   23.4577 H   0  0  0  0  0  0  0  0  0  0  0  0
  1  2  1  0  0  0  0
  1  3  2  0  0  0  0
  1  4  1  0  0  0  0
  4  5  1  0  0  0  0
  4  6  1  0  0  0  0
  4  7  1  0  0  0  0
  7  8  1  0  0  0  0
  7  9  1  0  0  0  0
  7 10  1  0  0  0  0
 10 11  1  0  0  0  0
 10 12  1  0  0  0  0
 10 13  1  0  0  0  0
 13 14  1  0  0  0  0
 13 15  1  0  0  0  0
 13 16  1  0  0  0  0
 16 17  1  0  0  0  0
 16 18  1  0  0  0  0
 16 19  1  0  0  0  0
 19 20  1  0  0  0  0
 19 21  1  0  0  0  0
 19 22  1  0  0  0  0
 22 23  1  0  0  0  0
 22 24  1  0  0  0  0
 22 25  1  0  0  0  0
M  END
> <VConfSearch Rank>
946

> <Conf_Id>
75

> <Delta U+W>
1.014

> <U+W>
-50.615

> <U>
8.474

> <W>
-59.089

> <W(PB)>
-61.530

> <W(SA)>
2.441

> <Valence>
9.080

> <Coulomb>
-1.772

> <VdW>
1.165

> <VdW6>
-9.830

> <VdW12>
10.996

> <Bond>
0.240

> <Angle>
3.225

> <Pdih>
5.615

> <Idih>
0.001

> <Tether>
0.000

$$$$
VeraChem MOL file


 25 24  0  0  0  0  0  0  0  0999 V2000     
   22.8282   20.8551   26.0438 C   0  0  0  0  0  0  0  0  0  0  0  0
   22.3362   20.7920   27.1531 O   0  5  0  0  0  0  0  0  0  0  0  0
   24.0255   20.8927   25.8393 O   0  0  0  0  0  0  0  0  0  0  0  0
   21.8919   20.8663   24.8407 C   0  0  0  0  0  0  0  0  0  0  0  0
   22.3599   21.4654   24.0503 H   0  0  0  0  0  0  0  0  0  0  0  0
   20.9680   21.3797   25.1328 H   0  0  0  0  0  0  0  0  0  0  0  0
   21.5707   19.4455   24.3153 C   0  0  0  0  0  0  0  0  0  0  0  0
   22.5066   18.9402   24.0392 H   0  0  0  0  0  0  0  0  0  0  0  0
   21.1150   18.8548   25.1221 H   0  0  0  0  0  0  0  0  0  0  0  0
   20.6204   19.4835   23.0989 C   0  0  0  0  0  0  0  0  0  0  0  0
   21.0796   20.0752   22.2953 H   0  0  0  0  0  0  0  0  0  0  0  0
   19.6939   19.9990   23.3787 H   0  0  0  0  0  0  0  0  0  0  0  0
   20.3074   18.0624   22.5742 C   0  0  0  0  0  0  0  0  0  0  0  0
   21.2542   17.5921   22.2755 H   0  0  0  0  0  0  0  0  0  0  0  0
   19.8967   17.4389   23.3800 H   0  0  0  0  0  0  0  0  0  0  0  0
   19.3493   18.0546   21.3558 C   0  0  0  0  0  0  0  0  0  0  0  0
   19.6603   17.2442   20.6824 H   0  0  0  0  0  0  0  0  0  0  0  0
   19.4605   18.9820   20.7775 H   0  0  0  0  0  0  0  0  0  0  0  0
   17.8588   17.8219   21.7067 C   0  0  0  0  0  0  0  0  0  0  0  0
   17.2871   17.7538   20.7709 H   0  0  0  0  0  0  0  0  0  0  0  0
   17.7458   16.8502   22.2069 H   0  0  0  0  0  0  0  0  0  0  0  0
   17.2364   18.9258   22.5867 C   0  0  0  0  0  0  0  0  0  0  0  0
   17.3926   19.9180   22.1437 H   0  0  0  0  0  0  0  0  0  0  0  0
   16.1553   18.7684   22.6925 H   0  0  0  0  0  0  0  0  0  0  0  0
   17.6710   18.9205   23.5940 H   0  0  0  0  0  0  0  0  0  0  0  0
  1  2  1  0  0  0  0
  1  3  2  0  0  0  0
  1  4  1  0  0  0  0
  4  5  1  0  0  0  0
  4  6  1  0  0  0  0
  4  7  1  0  0  0  0
  7  8  1  0  0  0  0
  7  9  1  0  0  0  0
  7 10  1  0  0  0  0
 10 11  1  0  0  0  0
 10 12  1  0  0  0  0
 10 13  1  0  0  0  0
 13 14  1  0  0  0  0
 13 15  1  0  0  0  0
 13 16  1  0  0  0  0
 16 17  1  0  0  0  0
 16 18  1  0  0  0  0
 16 19  1  0  0  0  0
 19 20  1  0  0  0  0
 19 21  1  0  0  0  0
 19 22  1  0  0  0  0
 22 23  1  0  0  0  0
 22 24  1  0  0  0  0
 22 25  1  0  0  0  0
M  END
> <VConfSearch Rank>
947

> <Conf_Id>
125

> <Delta U+W>
2.314

> <U+W>
-49.315

> <U>
9.740

> <W>
-59.054

> <W(PB)>
-61.488

> <W(SA)>
2.433

> <Valence>
10.506

> <Coulomb>
-1.761

> <VdW>
0.994

> <VdW6>
-9.209

> <VdW12>
10.203

> <Bond>
0.193

> <Angle>
2.979

> <Pdih>
7.334

> <Idih>
0.001

> <Tether>
0.000

$$$$
VeraChem MOL file


 25 24  0  0  0  0  0  0  0  0999 V2000     
   20.6677   17.2327   26.8712 C   0  0  0  0  0  0  0  0  0  0  0  0
   21.8553   16.9795   26.9173 O   0  5  0  0  0  0  0  0  0  0  0  0
   19.8614   16.8300   27.6863 O   0  0  0  0  0  0  0  0  0  0  0  0
   20.1570   18.0826   25.7132 C   0  0  0  0  0  0  0  0  0  0  0  0
   20.9457   18.7969   25.4516 H   0  0  0  0  0  0  0  0  0  0  0  0
   19.2974   18.6623   26.0700 H   0  0  0  0  0  0  0  0  0  0  0  0
   19.7553   17.2343   24.4785 C   0  0  0  0  0  0  0  0  0  0  0  0
   20.6354   16.6948   24.1020 H   0  0  0  0  0  0  0  0  0  0  0  0
   19.0347   16.4682   24.7966 H   0  0  0  0  0  0  0  0  0  0  0  0
   19.1233   18.0653   23.3365 C   0  0  0  0  0  0  0  0  0  0  0  0
   18.2382   18.5958   23.7136 H   0  0  0  0  0  0  0  0  0  0  0  0
   18.7647   17.3746   22.5611 H   0  0  0  0  0  0  0  0  0  0  0  0
   20.1028   19.0763   22.6965 C   0  0  0  0  0  0  0  0  0  0  0  0
   20.4141   19.8121   23.4478 H   0  0  0  0  0  0  0  0  0  0  0  0
   21.0084   18.5503   22.3650 H   0  0  0  0  0  0  0  0  0  0  0  0
   19.4615   19.8076   21.4944 C   0  0  0  0  0  0  0  0  0  0  0  0
   18.5820   20.3729   21.8318 H   0  0  0  0  0  0  0  0  0  0  0  0
   19.0951   19.0618   20.7758 H   0  0  0  0  0  0  0  0  0  0  0  0
   20.4367   20.7575   20.7606 C   0  0  0  0  0  0  0  0  0  0  0  0
   21.3153   20.1941   20.4169 H   0  0  0  0  0  0  0  0  0  0  0  0
   19.9420   21.1414   19.8577 H   0  0  0  0  0  0  0  0  0  0  0  0
   20.8920   21.9538   21.6243 C   0  0  0  0  0  0  0  0  0  0  0  0
   21.4944   21.6243   22.4799 H   0  0  0  0  0  0  0  0  0  0  0  0
   21.5070   22.6431   21.0314 H   0  0  0  0  0  0  0  0  0  0  0  0
   20.0286   22.5142   22.0058 H   0  0  0  0  0  0  0  0  0  0  0  0
  1  2  1  0  0  0  0
  1  3  2  0  0  0  0
  1  4  1  0  0  0  0
  4  5  1  0  0  0  0
  4  6  1  0  0  0  0
  4  7  1  0  0  0  0
  7  8  1  0  0  0  0
  7  9  1  0  0  0  0
  7 10  1  0  0  0  0
 10 11  1  0  0  0  0
 10 12  1  0  0  0  0
 10 13  1  0  0  0  0
 13 14  1  0  0  0  0
 13 15  1  0  0  0  0
 13 16  1  0  0  0  0
 16 17  1  0  0  0  0
 16 18  1  0  0  0  0
 16 19  1  0  0  0  0
 19 20  1  0  0  0  0
 19 21  1  0  0  0  0
 19 22  1  0  0  0  0
 22 23  1  0  0  0  0
 22 24  1  0  0  0  0
 22 25  1  0  0  0  0
M  END
> <VConfSearch Rank>
948

> <Conf_Id>
4

> <Delta U+W>
0.189

> <U+W>
-51.441

> <U>
7.701

> <W>
-59.141

> <W(PB)>
-61.609

> <W(SA)>
2.467

> <Valence>
8.550

> <Coulomb>
-1.988

> <VdW>
1.139

> <VdW6>
-8.988

> <VdW12>
10.127

> <Bond>
0.191

> <Angle>
2.738

> <Pdih>
5.621

> <Idih>
0.001

> <Tether>
0.000

$$$$
VeraChem MOL file


 25 24  0  0  0  0  0  0  0  0999 V2000     
   22.3812   19.7099   19.9860 C   0  0  0  0  0  0  0  0  0  0  0  0
   21.6088   19.9320   19.0746 O   0  5  0  0  0  0  0  0  0  0  0  0
   23.5891   19.7903   19.8794 O   0  0  0  0  0  0  0  0  0  0  0  0
   21.8023   19.3324   21.3448 C   0  0  0  0  0  0  0  0  0  0  0  0
   22.5125   18.6614   21.8426 H   0  0  0  0  0  0  0  0  0  0  0  0
   20.8838   18.7615   21.1682 H   0  0  0  0  0  0  0  0  0  0  0  0
   21.5159   20.5671   22.2385 C   0  0  0  0  0  0  0  0  0  0  0  0
   22.4338   21.1662   22.3165 H   0  0  0  0  0  0  0  0  0  0  0  0
   20.7682   21.2076   21.7506 H   0  0  0  0  0  0  0  0  0  0  0  0
   21.0404   20.2013   23.6647 C   0  0  0  0  0  0  0  0  0  0  0  0
   20.9768   21.1240   24.2576 H   0  0  0  0  0  0  0  0  0  0  0  0
   21.7945   19.5692   24.1534 H   0  0  0  0  0  0  0  0  0  0  0  0
   19.6678   19.4897   23.6919 C   0  0  0  0  0  0  0  0  0  0  0  0
   18.9268   20.1011   23.1593 H   0  0  0  0  0  0  0  0  0  0  0  0
   19.7392   18.5334   23.1599 H   0  0  0  0  0  0  0  0  0  0  0  0
   19.1851   19.2386   25.1394 C   0  0  0  0  0  0  0  0  0  0  0  0
   19.1770   20.1924   25.6845 H   0  0  0  0  0  0  0  0  0  0  0  0
   19.9012   18.5886   25.6606 H   0  0  0  0  0  0  0  0  0  0  0  0
   17.7710   18.6175   25.2175 C   0  0  0  0  0  0  0  0  0  0  0  0
   17.4589   18.5834   26.2704 H   0  0  0  0  0  0  0  0  0  0  0  0
   17.0511   19.2678   24.7016 H   0  0  0  0  0  0  0  0  0  0  0  0
   17.6958   17.1911   24.6306 C   0  0  0  0  0  0  0  0  0  0  0  0
   18.4296   16.5299   25.1097 H   0  0  0  0  0  0  0  0  0  0  0  0
   16.6984   16.7620   24.7918 H   0  0  0  0  0  0  0  0  0  0  0  0
   17.8859   17.1916   23.5501 H   0  0  0  0  0  0  0  0  0  0  0  0
  1  2  1  0  0  0  0
  1  3  2  0  0  0  0
  1  4  1  0  0  0  0
  4  5  1  0  0  0  0
  4  6  1  0  0  0  0
  4  7  1  0  0  0  0
  7  8  1  0  0  0  0
  7  9  1  0  0  0  0
  7 10  1  0  0  0  0
 10 11  1  0  0  0  0
 10 12  1  0  0  0  0
 10 13  1  0  0  0  0
 13 14  1  0  0  0  0
 13 15  1  0  0  0  0
 13 16  1  0  0  0  0
 16 17  1  0  0  0  0
 16 18  1  0  0  0  0
 16 19  1  0  0  0  0
 19 20  1  0  0  0  0
 19 21  1  0  0  0  0
 19 22  1  0  0  0  0
 22 23  1  0  0  0  0
 22 24  1  0  0  0  0
 22 25  1  0  0  0  0
M  END
> <VConfSearch Rank>
949

> <Conf_Id>
17

> <Delta U+W>
0.219

> <U+W>
-51.411

> <U>
7.701

> <W>
-59.111

> <W(PB)>
-61.599

> <W(SA)>
2.488

> <Valence>
8.550

> <Coulomb>
-1.988

> <VdW>
1.139

> <VdW6>
-8.988

> <VdW12>
10.127

> <Bond>
0.191

> <Angle>
2.738

> <Pdih>
5.621

> <Idih>
0.001

> <Tether>
0.000

$$$$
VeraChem MOL file


 25 24  0  0  0  0  0  0  0  0999 V2000     
   22.8703   21.4298   24.6651 C   0  0  0  0  0  0  0  0  0  0  0  0
   23.1953   22.2492   23.8284 O   0  5  0  0  0  0  0  0  0  0  0  0
   23.5943   20.5294   25.0419 O   0  0  0  0  0  0  0  0  0  0  0  0
   21.4842   21.5479   25.2926 C   0  0  0  0  0  0  0  0  0  0  0  0
   21.1136   22.5677   25.1333 H   0  0  0  0  0  0  0  0  0  0  0  0
   21.6015   21.4184   26.3749 H   0  0  0  0  0  0  0  0  0  0  0  0
   20.4603   20.5146   24.7551 C   0  0  0  0  0  0  0  0  0  0  0  0
   20.8615   19.5041   24.9081 H   0  0  0  0  0  0  0  0  0  0  0  0
   19.5385   20.5840   25.3481 H   0  0  0  0  0  0  0  0  0  0  0  0
   20.1244   20.7365   23.2608 C   0  0  0  0  0  0  0  0  0  0  0  0
   21.0279   20.5992   22.6508 H   0  0  0  0  0  0  0  0  0  0  0  0
   19.8098   21.7791   23.1166 H   0  0  0  0  0  0  0  0  0  0  0  0
   19.0031   19.8080   22.7369 C   0  0  0  0  0  0  0  0  0  0  0  0
   18.0958   19.9500   23.3398 H   0  0  0  0  0  0  0  0  0  0  0  0
   18.7474   20.1151   21.7136 H   0  0  0  0  0  0  0  0  0  0  0  0
   19.3955   18.3123   22.7291 C   0  0  0  0  0  0  0  0  0  0  0  0
   19.5816   17.9683   23.7547 H   0  0  0  0  0  0  0  0  0  0  0  0
   20.3331   18.1818   22.1715 H   0  0  0  0  0  0  0  0  0  0  0  0
   18.2935   17.4370   22.0958 C   0  0  0  0  0  0  0  0  0  0  0  0
   17.3536   17.5667   22.6502 H   0  0  0  0  0  0  0  0  0  0  0  0
   18.1043   17.7669   21.0649 H   0  0  0  0  0  0  0  0  0  0  0  0
   18.6846   15.9454   22.0920 C   0  0  0  0  0  0  0  0  0  0  0  0
   18.8486   15.5798   23.1142 H   0  0  0  0  0  0  0  0  0  0  0  0
   17.8905   15.3383   21.6383 H   0  0  0  0  0  0  0  0  0  0  0  0
   19.6060   15.7825   21.5177 H   0  0  0  0  0  0  0  0  0  0  0  0
  1  2  1  0  0  0  0
  1  3  2  0  0  0  0
  1  4  1  0  0  0  0
  4  5  1  0  0  0  0
  4  6  1  0  0  0  0
  4  7  1  0  0  0  0
  7  8  1  0  0  0  0
  7  9  1  0  0  0  0
  7 10  1  0  0  0  0
 10 11  1  0  0  0  0
 10 12  1  0  0  0  0
 10 13  1  0  0  0  0
 13 14  1  0  0  0  0
 13 15  1  0  0  0  0
 13 16  1  0  0  0  0
 16 17  1  0  0  0  0
 16 18  1  0  0  0  0
 16 19  1  0  0  0  0
 19 20  1  0  0  0  0
 19 21  1  0  0  0  0
 19 22  1  0  0  0  0
 22 23  1  0  0  0  0
 22 24  1  0  0  0  0
 22 25  1  0  0  0  0
M  END
> <VConfSearch Rank>
950

> <Conf_Id>
142

> <Delta U+W>
0.593

> <U+W>
-51.037

> <U>
8.903

> <W>
-59.940

> <W(PB)>
-62.418

> <W(SA)>
2.478

> <Valence>
8.305

> <Coulomb>
-0.223

> <VdW>
0.821

> <VdW6>
-9.236

> <VdW12>
10.057

> <Bond>
0.173

> <Angle>
2.663

> <Pdih>
5.469

> <Idih>
0.001

> <Tether>
0.000

$$$$
VeraChem MOL file


 25 24  0  0  0  0  0  0  0  0999 V2000     
   20.5710   20.7791   20.2986 C   0  0  0  0  0  0  0  0  0  0  0  0
   21.4340   21.2926   19.6137 O   0  5  0  0  0  0  0  0  0  0  0  0
   19.7099   20.0448   19.8555 O   0  0  0  0  0  0  0  0  0  0  0  0
   20.5539   21.0977   21.7909 C   0  0  0  0  0  0  0  0  0  0  0  0
   19.5836   20.7981   22.2031 H   0  0  0  0  0  0  0  0  0  0  0  0
   20.6114   22.1876   21.8926 H   0  0  0  0  0  0  0  0  0  0  0  0
   21.7132   20.4445   22.5919 C   0  0  0  0  0  0  0  0  0  0  0  0
   22.6680   20.8189   22.1977 H   0  0  0  0  0  0  0  0  0  0  0  0
   21.6664   20.7813   23.6355 H   0  0  0  0  0  0  0  0  0  0  0  0
   21.7314   18.8946   22.5439 C   0  0  0  0  0  0  0  0  0  0  0  0
   22.5864   18.5337   23.1315 H   0  0  0  0  0  0  0  0  0  0  0  0
   21.9177   18.5711   21.5107 H   0  0  0  0  0  0  0  0  0  0  0  0
   20.4433   18.2014   23.0546 C   0  0  0  0  0  0  0  0  0  0  0  0
   19.5960   18.4644   22.4073 H   0  0  0  0  0  0  0  0  0  0  0  0
   20.5739   17.1152   22.9559 H   0  0  0  0  0  0  0  0  0  0  0  0
   20.1034   18.5350   24.5256 C   0  0  0  0  0  0  0  0  0  0  0  0
   19.8984   19.6087   24.6270 H   0  0  0  0  0  0  0  0  0  0  0  0
   20.9699   18.3113   25.1626 H   0  0  0  0  0  0  0  0  0  0  0  0
   18.8783   17.7389   25.0225 C   0  0  0  0  0  0  0  0  0  0  0  0
   18.0109   17.9593   24.3850 H   0  0  0  0  0  0  0  0  0  0  0  0
   19.0749   16.6616   24.9331 H   0  0  0  0  0  0  0  0  0  0  0  0
   18.5368   18.0773   26.4877 C   0  0  0  0  0  0  0  0  0  0  0  0
   18.3041   19.1443   26.6003 H   0  0  0  0  0  0  0  0  0  0  0  0
   17.6642   17.5026   26.8242 H   0  0  0  0  0  0  0  0  0  0  0  0
   19.3774   17.8377   27.1521 H   0  0  0  0  0  0  0  0  0  0  0  0
  1  2  1  0  0  0  0
  1  3  2  0  0  0  0
  1  4  1  0  0  0  0
  4  5  1  0  0  0  0
  4  6  1  0  0  0  0
  4  7  1  0  0  0  0
  7  8  1  0  0  0  0
  7  9  1  0  0  0  0
  7 10  1  0  0  0  0
 10 11  1  0  0  0  0
 10 12  1  0  0  0  0
 10 13  1  0  0  0  0
 13 14  1  0  0  0  0
 13 15  1  0  0  0  0
 13 16  1  0  0  0  0
 16 17  1  0  0  0  0
 16 18  1  0  0  0  0
 16 19  1  0  0  0  0
 19 20  1  0  0  0  0
 19 21  1  0  0  0  0
 19 22  1  0  0  0  0
 22 23  1  0  0  0  0
 22 24  1  0  0  0  0
 22 25  1  0  0  0  0
M  END
> <VConfSearch Rank>
951

> <Conf_Id>
135

> <Delta U+W>
1.314

> <U+W>
-50.316

> <U>
9.773

> <W>
-60.088

> <W(PB)>
-62.535

> <W(SA)>
2.447

> <Valence>
8.741

> <Coulomb>
0.479

> <VdW>
0.552

> <VdW6>
-10.627

> <VdW12>
11.179

> <Bond>
0.227

> <Angle>
3.155

> <Pdih>
5.358

> <Idih>
0.001

> <Tether>
0.000

$$$$
VeraChem MOL file


 25 24  0  0  0  0  0  0  0  0999 V2000     
   22.2440   19.9698   19.7184 C   0  0  0  0  0  0  0  0  0  0  0  0
   23.1695   20.7424   19.8708 O   0  5  0  0  0  0  0  0  0  0  0  0
   22.1518   19.2075   18.7765 O   0  0  0  0  0  0  0  0  0  0  0  0
   21.1494   19.9390   20.7791 C   0  0  0  0  0  0  0  0  0  0  0  0
   20.2059   19.6763   20.2861 H   0  0  0  0  0  0  0  0  0  0  0  0
   21.0392   20.9557   21.1721 H   0  0  0  0  0  0  0  0  0  0  0  0
   21.4523   18.9368   21.9235 C   0  0  0  0  0  0  0  0  0  0  0  0
   21.6525   17.9509   21.4814 H   0  0  0  0  0  0  0  0  0  0  0  0
   22.3737   19.2366   22.4416 H   0  0  0  0  0  0  0  0  0  0  0  0
   20.2992   18.7938   22.9457 C   0  0  0  0  0  0  0  0  0  0  0  0
   20.5444   17.9594   23.6147 H   0  0  0  0  0  0  0  0  0  0  0  0
   19.3734   18.5187   22.4225 H   0  0  0  0  0  0  0  0  0  0  0  0
   20.0654   20.0668   23.7937 C   0  0  0  0  0  0  0  0  0  0  0  0
   20.9777   20.3007   24.3590 H   0  0  0  0  0  0  0  0  0  0  0  0
   19.8859   20.9220   23.1304 H   0  0  0  0  0  0  0  0  0  0  0  0
   18.8664   19.9676   24.7705 C   0  0  0  0  0  0  0  0  0  0  0  0
   17.9335   19.8271   24.2077 H   0  0  0  0  0  0  0  0  0  0  0  0
   18.7680   20.9402   25.2718 H   0  0  0  0  0  0  0  0  0  0  0  0
   19.0051   18.8759   25.8610 C   0  0  0  0  0  0  0  0  0  0  0  0
   20.0654   18.6744   26.0665 H   0  0  0  0  0  0  0  0  0  0  0  0
   18.5803   19.2597   26.7989 H   0  0  0  0  0  0  0  0  0  0  0  0
   18.2693   17.5648   25.5049 C   0  0  0  0  0  0  0  0  0  0  0  0
   18.6515   17.1207   24.5788 H   0  0  0  0  0  0  0  0  0  0  0  0
   18.3918   16.8256   26.3071 H   0  0  0  0  0  0  0  0  0  0  0  0
   17.1940   17.7440   25.3752 H   0  0  0  0  0  0  0  0  0  0  0  0
  1  2  1  0  0  0  0
  1  3  2  0  0  0  0
  1  4  1  0  0  0  0
  4  5  1  0  0  0  0
  4  6  1  0  0  0  0
  4  7  1  0  0  0  0
  7  8  1  0  0  0  0
  7  9  1  0  0  0  0
  7 10  1  0  0  0  0
 10 11  1  0  0  0  0
 10 12  1  0  0  0  0
 10 13  1  0  0  0  0
 13 14  1  0  0  0  0
 13 15  1  0  0  0  0
 13 16  1  0  0  0  0
 16 17  1  0  0  0  0
 16 18  1  0  0  0  0
 16 19  1  0  0  0  0
 19 20  1  0  0  0  0
 19 21  1  0  0  0  0
 19 22  1  0  0  0  0
 22 23  1  0  0  0  0
 22 24  1  0  0  0  0
 22 25  1  0  0  0  0
M  END
> <VConfSearch Rank>
952

> <Conf_Id>
19

> <Delta U+W>
3.222

> <U+W>
-48.407

> <U>
10.617

> <W>
-59.025

> <W(PB)>
-61.462

> <W(SA)>
2.437

> <Valence>
11.188

> <Coulomb>
-1.778

> <VdW>
1.208

> <VdW6>
-9.786

> <VdW12>
10.993

> <Bond>
0.241

> <Angle>
3.294

> <Pdih>
7.653

> <Idih>
0.001

> <Tether>
0.000

$$$$
VeraChem MOL file


 25 24  0  0  0  0  0  0  0  0999 V2000     
   17.1251   21.5583   21.4243 C   0  0  0  0  0  0  0  0  0  0  0  0
   17.5265   22.1829   20.4623 O   0  5  0  0  0  0  0  0  0  0  0  0
   16.1140   21.8411   22.0362 O   0  0  0  0  0  0  0  0  0  0  0  0
   17.9478   20.3679   21.9045 C   0  0  0  0  0  0  0  0  0  0  0  0
   18.4087   19.9063   21.0244 H   0  0  0  0  0  0  0  0  0  0  0  0
   17.2596   19.6314   22.3360 H   0  0  0  0  0  0  0  0  0  0  0  0
   19.0267   20.7662   22.9452 C   0  0  0  0  0  0  0  0  0  0  0  0
   19.7387   21.4672   22.4880 H   0  0  0  0  0  0  0  0  0  0  0  0
   18.5381   21.3116   23.7645 H   0  0  0  0  0  0  0  0  0  0  0  0
   19.7896   19.5594   23.5423 C   0  0  0  0  0  0  0  0  0  0  0  0
   19.0741   18.8479   23.9764 H   0  0  0  0  0  0  0  0  0  0  0  0
   20.4094   19.9289   24.3689 H   0  0  0  0  0  0  0  0  0  0  0  0
   20.6959   18.8349   22.5185 C   0  0  0  0  0  0  0  0  0  0  0  0
   20.0963   18.5205   21.6553 H   0  0  0  0  0  0  0  0  0  0  0  0
   21.4458   19.5391   22.1335 H   0  0  0  0  0  0  0  0  0  0  0  0
   21.4099   17.5792   23.0796 C   0  0  0  0  0  0  0  0  0  0  0  0
   21.9746   17.1244   22.2543 H   0  0  0  0  0  0  0  0  0  0  0  0
   20.6674   16.8279   23.3817 H   0  0  0  0  0  0  0  0  0  0  0  0
   22.3958   17.8570   24.2419 C   0  0  0  0  0  0  0  0  0  0  0  0
   23.2673   17.1974   24.1291 H   0  0  0  0  0  0  0  0  0  0  0  0
   22.7807   18.8841   24.1785 H   0  0  0  0  0  0  0  0  0  0  0  0
   21.7799   17.6002   25.6354 C   0  0  0  0  0  0  0  0  0  0  0  0
   21.4640   16.5536   25.7353 H   0  0  0  0  0  0  0  0  0  0  0  0
   22.5152   17.8054   26.4241 H   0  0  0  0  0  0  0  0  0  0  0  0
   20.9057   18.2354   25.8187 H   0  0  0  0  0  0  0  0  0  0  0  0
  1  2  1  0  0  0  0
  1  3  2  0  0  0  0
  1  4  1  0  0  0  0
  4  5  1  0  0  0  0
  4  6  1  0  0  0  0
  4  7  1  0  0  0  0
  7  8  1  0  0  0  0
  7  9  1  0  0  0  0
  7 10  1  0  0  0  0
 10 11  1  0  0  0  0
 10 12  1  0  0  0  0
 10 13  1  0  0  0  0
 13 14  1  0  0  0  0
 13 15  1  0  0  0  0
 13 16  1  0  0  0  0
 16 17  1  0  0  0  0
 16 18  1  0  0  0  0
 16 19  1  0  0  0  0
 19 20  1  0  0  0  0
 19 21  1  0  0  0  0
 19 22  1  0  0  0  0
 22 23  1  0  0  0  0
 22 24  1  0  0  0  0
 22 25  1  0  0  0  0
M  END
> <VConfSearch Rank>
953

> <Conf_Id>
20

> <Delta U+W>
3.224

> <U+W>
-48.406

> <U>
10.617

> <W>
-59.023

> <W(PB)>
-61.467

> <W(SA)>
2.444

> <Valence>
11.188

> <Coulomb>
-1.778

> <VdW>
1.208

> <VdW6>
-9.786

> <VdW12>
10.993

> <Bond>
0.241

> <Angle>
3.294

> <Pdih>
7.653

> <Idih>
0.001

> <Tether>
0.000

$$$$
VeraChem MOL file


 25 24  0  0  0  0  0  0  0  0999 V2000     
   21.3030   16.4068   23.7999 C   0  0  0  0  0  0  0  0  0  0  0  0
   22.3346   16.5893   24.4166 O   0  5  0  0  0  0  0  0  0  0  0  0
   21.2592   16.2620   22.5940 O   0  0  0  0  0  0  0  0  0  0  0  0
   19.9994   16.2867   24.5871 C   0  0  0  0  0  0  0  0  0  0  0  0
   20.1053   15.4018   25.2252 H   0  0  0  0  0  0  0  0  0  0  0  0
   19.1801   16.0744   23.8896 H   0  0  0  0  0  0  0  0  0  0  0  0
   19.6460   17.5122   25.4761 C   0  0  0  0  0  0  0  0  0  0  0  0
   18.9319   17.1807   26.2420 H   0  0  0  0  0  0  0  0  0  0  0  0
   20.5386   17.8492   26.0213 H   0  0  0  0  0  0  0  0  0  0  0  0
   19.0062   18.7018   24.7181 C   0  0  0  0  0  0  0  0  0  0  0  0
   18.6640   19.4358   25.4605 H   0  0  0  0  0  0  0  0  0  0  0  0
   18.1083   18.3606   24.1851 H   0  0  0  0  0  0  0  0  0  0  0  0
   19.9618   19.4055   23.7281 C   0  0  0  0  0  0  0  0  0  0  0  0
   20.9033   19.6535   24.2372 H   0  0  0  0  0  0  0  0  0  0  0  0
   20.2114   18.7255   22.9038 H   0  0  0  0  0  0  0  0  0  0  0  0
   19.3349   20.6904   23.1445 C   0  0  0  0  0  0  0  0  0  0  0  0
   19.0883   21.3831   23.9607 H   0  0  0  0  0  0  0  0  0  0  0  0
   18.3913   20.4411   22.6400 H   0  0  0  0  0  0  0  0  0  0  0  0
   20.2838   21.3876   22.1471 C   0  0  0  0  0  0  0  0  0  0  0  0
   21.2285   21.6391   22.6489 H   0  0  0  0  0  0  0  0  0  0  0  0
   20.5314   20.6981   21.3280 H   0  0  0  0  0  0  0  0  0  0  0  0
   19.6549   22.6699   21.5656 C   0  0  0  0  0  0  0  0  0  0  0  0
   19.4260   23.3908   22.3614 H   0  0  0  0  0  0  0  0  0  0  0  0
   20.3429   23.1521   20.8590 H   0  0  0  0  0  0  0  0  0  0  0  0
   18.7236   22.4427   21.0304 H   0  0  0  0  0  0  0  0  0  0  0  0
  1  2  1  0  0  0  0
  1  3  2  0  0  0  0
  1  4  1  0  0  0  0
  4  5  1  0  0  0  0
  4  6  1  0  0  0  0
  4  7  1  0  0  0  0
  7  8  1  0  0  0  0
  7  9  1  0  0  0  0
  7 10  1  0  0  0  0
 10 11  1  0  0  0  0
 10 12  1  0  0  0  0
 10 13  1  0  0  0  0
 13 14  1  0  0  0  0
 13 15  1  0  0  0  0
 13 16  1  0  0  0  0
 16 17  1  0  0  0  0
 16 18  1  0  0  0  0
 16 19  1  0  0  0  0
 19 20  1  0  0  0  0
 19 21  1  0  0  0  0
 19 22  1  0  0  0  0
 22 23  1  0  0  0  0
 22 24  1  0  0  0  0
 22 25  1  0  0  0  0
M  END
> <VConfSearch Rank>
954

> <Conf_Id>
24

> <Delta U+W>
1.784

> <U+W>
-49.846

> <U>
10.904

> <W>
-60.749

> <W(PB)>
-63.220

> <W(SA)>
2.471

> <Valence>
9.445

> <Coulomb>
0.780

> <VdW>
0.679

> <VdW6>
-10.008

> <VdW12>
10.687

> <Bond>
0.201

> <Angle>
3.198

> <Pdih>
6.039

> <Idih>
0.006

> <Tether>
0.000

$$$$
VeraChem MOL file


 25 24  0  0  0  0  0  0  0  0999 V2000     
   19.5338   22.1376   23.6671 C   0  0  0  0  0  0  0  0  0  0  0  0
   20.4593   22.6463   24.2689 O   0  5  0  0  0  0  0  0  0  0  0  0
   19.4195   22.1740   22.4576 O   0  0  0  0  0  0  0  0  0  0  0  0
   18.4202   21.4746   24.4756 C   0  0  0  0  0  0  0  0  0  0  0  0
   17.6455   21.1152   23.7875 H   0  0  0  0  0  0  0  0  0  0  0  0
   17.9619   22.2683   25.0769 H   0  0  0  0  0  0  0  0  0  0  0  0
   18.8783   20.3263   25.4183 C   0  0  0  0  0  0  0  0  0  0  0  0
   19.7881   20.6248   25.9574 H   0  0  0  0  0  0  0  0  0  0  0  0
   18.1045   20.1884   26.1855 H   0  0  0  0  0  0  0  0  0  0  0  0
   19.0985   18.9614   24.7200 C   0  0  0  0  0  0  0  0  0  0  0  0
   18.1817   18.6634   24.1932 H   0  0  0  0  0  0  0  0  0  0  0  0
   19.2681   18.2034   25.4969 H   0  0  0  0  0  0  0  0  0  0  0  0
   20.2916   18.9412   23.7377 C   0  0  0  0  0  0  0  0  0  0  0  0
   20.0817   19.5964   22.8830 H   0  0  0  0  0  0  0  0  0  0  0  0
   21.1864   19.3386   24.2360 H   0  0  0  0  0  0  0  0  0  0  0  0
   20.5788   17.5161   23.2171 C   0  0  0  0  0  0  0  0  0  0  0  0
   19.6814   17.1185   22.7235 H   0  0  0  0  0  0  0  0  0  0  0  0
   20.7988   16.8522   24.0644 H   0  0  0  0  0  0  0  0  0  0  0  0
   21.7626   17.4966   22.2274 C   0  0  0  0  0  0  0  0  0  0  0  0
   21.5453   18.1584   21.3774 H   0  0  0  0  0  0  0  0  0  0  0  0
   22.6622   17.8931   22.7184 H   0  0  0  0  0  0  0  0  0  0  0  0
   22.0468   16.0725   21.7090 C   0  0  0  0  0  0  0  0  0  0  0  0
   21.1729   15.6635   21.1853 H   0  0  0  0  0  0  0  0  0  0  0  0
   22.8908   16.0776   21.0070 H   0  0  0  0  0  0  0  0  0  0  0  0
   22.2983   15.3961   22.5365 H   0  0  0  0  0  0  0  0  0  0  0  0
  1  2  1  0  0  0  0
  1  3  2  0  0  0  0
  1  4  1  0  0  0  0
  4  5  1  0  0  0  0
  4  6  1  0  0  0  0
  4  7  1  0  0  0  0
  7  8  1  0  0  0  0
  7  9  1  0  0  0  0
  7 10  1  0  0  0  0
 10 11  1  0  0  0  0
 10 12  1  0  0  0  0
 10 13  1  0  0  0  0
 13 14  1  0  0  0  0
 13 15  1  0  0  0  0
 13 16  1  0  0  0  0
 16 17  1  0  0  0  0
 16 18  1  0  0  0  0
 16 19  1  0  0  0  0
 19 20  1  0  0  0  0
 19 21  1  0  0  0  0
 19 22  1  0  0  0  0
 22 23  1  0  0  0  0
 22 24  1  0  0  0  0
 22 25  1  0  0  0  0
M  END
> <VConfSearch Rank>
955

> <Conf_Id>
9

> <Delta U+W>
1.764

> <U+W>
-49.865

> <U>
10.902

> <W>
-60.768

> <W(PB)>
-63.223

> <W(SA)>
2.456

> <Valence>
9.445

> <Coulomb>
0.778

> <VdW>
0.679

> <VdW6>
-10.007

> <VdW12>
10.687

> <Bond>
0.201

> <Angle>
3.198

> <Pdih>
6.040

> <Idih>
0.006

> <Tether>
0.000

$$$$
VeraChem MOL file


 25 24  0  0  0  0  0  0  0  0999 V2000     
   22.2307   16.6881   21.8051 C   0  0  0  0  0  0  0  0  0  0  0  0
   22.2686   17.3344   20.7768 O   0  5  0  0  0  0  0  0  0  0  0  0
   23.0135   15.7970   22.0696 O   0  0  0  0  0  0  0  0  0  0  0  0
   21.1540   17.0273   22.8295 C   0  0  0  0  0  0  0  0  0  0  0  0
   20.8725   16.1005   23.3434 H   0  0  0  0  0  0  0  0  0  0  0  0
   20.2696   17.3707   22.2841 H   0  0  0  0  0  0  0  0  0  0  0  0
   21.6216   18.0869   23.8622 C   0  0  0  0  0  0  0  0  0  0  0  0
   22.5032   17.6861   24.3813 H   0  0  0  0  0  0  0  0  0  0  0  0
   21.9588   18.9960   23.3453 H   0  0  0  0  0  0  0  0  0  0  0  0
   20.5429   18.4390   24.9180 C   0  0  0  0  0  0  0  0  0  0  0  0
   21.0501   18.6286   25.8738 H   0  0  0  0  0  0  0  0  0  0  0  0
   19.8863   17.5761   25.0950 H   0  0  0  0  0  0  0  0  0  0  0  0
   19.6967   19.6933   24.5842 C   0  0  0  0  0  0  0  0  0  0  0  0
   19.0295   19.8950   25.4332 H   0  0  0  0  0  0  0  0  0  0  0  0
   20.3624   20.5624   24.5008 H   0  0  0  0  0  0  0  0  0  0  0  0
   18.8467   19.5624   23.2983 C   0  0  0  0  0  0  0  0  0  0  0  0
   18.2997   18.6102   23.3243 H   0  0  0  0  0  0  0  0  0  0  0  0
   19.5048   19.5283   22.4203 H   0  0  0  0  0  0  0  0  0  0  0  0
   17.8276   20.7117   23.1191 C   0  0  0  0  0  0  0  0  0  0  0  0
   17.2012   20.4945   22.2430 H   0  0  0  0  0  0  0  0  0  0  0  0
   17.1505   20.7458   23.9837 H   0  0  0  0  0  0  0  0  0  0  0  0
   18.4931   22.0916   22.9261 C   0  0  0  0  0  0  0  0  0  0  0  0
   19.1944   22.0746   22.0816 H   0  0  0  0  0  0  0  0  0  0  0  0
   17.7351   22.8585   22.7209 H   0  0  0  0  0  0  0  0  0  0  0  0
   19.0431   22.3995   23.8243 H   0  0  0  0  0  0  0  0  0  0  0  0
  1  2  1  0  0  0  0
  1  3  2  0  0  0  0
  1  4  1  0  0  0  0
  4  5  1  0  0  0  0
  4  6  1  0  0  0  0
  4  7  1  0  0  0  0
  7  8  1  0  0  0  0
  7  9  1  0  0  0  0
  7 10  1  0  0  0  0
 10 11  1  0  0  0  0
 10 12  1  0  0  0  0
 10 13  1  0  0  0  0
 13 14  1  0  0  0  0
 13 15  1  0  0  0  0
 13 16  1  0  0  0  0
 16 17  1  0  0  0  0
 16 18  1  0  0  0  0
 16 19  1  0  0  0  0
 19 20  1  0  0  0  0
 19 21  1  0  0  0  0
 19 22  1  0  0  0  0
 22 23  1  0  0  0  0
 22 24  1  0  0  0  0
 22 25  1  0  0  0  0
M  END
> <VConfSearch Rank>
956

> <Conf_Id>
89

> <Delta U+W>
2.903

> <U+W>
-48.726

> <U>
10.996

> <W>
-59.723

> <W(PB)>
-62.151

> <W(SA)>
2.428

> <Valence>
10.985

> <Coulomb>
-0.995

> <VdW>
1.006

> <VdW6>
-10.062

> <VdW12>
11.069

> <Bond>
0.238

> <Angle>
3.202

> <Pdih>
7.544

> <Idih>
0.001

> <Tether>
0.000

$$$$
VeraChem MOL file


 25 24  0  0  0  0  0  0  0  0999 V2000     
   20.5297   18.2386   20.1305 C   0  0  0  0  0  0  0  0  0  0  0  0
   21.0660   19.2658   19.7641 O   0  5  0  0  0  0  0  0  0  0  0  0
   21.0801   17.1548   20.1218 O   0  0  0  0  0  0  0  0  0  0  0  0
   19.0663   18.3054   20.5634 C   0  0  0  0  0  0  0  0  0  0  0  0
   18.5033   17.7088   19.8363 H   0  0  0  0  0  0  0  0  0  0  0  0
   18.7113   19.3382   20.4635 H   0  0  0  0  0  0  0  0  0  0  0  0
   18.7715   17.7696   21.9930 C   0  0  0  0  0  0  0  0  0  0  0  0
   17.7055   17.5096   22.0429 H   0  0  0  0  0  0  0  0  0  0  0  0
   19.3187   16.8318   22.1627 H   0  0  0  0  0  0  0  0  0  0  0  0
   19.0650   18.7706   23.1384 C   0  0  0  0  0  0  0  0  0  0  0  0
   18.6601   18.3437   24.0643 H   0  0  0  0  0  0  0  0  0  0  0  0
   18.5148   19.7049   22.9624 H   0  0  0  0  0  0  0  0  0  0  0  0
   20.5689   19.0816   23.3333 C   0  0  0  0  0  0  0  0  0  0  0  0
   21.1322   18.1456   23.4488 H   0  0  0  0  0  0  0  0  0  0  0  0
   20.9568   19.5696   22.4310 H   0  0  0  0  0  0  0  0  0  0  0  0
   20.8566   20.0143   24.5344 C   0  0  0  0  0  0  0  0  0  0  0  0
   20.2678   20.9363   24.4343 H   0  0  0  0  0  0  0  0  0  0  0  0
   21.9125   20.3150   24.4930 H   0  0  0  0  0  0  0  0  0  0  0  0
   20.5786   19.3618   25.9079 C   0  0  0  0  0  0  0  0  0  0  0  0
   19.5112   19.1263   26.0081 H   0  0  0  0  0  0  0  0  0  0  0  0
   21.1252   18.4118   25.9841 H   0  0  0  0  0  0  0  0  0  0  0  0
   20.9971   20.2874   27.0682 C   0  0  0  0  0  0  0  0  0  0  0  0
   20.4453   21.2359   27.0320 H   0  0  0  0  0  0  0  0  0  0  0  0
   20.7908   19.8120   28.0359 H   0  0  0  0  0  0  0  0  0  0  0  0
   22.0706   20.5131   27.0238 H   0  0  0  0  0  0  0  0  0  0  0  0
  1  2  1  0  0  0  0
  1  3  2  0  0  0  0
  1  4  1  0  0  0  0
  4  5  1  0  0  0  0
  4  6  1  0  0  0  0
  4  7  1  0  0  0  0
  7  8  1  0  0  0  0
  7  9  1  0  0  0  0
  7 10  1  0  0  0  0
 10 11  1  0  0  0  0
 10 12  1  0  0  0  0
 10 13  1  0  0  0  0
 13 14  1  0  0  0  0
 13 15  1  0  0  0  0
 13 16  1  0  0  0  0
 16 17  1  0  0  0  0
 16 18  1  0  0  0  0
 16 19  1  0  0  0  0
 19 20  1  0  0  0  0
 19 21  1  0  0  0  0
 19 22  1  0  0  0  0
 22 23  1  0  0  0  0
 22 24  1  0  0  0  0
 22 25  1  0  0  0  0
M  END
> <VConfSearch Rank>
957

> <Conf_Id>
114

> <Delta U+W>
2.758

> <U+W>
-48.871

> <U>
11.422

> <W>
-60.293

> <W(PB)>
-62.719

> <W(SA)>
2.425

> <Valence>
10.135

> <Coulomb>
0.369

> <VdW>
0.918

> <VdW6>
-10.482

> <VdW12>
11.400

> <Bond>
0.245

> <Angle>
3.539

> <Pdih>
6.346

> <Idih>
0.006

> <Tether>
0.000

$$$$
VeraChem MOL file


 25 24  0  0  0  0  0  0  0  0999 V2000     
   23.9220   19.7904   23.9730 C   0  0  0  0  0  0  0  0  0  0  0  0
   24.0304   21.0008   23.9581 O   0  5  0  0  0  0  0  0  0  0  0  0
   24.1926   19.1025   24.9377 O   0  0  0  0  0  0  0  0  0  0  0  0
   23.4394   19.0919   22.7048 C   0  0  0  0  0  0  0  0  0  0  0  0
   24.0937   18.2285   22.5362 H   0  0  0  0  0  0  0  0  0  0  0  0
   23.5838   19.7702   21.8552 H   0  0  0  0  0  0  0  0  0  0  0  0
   21.9638   18.6193   22.7696 C   0  0  0  0  0  0  0  0  0  0  0  0
   21.7422   18.0187   21.8772 H   0  0  0  0  0  0  0  0  0  0  0  0
   21.8413   17.9574   23.6369 H   0  0  0  0  0  0  0  0  0  0  0  0
   20.9673   19.8006   22.8510 C   0  0  0  0  0  0  0  0  0  0  0  0
   21.1726   20.4963   22.0260 H   0  0  0  0  0  0  0  0  0  0  0  0
   21.1320   20.3653   23.7791 H   0  0  0  0  0  0  0  0  0  0  0  0
   19.4843   19.3666   22.7680 C   0  0  0  0  0  0  0  0  0  0  0  0
   18.8705   20.2725   22.6857 H   0  0  0  0  0  0  0  0  0  0  0  0
   19.3193   18.7937   21.8454 H   0  0  0  0  0  0  0  0  0  0  0  0
   19.0153   18.5377   23.9893 C   0  0  0  0  0  0  0  0  0  0  0  0
   19.1838   19.1096   24.9119 H   0  0  0  0  0  0  0  0  0  0  0  0
   19.6253   17.6292   24.0702 H   0  0  0  0  0  0  0  0  0  0  0  0
   17.5308   18.1110   23.9089 C   0  0  0  0  0  0  0  0  0  0  0  0
   17.3560   17.5485   22.9813 H   0  0  0  0  0  0  0  0  0  0  0  0
   17.3191   17.4188   24.7355 H   0  0  0  0  0  0  0  0  0  0  0  0
   16.5451   19.2969   23.9922 C   0  0  0  0  0  0  0  0  0  0  0  0
   15.5100   18.9333   24.0279 H   0  0  0  0  0  0  0  0  0  0  0  0
   16.7245   19.8943   24.8955 H   0  0  0  0  0  0  0  0  0  0  0  0
   16.6345   19.9558   23.1197 H   0  0  0  0  0  0  0  0  0  0  0  0
  1  2  1  0  0  0  0
  1  3  2  0  0  0  0
  1  4  1  0  0  0  0
  4  5  1  0  0  0  0
  4  6  1  0  0  0  0
  4  7  1  0  0  0  0
  7  8  1  0  0  0  0
  7  9  1  0  0  0  0
  7 10  1  0  0  0  0
 10 11  1  0  0  0  0
 10 12  1  0  0  0  0
 10 13  1  0  0  0  0
 13 14  1  0  0  0  0
 13 15  1  0  0  0  0
 13 16  1  0  0  0  0
 16 17  1  0  0  0  0
 16 18  1  0  0  0  0
 16 19  1  0  0  0  0
 19 20  1  0  0  0  0
 19 21  1  0  0  0  0
 19 22  1  0  0  0  0
 22 23  1  0  0  0  0
 22 24  1  0  0  0  0
 22 25  1  0  0  0  0
M  END
> <VConfSearch Rank>
958

> <Conf_Id>
87

> <Delta U+W>
1.453

> <U+W>
-50.176

> <U>
9.763

> <W>
-59.940

> <W(PB)>
-62.392

> <W(SA)>
2.452

> <Valence>
8.883

> <Coulomb>
-0.122

> <VdW>
1.003

> <VdW6>
-9.782

> <VdW12>
10.785

> <Bond>
0.212

> <Angle>
2.940

> <Pdih>
5.730

> <Idih>
0.001

> <Tether>
0.000

$$$$
VeraChem MOL file


 25 24  0  0  0  0  0  0  0  0999 V2000     
   17.3289   16.3457   24.1168 C   0  0  0  0  0  0  0  0  0  0  0  0
   18.0014   15.4496   24.5873 O   0  5  0  0  0  0  0  0  0  0  0  0
   16.1817   16.5717   24.4480 O   0  0  0  0  0  0  0  0  0  0  0  0
   17.9657   17.2482   23.0660 C   0  0  0  0  0  0  0  0  0  0  0  0
   17.1804   17.5678   22.3705 H   0  0  0  0  0  0  0  0  0  0  0  0
   18.6834   16.6495   22.4924 H   0  0  0  0  0  0  0  0  0  0  0  0
   18.6711   18.4820   23.6808 C   0  0  0  0  0  0  0  0  0  0  0  0
   17.9425   19.0670   24.2588 H   0  0  0  0  0  0  0  0  0  0  0  0
   19.4380   18.1373   24.3870 H   0  0  0  0  0  0  0  0  0  0  0  0
   19.3137   19.3756   22.5949 C   0  0  0  0  0  0  0  0  0  0  0  0
   18.5459   19.6531   21.8600 H   0  0  0  0  0  0  0  0  0  0  0  0
   20.0708   18.8034   22.0428 H   0  0  0  0  0  0  0  0  0  0  0  0
   19.9420   20.6750   23.1581 C   0  0  0  0  0  0  0  0  0  0  0  0
   20.3206   21.2771   22.3217 H   0  0  0  0  0  0  0  0  0  0  0  0
   19.1506   21.2781   23.6234 H   0  0  0  0  0  0  0  0  0  0  0  0
   21.0787   20.4669   24.1936 C   0  0  0  0  0  0  0  0  0  0  0  0
   20.6639   20.0102   25.1017 H   0  0  0  0  0  0  0  0  0  0  0  0
   21.4548   21.4516   24.5026 H   0  0  0  0  0  0  0  0  0  0  0  0
   22.2710   19.6103   23.7008 C   0  0  0  0  0  0  0  0  0  0  0  0
   22.9946   19.5121   24.5215 H   0  0  0  0  0  0  0  0  0  0  0  0
   21.9339   18.5911   23.4696 H   0  0  0  0  0  0  0  0  0  0  0  0
   22.9894   20.2129   22.4741 C   0  0  0  0  0  0  0  0  0  0  0  0
   23.3209   21.2393   22.6782 H   0  0  0  0  0  0  0  0  0  0  0  0
   23.8737   19.6165   22.2152 H   0  0  0  0  0  0  0  0  0  0  0  0
   22.3314   20.2314   21.5962 H   0  0  0  0  0  0  0  0  0  0  0  0
  1  2  1  0  0  0  0
  1  3  2  0  0  0  0
  1  4  1  0  0  0  0
  4  5  1  0  0  0  0
  4  6  1  0  0  0  0
  4  7  1  0  0  0  0
  7  8  1  0  0  0  0
  7  9  1  0  0  0  0
  7 10  1  0  0  0  0
 10 11  1  0  0  0  0
 10 12  1  0  0  0  0
 10 13  1  0  0  0  0
 13 14  1  0  0  0  0
 13 15  1  0  0  0  0
 13 16  1  0  0  0  0
 16 17  1  0  0  0  0
 16 18  1  0  0  0  0
 16 19  1  0  0  0  0
 19 20  1  0  0  0  0
 19 21  1  0  0  0  0
 19 22  1  0  0  0  0
 22 23  1  0  0  0  0
 22 24  1  0  0  0  0
 22 25  1  0  0  0  0
M  END
> <VConfSearch Rank>
959

> <Conf_Id>
29

> <Delta U+W>
0.850

> <U+W>
-50.780

> <U>
8.646

> <W>
-59.426

> <W(PB)>
-61.868

> <W(SA)>
2.442

> <Valence>
8.924

> <Coulomb>
-1.171

> <VdW>
0.894

> <VdW6>
-10.223

> <VdW12>
11.117

> <Bond>
0.231

> <Angle>
3.232

> <Pdih>
5.461

> <Idih>
0.001

> <Tether>
0.000

$$$$
VeraChem MOL file


 25 24  0  0  0  0  0  0  0  0999 V2000     
   19.4184   15.5117   24.7257 C   0  0  0  0  0  0  0  0  0  0  0  0
   19.4844   15.6853   25.9266 O   0  5  0  0  0  0  0  0  0  0  0  0
   19.7729   14.4893   24.1727 O   0  0  0  0  0  0  0  0  0  0  0  0
   18.8785   16.6467   23.8628 C   0  0  0  0  0  0  0  0  0  0  0  0
   18.1304   17.1940   24.4487 H   0  0  0  0  0  0  0  0  0  0  0  0
   18.3587   16.2044   23.0045 H   0  0  0  0  0  0  0  0  0  0  0  0
   19.9872   17.6128   23.3775 C   0  0  0  0  0  0  0  0  0  0  0  0
   20.5054   18.0268   24.2526 H   0  0  0  0  0  0  0  0  0  0  0  0
   20.7330   17.0497   22.7997 H   0  0  0  0  0  0  0  0  0  0  0  0
   19.4120   18.7573   22.5115 C   0  0  0  0  0  0  0  0  0  0  0  0
   18.6961   19.3453   23.1006 H   0  0  0  0  0  0  0  0  0  0  0  0
   18.8391   18.3235   21.6807 H   0  0  0  0  0  0  0  0  0  0  0  0
   20.4993   19.6892   21.9200 C   0  0  0  0  0  0  0  0  0  0  0  0
   21.1487   19.1001   21.2584 H   0  0  0  0  0  0  0  0  0  0  0  0
   20.0151   20.4336   21.2744 H   0  0  0  0  0  0  0  0  0  0  0  0
   21.3868   20.4179   22.9636 C   0  0  0  0  0  0  0  0  0  0  0  0
   22.1006   21.0589   22.4287 H   0  0  0  0  0  0  0  0  0  0  0  0
   21.9968   19.6797   23.5006 H   0  0  0  0  0  0  0  0  0  0  0  0
   20.6187   21.2801   23.9954 C   0  0  0  0  0  0  0  0  0  0  0  0
   19.9619   20.6448   24.6044 H   0  0  0  0  0  0  0  0  0  0  0  0
   21.3444   21.7224   24.6917 H   0  0  0  0  0  0  0  0  0  0  0  0
   19.7944   22.4147   23.3494 C   0  0  0  0  0  0  0  0  0  0  0  0
   18.9856   22.0141   22.7256 H   0  0  0  0  0  0  0  0  0  0  0  0
   19.3375   23.0459   24.1224 H   0  0  0  0  0  0  0  0  0  0  0  0
   20.4296   23.0534   22.7221 H   0  0  0  0  0  0  0  0  0  0  0  0
  1  2  1  0  0  0  0
  1  3  2  0  0  0  0
  1  4  1  0  0  0  0
  4  5  1  0  0  0  0
  4  6  1  0  0  0  0
  4  7  1  0  0  0  0
  7  8  1  0  0  0  0
  7  9  1  0  0  0  0
  7 10  1  0  0  0  0
 10 11  1  0  0  0  0
 10 12  1  0  0  0  0
 10 13  1  0  0  0  0
 13 14  1  0  0  0  0
 13 15  1  0  0  0  0
 13 16  1  0  0  0  0
 16 17  1  0  0  0  0
 16 18  1  0  0  0  0
 16 19  1  0  0  0  0
 19 20  1  0  0  0  0
 19 21  1  0  0  0  0
 19 22  1  0  0  0  0
 22 23  1  0  0  0  0
 22 24  1  0  0  0  0
 22 25  1  0  0  0  0
M  END
> <VConfSearch Rank>
960

> <Conf_Id>
30

> <Delta U+W>
0.843

> <U+W>
-50.787

> <U>
8.647

> <W>
-59.434

> <W(PB)>
-61.861

> <W(SA)>
2.428

> <Valence>
8.924

> <Coulomb>
-1.170

> <VdW>
0.894

> <VdW6>
-10.224

> <VdW12>
11.118

> <Bond>
0.231

> <Angle>
3.232

> <Pdih>
5.460

> <Idih>
0.000

> <Tether>
0.000

$$$$
VeraChem MOL file


 25 24  0  0  0  0  0  0  0  0999 V2000     
   21.5074   16.2071   26.4840 C   0  0  0  0  0  0  0  0  0  0  0  0
   22.6277   16.6777   26.5290 O   0  5  0  0  0  0  0  0  0  0  0  0
   21.1475   15.2818   27.1843 O   0  0  0  0  0  0  0  0  0  0  0  0
   20.4801   16.7855   25.5095 C   0  0  0  0  0  0  0  0  0  0  0  0
   19.6138   17.1061   26.1000 H   0  0  0  0  0  0  0  0  0  0  0  0
   20.1434   15.9654   24.8646 H   0  0  0  0  0  0  0  0  0  0  0  0
   20.9860   17.9652   24.6372 C   0  0  0  0  0  0  0  0  0  0  0  0
   21.3278   18.7806   25.2897 H   0  0  0  0  0  0  0  0  0  0  0  0
   21.8577   17.6389   24.0531 H   0  0  0  0  0  0  0  0  0  0  0  0
   19.8883   18.4872   23.6847 C   0  0  0  0  0  0  0  0  0  0  0  0
   19.0179   18.8127   24.2708 H   0  0  0  0  0  0  0  0  0  0  0  0
   19.5482   17.6703   23.0335 H   0  0  0  0  0  0  0  0  0  0  0  0
   20.3937   19.6606   22.8180 C   0  0  0  0  0  0  0  0  0  0  0  0
   20.7338   20.4777   23.4690 H   0  0  0  0  0  0  0  0  0  0  0  0
   21.2641   19.3354   22.2317 H   0  0  0  0  0  0  0  0  0  0  0  0
   19.2966   20.1831   21.8654 C   0  0  0  0  0  0  0  0  0  0  0  0
   18.4261   20.5084   22.4514 H   0  0  0  0  0  0  0  0  0  0  0  0
   18.9563   19.3662   21.2142 H   0  0  0  0  0  0  0  0  0  0  0  0
   19.8016   21.3560   20.9990 C   0  0  0  0  0  0  0  0  0  0  0  0
   20.1411   22.1759   21.6470 H   0  0  0  0  0  0  0  0  0  0  0  0
   20.6713   21.0337   20.4098 H   0  0  0  0  0  0  0  0  0  0  0  0
   18.7032   21.8748   20.0492 C   0  0  0  0  0  0  0  0  0  0  0  0
   17.8327   22.2334   20.6141 H   0  0  0  0  0  0  0  0  0  0  0  0
   19.0793   22.7079   19.4413 H   0  0  0  0  0  0  0  0  0  0  0  0
   18.3670   21.0826   19.3675 H   0  0  0  0  0  0  0  0  0  0  0  0
  1  2  1  0  0  0  0
  1  3  2  0  0  0  0
  1  4  1  0  0  0  0
  4  5  1  0  0  0  0
  4  6  1  0  0  0  0
  4  7  1  0  0  0  0
  7  8  1  0  0  0  0
  7  9  1  0  0  0  0
  7 10  1  0  0  0  0
 10 11  1  0  0  0  0
 10 12  1  0  0  0  0
 10 13  1  0  0  0  0
 13 14  1  0  0  0  0
 13 15  1  0  0  0  0
 13 16  1  0  0  0  0
 16 17  1  0  0  0  0
 16 18  1  0  0  0  0
 16 19  1  0  0  0  0
 19 20  1  0  0  0  0
 19 21  1  0  0  0  0
 19 22  1  0  0  0  0
 22 23  1  0  0  0  0
 22 24  1  0  0  0  0
 22 25  1  0  0  0  0
M  END
> <VConfSearch Rank>
961

> <Conf_Id>
0

> <Delta U+W>
0.000

> <U+W>
-51.629

> <U>
6.586

> <W>
-58.216

> <W(PB)>
-60.757

> <W(SA)>
2.541

> <Valence>
8.027

> <Coulomb>
-2.892

> <VdW>
1.451

> <VdW6>
-7.931

> <VdW12>
9.383

> <Bond>
0.149

> <Angle>
2.726

> <Pdih>
5.152

> <Idih>
0.000

> <Tether>
0.000

$$$$
VeraChem MOL file


 25 24  0  0  0  0  0  0  0  0999 V2000     
   22.6554   15.8331   21.0381 C   0  0  0  0  0  0  0  0  0  0  0  0
   23.8565   15.9581   21.1736 O   0  5  0  0  0  0  0  0  0  0  0  0
   22.0968   14.7582   20.9422 O   0  0  0  0  0  0  0  0  0  0  0  0
   21.7993   17.0942   21.0098 C   0  0  0  0  0  0  0  0  0  0  0  0
   20.9381   16.9066   20.3573 H   0  0  0  0  0  0  0  0  0  0  0  0
   22.3882   17.8954   20.5474 H   0  0  0  0  0  0  0  0  0  0  0  0
   21.3197   17.5271   22.4172 C   0  0  0  0  0  0  0  0  0  0  0  0
   20.7432   16.7093   22.8716 H   0  0  0  0  0  0  0  0  0  0  0  0
   22.1933   17.6978   23.0616 H   0  0  0  0  0  0  0  0  0  0  0  0
   20.4555   18.8054   22.3621 C   0  0  0  0  0  0  0  0  0  0  0  0
   19.5837   18.6317   21.7163 H   0  0  0  0  0  0  0  0  0  0  0  0
   21.0342   19.6205   21.9062 H   0  0  0  0  0  0  0  0  0  0  0  0
   19.9790   19.2346   23.7665 C   0  0  0  0  0  0  0  0  0  0  0  0
   19.4003   18.4196   24.2226 H   0  0  0  0  0  0  0  0  0  0  0  0
   20.8506   19.4083   24.4124 H   0  0  0  0  0  0  0  0  0  0  0  0
   19.1148   20.5129   23.7122 C   0  0  0  0  0  0  0  0  0  0  0  0
   18.2431   20.3394   23.0664 H   0  0  0  0  0  0  0  0  0  0  0  0
   19.6933   21.3280   23.2562 H   0  0  0  0  0  0  0  0  0  0  0  0
   18.6386   20.9421   25.1159 C   0  0  0  0  0  0  0  0  0  0  0  0
   18.0578   20.1297   25.5745 H   0  0  0  0  0  0  0  0  0  0  0  0
   19.5080   21.1183   25.7643 H   0  0  0  0  0  0  0  0  0  0  0  0
   17.7759   22.2188   25.0574 C   0  0  0  0  0  0  0  0  0  0  0  0
   17.4462   22.5094   26.0634 H   0  0  0  0  0  0  0  0  0  0  0  0
   18.3429   23.0568   24.6314 H   0  0  0  0  0  0  0  0  0  0  0  0
   16.8818   22.0608   24.4402 H   0  0  0  0  0  0  0  0  0  0  0  0
  1  2  1  0  0  0  0
  1  3  2  0  0  0  0
  1  4  1  0  0  0  0
  4  5  1  0  0  0  0
  4  6  1  0  0  0  0
  4  7  1  0  0  0  0
  7  8  1  0  0  0  0
  7  9  1  0  0  0  0
  7 10  1  0  0  0  0
 10 11  1  0  0  0  0
 10 12  1  0  0  0  0
 10 13  1  0  0  0  0
 13 14  1  0  0  0  0
 13 15  1  0  0  0  0
 13 16  1  0  0  0  0
 16 17  1  0  0  0  0
 16 18  1  0  0  0  0
 16 19  1  0  0  0  0
 19 20  1  0  0  0  0
 19 21  1  0  0  0  0
 19 22  1  0  0  0  0
 22 23  1  0  0  0  0
 22 24  1  0  0  0  0
 22 25  1  0  0  0  0
M  END
> <VConfSearch Rank>
962

> <Conf_Id>
27

> <Delta U+W>
-1.297

> <U+W>
-52.926

> <U>
5.617

> <W>
-58.543

> <W(PB)>
-61.065

> <W(SA)>
2.522

> <Valence>
7.531

> <Coulomb>
-2.818

> <VdW>
0.904

> <VdW6>
-7.640

> <VdW12>
8.544

> <Bond>
0.115

> <Angle>
2.271

> <Pdih>
5.144

> <Idih>
0.001

> <Tether>
0.000

$$$$
VeraChem MOL file


 25 24  0  0  0  0  0  0  0  0999 V2000     
   22.5959   22.2477   22.5393 C   0  0  0  0  0  0  0  0  0  0  0  0
   22.3486   23.2264   23.2160 O   0  5  0  0  0  0  0  0  0  0  0  0
   23.6316   21.6172   22.6213 O   0  0  0  0  0  0  0  0  0  0  0  0
   21.5539   21.7973   21.5192 C   0  0  0  0  0  0  0  0  0  0  0  0
   22.0441   21.1530   20.7793 H   0  0  0  0  0  0  0  0  0  0  0  0
   21.2110   22.6909   20.9845 H   0  0  0  0  0  0  0  0  0  0  0  0
   20.3361   21.0671   22.1425 C   0  0  0  0  0  0  0  0  0  0  0  0
   19.8729   21.7138   22.9007 H   0  0  0  0  0  0  0  0  0  0  0  0
   19.5806   20.9039   21.3620 H   0  0  0  0  0  0  0  0  0  0  0  0
   20.7170   19.7095   22.7746 C   0  0  0  0  0  0  0  0  0  0  0  0
   21.4600   19.8663   23.5689 H   0  0  0  0  0  0  0  0  0  0  0  0
   21.1917   19.0718   22.0163 H   0  0  0  0  0  0  0  0  0  0  0  0
   19.4853   18.9858   23.3602 C   0  0  0  0  0  0  0  0  0  0  0  0
   19.0113   19.6242   24.1184 H   0  0  0  0  0  0  0  0  0  0  0  0
   18.7422   18.8251   22.5671 H   0  0  0  0  0  0  0  0  0  0  0  0
   19.8653   17.6295   23.9928 C   0  0  0  0  0  0  0  0  0  0  0  0
   20.6085   17.7900   24.7859 H   0  0  0  0  0  0  0  0  0  0  0  0
   20.3396   16.9911   23.2348 H   0  0  0  0  0  0  0  0  0  0  0  0
   18.6346   16.9060   24.5787 C   0  0  0  0  0  0  0  0  0  0  0  0
   18.1586   17.5411   25.3387 H   0  0  0  0  0  0  0  0  0  0  0  0
   17.8898   16.7421   23.7876 H   0  0  0  0  0  0  0  0  0  0  0  0
   19.0183   15.5524   25.2095 C   0  0  0  0  0  0  0  0  0  0  0  0
   19.7394   15.6898   26.0260 H   0  0  0  0  0  0  0  0  0  0  0  0
   18.1320   15.0520   25.6208 H   0  0  0  0  0  0  0  0  0  0  0  0
   19.4686   14.8848   24.4632 H   0  0  0  0  0  0  0  0  0  0  0  0
  1  2  1  0  0  0  0
  1  3  2  0  0  0  0
  1  4  1  0  0  0  0
  4  5  1  0  0  0  0
  4  6  1  0  0  0  0
  4  7  1  0  0  0  0
  7  8  1  0  0  0  0
  7  9  1  0  0  0  0
  7 10  1  0  0  0  0
 10 11  1  0  0  0  0
 10 12  1  0  0  0  0
 10 13  1  0  0  0  0
 13 14  1  0  0  0  0
 13 15  1  0  0  0  0
 13 16  1  0  0  0  0
 16 17  1  0  0  0  0
 16 18  1  0  0  0  0
 16 19  1  0  0  0  0
 19 20  1  0  0  0  0
 19 21  1  0  0  0  0
 19 22  1  0  0  0  0
 22 23  1  0  0  0  0
 22 24  1  0  0  0  0
 22 25  1  0  0  0  0
M  END
> <VConfSearch Rank>
963

> <Conf_Id>
37

> <Delta U+W>
-0.230

> <U+W>
-51.860

> <U>
7.816

> <W>
-59.675

> <W(PB)>
-62.180

> <W(SA)>
2.505

> <Valence>
7.785

> <Coulomb>
-0.713

> <VdW>
0.744

> <VdW6>
-8.514

> <VdW12>
9.259

> <Bond>
0.136

> <Angle>
2.433

> <Pdih>
5.216

> <Idih>
0.000

> <Tether>
0.000

$$$$
VeraChem MOL file


 25 24  0  0  0  0  0  0  0  0999 V2000     
   21.5621   17.9459   19.8968 C   0  0  0  0  0  0  0  0  0  0  0  0
   21.8732   18.8225   19.1146 O   0  5  0  0  0  0  0  0  0  0  0  0
   20.6672   17.1492   19.6934 O   0  0  0  0  0  0  0  0  0  0  0  0
   22.3507   17.8310   21.1983 C   0  0  0  0  0  0  0  0  0  0  0  0
   23.4146   17.9088   20.9450 H   0  0  0  0  0  0  0  0  0  0  0  0
   22.1958   16.8281   21.6141 H   0  0  0  0  0  0  0  0  0  0  0  0
   21.9887   18.9097   22.2520 C   0  0  0  0  0  0  0  0  0  0  0  0
   22.6928   18.8379   23.0920 H   0  0  0  0  0  0  0  0  0  0  0  0
   22.1223   19.9077   21.8118 H   0  0  0  0  0  0  0  0  0  0  0  0
   20.5452   18.7608   22.7831 C   0  0  0  0  0  0  0  0  0  0  0  0
   20.4129   17.7572   23.2099 H   0  0  0  0  0  0  0  0  0  0  0  0
   19.8335   18.8490   21.9506 H   0  0  0  0  0  0  0  0  0  0  0  0
   20.2171   19.8244   23.8530 C   0  0  0  0  0  0  0  0  0  0  0  0
   20.9258   19.7362   24.6879 H   0  0  0  0  0  0  0  0  0  0  0  0
   20.3496   20.8276   23.4253 H   0  0  0  0  0  0  0  0  0  0  0  0
   18.7747   19.6767   24.3836 C   0  0  0  0  0  0  0  0  0  0  0  0
   18.6419   18.6734   24.8112 H   0  0  0  0  0  0  0  0  0  0  0  0
   18.0659   19.7646   23.5488 H   0  0  0  0  0  0  0  0  0  0  0  0
   18.4460   20.7399   25.4527 C   0  0  0  0  0  0  0  0  0  0  0  0
   19.1521   20.6537   26.2903 H   0  0  0  0  0  0  0  0  0  0  0  0
   18.5760   21.7449   25.0278 H   0  0  0  0  0  0  0  0  0  0  0  0
   17.0049   20.5889   25.9799 C   0  0  0  0  0  0  0  0  0  0  0  0
   16.8559   19.6029   26.4392 H   0  0  0  0  0  0  0  0  0  0  0  0
   16.7884   21.3523   26.7385 H   0  0  0  0  0  0  0  0  0  0  0  0
   16.2755   20.7023   25.1672 H   0  0  0  0  0  0  0  0  0  0  0  0
  1  2  1  0  0  0  0
  1  3  2  0  0  0  0
  1  4  1  0  0  0  0
  4  5  1  0  0  0  0
  4  6  1  0  0  0  0
  4  7  1  0  0  0  0
  7  8  1  0  0  0  0
  7  9  1  0  0  0  0
  7 10  1  0  0  0  0
 10 11  1  0  0  0  0
 10 12  1  0  0  0  0
 10 13  1  0  0  0  0
 13 14  1  0  0  0  0
 13 15  1  0  0  0  0
 13 16  1  0  0  0  0
 16 17  1  0  0  0  0
 16 18  1  0  0  0  0
 16 19  1  0  0  0  0
 19 20  1  0  0  0  0
 19 21  1  0  0  0  0
 19 22  1  0  0  0  0
 22 23  1  0  0  0  0
 22 24  1  0  0  0  0
 22 25  1  0  0  0  0
M  END
> <VConfSearch Rank>
964

> <Conf_Id>
54

> <Delta U+W>
-0.224

> <U+W>
-51.854

> <U>
7.816

> <W>
-59.670

> <W(PB)>
-62.157

> <W(SA)>
2.487

> <Valence>
7.785

> <Coulomb>
-0.713

> <VdW>
0.744

> <VdW6>
-8.515

> <VdW12>
9.259

> <Bond>
0.136

> <Angle>
2.433

> <Pdih>
5.215

> <Idih>
0.000

> <Tether>
0.000

$$$$
VeraChem MOL file


 25 24  0  0  0  0  0  0  0  0999 V2000     
   18.1813   15.6245   22.6821 C   0  0  0  0  0  0  0  0  0  0  0  0
   17.2178   15.6682   23.4214 O   0  5  0  0  0  0  0  0  0  0  0  0
   18.1102   15.3512   21.5000 O   0  0  0  0  0  0  0  0  0  0  0  0
   19.5595   15.9099   23.2723 C   0  0  0  0  0  0  0  0  0  0  0  0
   20.2391   15.1310   22.9071 H   0  0  0  0  0  0  0  0  0  0  0  0
   19.5043   15.7978   24.3619 H   0  0  0  0  0  0  0  0  0  0  0  0
   20.1277   17.3058   22.9058 C   0  0  0  0  0  0  0  0  0  0  0  0
   21.1718   17.3533   23.2395 H   0  0  0  0  0  0  0  0  0  0  0  0
   20.1380   17.4187   21.8128 H   0  0  0  0  0  0  0  0  0  0  0  0
   19.3210   18.4618   23.5452 C   0  0  0  0  0  0  0  0  0  0  0  0
   19.3497   18.3737   24.6399 H   0  0  0  0  0  0  0  0  0  0  0  0
   18.2656   18.3662   23.2556 H   0  0  0  0  0  0  0  0  0  0  0  0
   19.8130   19.8676   23.1249 C   0  0  0  0  0  0  0  0  0  0  0  0
   19.8020   19.9486   22.0295 H   0  0  0  0  0  0  0  0  0  0  0  0
   19.0904   20.6041   23.4983 H   0  0  0  0  0  0  0  0  0  0  0  0
   21.2236   20.2155   23.6615 C   0  0  0  0  0  0  0  0  0  0  0  0
   21.9493   19.4846   23.2834 H   0  0  0  0  0  0  0  0  0  0  0  0
   21.2352   20.1294   24.7565 H   0  0  0  0  0  0  0  0  0  0  0  0
   21.7073   21.6255   23.2486 C   0  0  0  0  0  0  0  0  0  0  0  0
   22.7585   21.7377   23.5479 H   0  0  0  0  0  0  0  0  0  0  0  0
   21.6851   21.7198   22.1541 H   0  0  0  0  0  0  0  0  0  0  0  0
   20.8869   22.7679   23.8863 C   0  0  0  0  0  0  0  0  0  0  0  0
   19.8525   22.7724   23.5209 H   0  0  0  0  0  0  0  0  0  0  0  0
   20.8661   22.6739   24.9799 H   0  0  0  0  0  0  0  0  0  0  0  0
   21.3295   23.7417   23.6396 H   0  0  0  0  0  0  0  0  0  0  0  0
  1  2  1  0  0  0  0
  1  3  2  0  0  0  0
  1  4  1  0  0  0  0
  4  5  1  0  0  0  0
  4  6  1  0  0  0  0
  4  7  1  0  0  0  0
  7  8  1  0  0  0  0
  7  9  1  0  0  0  0
  7 10  1  0  0  0  0
 10 11  1  0  0  0  0
 10 12  1  0  0  0  0
 10 13  1  0  0  0  0
 13 14  1  0  0  0  0
 13 15  1  0  0  0  0
 13 16  1  0  0  0  0
 16 17  1  0  0  0  0
 16 18  1  0  0  0  0
 16 19  1  0  0  0  0
 19 20  1  0  0  0  0
 19 21  1  0  0  0  0
 19 22  1  0  0  0  0
 22 23  1  0  0  0  0
 22 24  1  0  0  0  0
 22 25  1  0  0  0  0
M  END
> <VConfSearch Rank>
965

> <Conf_Id>
101

> <Delta U+W>
1.534

> <U+W>
-50.095

> <U>
9.416

> <W>
-59.512

> <W(PB)>
-61.988

> <W(SA)>
2.476

> <Valence>
8.939

> <Coulomb>
-0.615

> <VdW>
1.092

> <VdW6>
-9.710

> <VdW12>
10.802

> <Bond>
0.216

> <Angle>
2.979

> <Pdih>
5.743

> <Idih>
0.000

> <Tether>
0.000

$$$$
VeraChem MOL file


 25 24  0  0  0  0  0  0  0  0999 V2000     
   21.2260   21.9976   20.3684 C   0  0  0  0  0  0  0  0  0  0  0  0
   20.4633   22.9398   20.4545 O   0  5  0  0  0  0  0  0  0  0  0  0
   22.3208   22.0637   19.8453 O   0  0  0  0  0  0  0  0  0  0  0  0
   20.7949   20.6648   20.9700 C   0  0  0  0  0  0  0  0  0  0  0  0
   21.2446   19.8617   20.3741 H   0  0  0  0  0  0  0  0  0  0  0  0
   19.7081   20.5851   20.8566 H   0  0  0  0  0  0  0  0  0  0  0  0
   21.2034   20.5194   22.4591 C   0  0  0  0  0  0  0  0  0  0  0  0
   22.2834   20.7025   22.5461 H   0  0  0  0  0  0  0  0  0  0  0  0
   20.7083   21.2992   23.0542 H   0  0  0  0  0  0  0  0  0  0  0  0
   20.8890   19.1269   23.0565 C   0  0  0  0  0  0  0  0  0  0  0  0
   21.3402   19.0777   24.0557 H   0  0  0  0  0  0  0  0  0  0  0  0
   21.3770   18.3485   22.4543 H   0  0  0  0  0  0  0  0  0  0  0  0
   19.3728   18.8315   23.1645 C   0  0  0  0  0  0  0  0  0  0  0  0
   18.8852   19.6090   23.7669 H   0  0  0  0  0  0  0  0  0  0  0  0
   18.9177   18.8885   22.1678 H   0  0  0  0  0  0  0  0  0  0  0  0
   19.0555   17.4318   23.7497 C   0  0  0  0  0  0  0  0  0  0  0  0
   19.4777   16.6651   23.0860 H   0  0  0  0  0  0  0  0  0  0  0  0
   17.9674   17.2825   23.7303 H   0  0  0  0  0  0  0  0  0  0  0  0
   19.5660   17.1799   25.1903 C   0  0  0  0  0  0  0  0  0  0  0  0
   19.2843   16.1602   25.4869 H   0  0  0  0  0  0  0  0  0  0  0  0
   20.6632   17.2091   25.2152 H   0  0  0  0  0  0  0  0  0  0  0  0
   18.9946   18.1731   26.2253 C   0  0  0  0  0  0  0  0  0  0  0  0
   17.8972   18.1781   26.2009 H   0  0  0  0  0  0  0  0  0  0  0  0
   19.3097   17.8952   27.2393 H   0  0  0  0  0  0  0  0  0  0  0  0
   19.3488   19.1941   26.0353 H   0  0  0  0  0  0  0  0  0  0  0  0
  1  2  1  0  0  0  0
  1  3  2  0  0  0  0
  1  4  1  0  0  0  0
  4  5  1  0  0  0  0
  4  6  1  0  0  0  0
  4  7  1  0  0  0  0
  7  8  1  0  0  0  0
  7  9  1  0  0  0  0
  7 10  1  0  0  0  0
 10 11  1  0  0  0  0
 10 12  1  0  0  0  0
 10 13  1  0  0  0  0
 13 14  1  0  0  0  0
 13 15  1  0  0  0  0
 13 16  1  0  0  0  0
 16 17  1  0  0  0  0
 16 18  1  0  0  0  0
 16 19  1  0  0  0  0
 19 20  1  0  0  0  0
 19 21  1  0  0  0  0
 19 22  1  0  0  0  0
 22 23  1  0  0  0  0
 22 24  1  0  0  0  0
 22 25  1  0  0  0  0
M  END
> <VConfSearch Rank>
966

> <Conf_Id>
75

> <Delta U+W>
1.014

> <U+W>
-50.615

> <U>
8.474

> <W>
-59.089

> <W(PB)>
-61.530

> <W(SA)>
2.441

> <Valence>
9.080

> <Coulomb>
-1.772

> <VdW>
1.165

> <VdW6>
-9.830

> <VdW12>
10.996

> <Bond>
0.240

> <Angle>
3.225

> <Pdih>
5.615

> <Idih>
0.001

> <Tether>
0.000

$$$$
VeraChem MOL file


 25 24  0  0  0  0  0  0  0  0999 V2000     
   23.6022   21.0591   24.7185 C   0  0  0  0  0  0  0  0  0  0  0  0
   23.5592   22.2326   24.4057 O   0  5  0  0  0  0  0  0  0  0  0  0
   24.2287   20.6387   25.6710 O   0  0  0  0  0  0  0  0  0  0  0  0
   22.8087   20.0618   23.8819 C   0  0  0  0  0  0  0  0  0  0  0  0
   23.3486   19.1073   23.8869 H   0  0  0  0  0  0  0  0  0  0  0  0
   22.7947   20.4211   22.8460 H   0  0  0  0  0  0  0  0  0  0  0  0
   21.3624   19.8606   24.3974 C   0  0  0  0  0  0  0  0  0  0  0  0
   21.3933   19.5133   25.4395 H   0  0  0  0  0  0  0  0  0  0  0  0
   20.8400   20.8274   24.3986 H   0  0  0  0  0  0  0  0  0  0  0  0
   20.5797   18.8482   23.5334 C   0  0  0  0  0  0  0  0  0  0  0  0
   21.1056   17.8837   23.5348 H   0  0  0  0  0  0  0  0  0  0  0  0
   20.5630   19.1957   22.4936 H   0  0  0  0  0  0  0  0  0  0  0  0
   19.1378   18.6463   24.0559 C   0  0  0  0  0  0  0  0  0  0  0  0
   19.1971   18.2689   25.0859 H   0  0  0  0  0  0  0  0  0  0  0  0
   18.6130   19.6097   24.1126 H   0  0  0  0  0  0  0  0  0  0  0  0
   18.3135   17.6413   23.2114 C   0  0  0  0  0  0  0  0  0  0  0  0
   17.6633   17.0757   23.8928 H   0  0  0  0  0  0  0  0  0  0  0  0
   18.9771   16.8988   22.7476 H   0  0  0  0  0  0  0  0  0  0  0  0
   17.4077   18.2907   22.1359 C   0  0  0  0  0  0  0  0  0  0  0  0
   16.8133   17.5002   21.6574 H   0  0  0  0  0  0  0  0  0  0  0  0
   16.6881   18.9658   22.6194 H   0  0  0  0  0  0  0  0  0  0  0  0
   18.1767   19.0609   21.0424 C   0  0  0  0  0  0  0  0  0  0  0  0
   18.9501   18.4299   20.5857 H   0  0  0  0  0  0  0  0  0  0  0  0
   17.4921   19.3861   20.2485 H   0  0  0  0  0  0  0  0  0  0  0  0
   18.6555   19.9584   21.4534 H   0  0  0  0  0  0  0  0  0  0  0  0
  1  2  1  0  0  0  0
  1  3  2  0  0  0  0
  1  4  1  0  0  0  0
  4  5  1  0  0  0  0
  4  6  1  0  0  0  0
  4  7  1  0  0  0  0
  7  8  1  0  0  0  0
  7  9  1  0  0  0  0
  7 10  1  0  0  0  0
 10 11  1  0  0  0  0
 10 12  1  0  0  0  0
 10 13  1  0  0  0  0
 13 14  1  0  0  0  0
 13 15  1  0  0  0  0
 13 16  1  0  0  0  0
 16 17  1  0  0  0  0
 16 18  1  0  0  0  0
 16 19  1  0  0  0  0
 19 20  1  0  0  0  0
 19 21  1  0  0  0  0
 19 22  1  0  0  0  0
 22 23  1  0  0  0  0
 22 24  1  0  0  0  0
 22 25  1  0  0  0  0
M  END
> <VConfSearch Rank>
967

> <Conf_Id>
125

> <Delta U+W>
2.314

> <U+W>
-49.315

> <U>
9.740

> <W>
-59.054

> <W(PB)>
-61.488

> <W(SA)>
2.433

> <Valence>
10.506

> <Coulomb>
-1.761

> <VdW>
0.994

> <VdW6>
-9.209

> <VdW12>
10.203

> <Bond>
0.193

> <Angle>
2.979

> <Pdih>
7.334

> <Idih>
0.001

> <Tether>
0.000

$$$$
VeraChem MOL file


 25 24  0  0  0  0  0  0  0  0999 V2000     
   16.1910   20.0152   24.0964 C   0  0  0  0  0  0  0  0  0  0  0  0
   16.0964   19.9937   25.3078 O   0  5  0  0  0  0  0  0  0  0  0  0
   15.2395   20.1275   23.3489 O   0  0  0  0  0  0  0  0  0  0  0  0
   17.5774   19.8690   23.4797 C   0  0  0  0  0  0  0  0  0  0  0  0
   18.2952   20.3436   24.1581 H   0  0  0  0  0  0  0  0  0  0  0  0
   17.5933   20.4349   22.5406 H   0  0  0  0  0  0  0  0  0  0  0  0
   17.9651   18.3900   23.2200 C   0  0  0  0  0  0  0  0  0  0  0  0
   17.9915   17.8448   24.1736 H   0  0  0  0  0  0  0  0  0  0  0  0
   17.1769   17.9198   22.6158 H   0  0  0  0  0  0  0  0  0  0  0  0
   19.3171   18.2249   22.4857 C   0  0  0  0  0  0  0  0  0  0  0  0
   19.2842   18.7630   21.5285 H   0  0  0  0  0  0  0  0  0  0  0  0
   19.4524   17.1625   22.2406 H   0  0  0  0  0  0  0  0  0  0  0  0
   20.5300   18.7091   23.3137 C   0  0  0  0  0  0  0  0  0  0  0  0
   20.4378   19.7849   23.5057 H   0  0  0  0  0  0  0  0  0  0  0  0
   20.5322   18.2059   24.2901 H   0  0  0  0  0  0  0  0  0  0  0  0
   21.8650   18.4287   22.5856 C   0  0  0  0  0  0  0  0  0  0  0  0
   21.8852   18.9688   21.6292 H   0  0  0  0  0  0  0  0  0  0  0  0
   21.9211   17.3593   22.3401 H   0  0  0  0  0  0  0  0  0  0  0  0
   23.1117   18.8062   23.4193 C   0  0  0  0  0  0  0  0  0  0  0  0
   23.0975   18.2634   24.3745 H   0  0  0  0  0  0  0  0  0  0  0  0
   24.0093   18.4677   22.8836 H   0  0  0  0  0  0  0  0  0  0  0  0
   23.2341   20.3224   23.6850 C   0  0  0  0  0  0  0  0  0  0  0  0
   22.4162   20.6855   24.3197 H   0  0  0  0  0  0  0  0  0  0  0  0
   24.1776   20.5469   24.1990 H   0  0  0  0  0  0  0  0  0  0  0  0
   23.2184   20.8887   22.7447 H   0  0  0  0  0  0  0  0  0  0  0  0
  1  2  1  0  0  0  0
  1  3  2  0  0  0  0
  1  4  1  0  0  0  0
  4  5  1  0  0  0  0
  4  6  1  0  0  0  0
  4  7  1  0  0  0  0
  7  8  1  0  0  0  0
  7  9  1  0  0  0  0
  7 10  1  0  0  0  0
 10 11  1  0  0  0  0
 10 12  1  0  0  0  0
 10 13  1  0  0  0  0
 13 14  1  0  0  0  0
 13 15  1  0  0  0  0
 13 16  1  0  0  0  0
 16 17  1  0  0  0  0
 16 18  1  0  0  0  0
 16 19  1  0  0  0  0
 19 20  1  0  0  0  0
 19 21  1  0  0  0  0
 19 22  1  0  0  0  0
 22 23  1  0  0  0  0
 22 24  1  0  0  0  0
 22 25  1  0  0  0  0
M  END
> <VConfSearch Rank>
968

> <Conf_Id>
4

> <Delta U+W>
0.189

> <U+W>
-51.441

> <U>
7.701

> <W>
-59.141

> <W(PB)>
-61.609

> <W(SA)>
2.467

> <Valence>
8.550

> <Coulomb>
-1.988

> <VdW>
1.139

> <VdW6>
-8.988

> <VdW12>
10.127

> <Bond>
0.191

> <Angle>
2.738

> <Pdih>
5.621

> <Idih>
0.001

> <Tether>
0.000

$$$$
VeraChem MOL file


 25 24  0  0  0  0  0  0  0  0999 V2000     
   21.5844   16.7631   26.1820 C   0  0  0  0  0  0  0  0  0  0  0  0
   22.2420   15.9354   25.5828 O   0  5  0  0  0  0  0  0  0  0  0  0
   21.5695   16.8627   27.3931 O   0  0  0  0  0  0  0  0  0  0  0  0
   20.7502   17.7464   25.3688 C   0  0  0  0  0  0  0  0  0  0  0  0
   19.8616   18.0058   25.9565 H   0  0  0  0  0  0  0  0  0  0  0  0
   20.4049   17.2251   24.4690 H   0  0  0  0  0  0  0  0  0  0  0  0
   21.5353   19.0293   24.9908 C   0  0  0  0  0  0  0  0  0  0  0  0
   21.9465   19.4739   25.9076 H   0  0  0  0  0  0  0  0  0  0  0  0
   22.3963   18.7610   24.3632 H   0  0  0  0  0  0  0  0  0  0  0  0
   20.6728   20.0918   24.2686 C   0  0  0  0  0  0  0  0  0  0  0  0
   21.2738   21.0034   24.1468 H   0  0  0  0  0  0  0  0  0  0  0  0
   19.8184   20.3652   24.9028 H   0  0  0  0  0  0  0  0  0  0  0  0
   20.1661   19.6335   22.8814 C   0  0  0  0  0  0  0  0  0  0  0  0
   21.0183   19.3137   22.2667 H   0  0  0  0  0  0  0  0  0  0  0  0
   19.5090   18.7635   22.9994 H   0  0  0  0  0  0  0  0  0  0  0  0
   19.3998   20.7624   22.1537 C   0  0  0  0  0  0  0  0  0  0  0  0
   20.0423   21.6516   22.0958 H   0  0  0  0  0  0  0  0  0  0  0  0
   18.5199   21.0524   22.7442 H   0  0  0  0  0  0  0  0  0  0  0  0
   18.9588   20.3823   20.7209 C   0  0  0  0  0  0  0  0  0  0  0  0
   18.5317   21.2711   20.2364 H   0  0  0  0  0  0  0  0  0  0  0  0
   19.8372   20.0967   20.1259 H   0  0  0  0  0  0  0  0  0  0  0  0
   17.9140   19.2458   20.6834 C   0  0  0  0  0  0  0  0  0  0  0  0
   17.0393   19.4956   21.2979 H   0  0  0  0  0  0  0  0  0  0  0  0
   17.5678   19.0767   19.6556 H   0  0  0  0  0  0  0  0  0  0  0  0
   18.3352   18.3018   21.0510 H   0  0  0  0  0  0  0  0  0  0  0  0
  1  2  1  0  0  0  0
  1  3  2  0  0  0  0
  1  4  1  0  0  0  0
  4  5  1  0  0  0  0
  4  6  1  0  0  0  0
  4  7  1  0  0  0  0
  7  8  1  0  0  0  0
  7  9  1  0  0  0  0
  7 10  1  0  0  0  0
 10 11  1  0  0  0  0
 10 12  1  0  0  0  0
 10 13  1  0  0  0  0
 13 14  1  0  0  0  0
 13 15  1  0  0  0  0
 13 16  1  0  0  0  0
 16 17  1  0  0  0  0
 16 18  1  0  0  0  0
 16 19  1  0  0  0  0
 19 20  1  0  0  0  0
 19 21  1  0  0  0  0
 19 22  1  0  0  0  0
 22 23  1  0  0  0  0
 22 24  1  0  0  0  0
 22 25  1  0  0  0  0
M  END
> <VConfSearch Rank>
969

> <Conf_Id>
17

> <Delta U+W>
0.219

> <U+W>
-51.411

> <U>
7.701

> <W>
-59.111

> <W(PB)>
-61.599

> <W(SA)>
2.488

> <Valence>
8.550

> <Coulomb>
-1.988

> <VdW>
1.139

> <VdW6>
-8.988

> <VdW12>
10.127

> <Bond>
0.191

> <Angle>
2.738

> <Pdih>
5.621

> <Idih>
0.001

> <Tether>
0.000

$$$$
VeraChem MOL file


 25 24  0  0  0  0  0  0  0  0999 V2000     
   19.8679   19.5754   27.1771 C   0  0  0  0  0  0  0  0  0  0  0  0
   18.9623   20.3075   27.5251 O   0  5  0  0  0  0  0  0  0  0  0  0
   21.0423   19.8167   27.3761 O   0  0  0  0  0  0  0  0  0  0  0  0
   19.5120   18.2716   26.4683 C   0  0  0  0  0  0  0  0  0  0  0  0
   18.4635   18.0317   26.6825 H   0  0  0  0  0  0  0  0  0  0  0  0
   20.1178   17.4768   26.9192 H   0  0  0  0  0  0  0  0  0  0  0  0
   19.7538   18.3019   24.9368 C   0  0  0  0  0  0  0  0  0  0  0  0
   20.8035   18.5625   24.7479 H   0  0  0  0  0  0  0  0  0  0  0  0
   19.5985   17.2931   24.5311 H   0  0  0  0  0  0  0  0  0  0  0  0
   18.8164   19.2952   24.2092 C   0  0  0  0  0  0  0  0  0  0  0  0
   19.0138   20.3183   24.5579 H   0  0  0  0  0  0  0  0  0  0  0  0
   17.7765   19.0707   24.4831 H   0  0  0  0  0  0  0  0  0  0  0  0
   18.9407   19.2433   22.6679 C   0  0  0  0  0  0  0  0  0  0  0  0
   18.7351   18.2231   22.3161 H   0  0  0  0  0  0  0  0  0  0  0  0
   18.1610   19.8844   22.2345 H   0  0  0  0  0  0  0  0  0  0  0  0
   20.3201   19.7072   22.1453 C   0  0  0  0  0  0  0  0  0  0  0  0
   21.1051   19.0312   22.5081 H   0  0  0  0  0  0  0  0  0  0  0  0
   20.5468   20.7055   22.5439 H   0  0  0  0  0  0  0  0  0  0  0  0
   20.3619   19.7466   20.6031 C   0  0  0  0  0  0  0  0  0  0  0  0
   20.1337   18.7497   20.2011 H   0  0  0  0  0  0  0  0  0  0  0  0
   19.5851   20.4275   20.2282 H   0  0  0  0  0  0  0  0  0  0  0  0
   21.7391   20.2059   20.0834 C   0  0  0  0  0  0  0  0  0  0  0  0
   22.5321   19.5237   20.4168 H   0  0  0  0  0  0  0  0  0  0  0  0
   21.7507   20.2284   18.9860 H   0  0  0  0  0  0  0  0  0  0  0  0
   21.9793   21.2140   20.4458 H   0  0  0  0  0  0  0  0  0  0  0  0
  1  2  1  0  0  0  0
  1  3  2  0  0  0  0
  1  4  1  0  0  0  0
  4  5  1  0  0  0  0
  4  6  1  0  0  0  0
  4  7  1  0  0  0  0
  7  8  1  0  0  0  0
  7  9  1  0  0  0  0
  7 10  1  0  0  0  0
 10 11  1  0  0  0  0
 10 12  1  0  0  0  0
 10 13  1  0  0  0  0
 13 14  1  0  0  0  0
 13 15  1  0  0  0  0
 13 16  1  0  0  0  0
 16 17  1  0  0  0  0
 16 18  1  0  0  0  0
 16 19  1  0  0  0  0
 19 20  1  0  0  0  0
 19 21  1  0  0  0  0
 19 22  1  0  0  0  0
 22 23  1  0  0  0  0
 22 24  1  0  0  0  0
 22 25  1  0  0  0  0
M  END
> <VConfSearch Rank>
970

> <Conf_Id>
142

> <Delta U+W>
0.593

> <U+W>
-51.037

> <U>
8.903

> <W>
-59.940

> <W(PB)>
-62.418

> <W(SA)>
2.478

> <Valence>
8.305

> <Coulomb>
-0.223

> <VdW>
0.821

> <VdW6>
-9.236

> <VdW12>
10.057

> <Bond>
0.173

> <Angle>
2.663

> <Pdih>
5.469

> <Idih>
0.001

> <Tether>
0.000

$$$$
VeraChem MOL file


 25 24  0  0  0  0  0  0  0  0999 V2000     
   19.7962   18.2181   26.7737 C   0  0  0  0  0  0  0  0  0  0  0  0
   20.1782   18.5410   27.8815 O   0  5  0  0  0  0  0  0  0  0  0  0
   18.6421   17.9371   26.5162 O   0  0  0  0  0  0  0  0  0  0  0  0
   20.8291   18.1350   25.6534 C   0  0  0  0  0  0  0  0  0  0  0  0
   20.3955   17.5760   24.8163 H   0  0  0  0  0  0  0  0  0  0  0  0
   21.6674   17.5351   26.0263 H   0  0  0  0  0  0  0  0  0  0  0  0
   21.3571   19.5148   25.1742 C   0  0  0  0  0  0  0  0  0  0  0  0
   21.8452   20.0178   26.0203 H   0  0  0  0  0  0  0  0  0  0  0  0
   22.1423   19.3605   24.4229 H   0  0  0  0  0  0  0  0  0  0  0  0
   20.2648   20.4551   24.6021 C   0  0  0  0  0  0  0  0  0  0  0  0
   20.7362   21.4001   24.2997 H   0  0  0  0  0  0  0  0  0  0  0  0
   19.5596   20.7134   25.4040 H   0  0  0  0  0  0  0  0  0  0  0  0
   19.4643   19.8875   23.4032 C   0  0  0  0  0  0  0  0  0  0  0  0
   18.8957   19.0026   23.7192 H   0  0  0  0  0  0  0  0  0  0  0  0
   18.7179   20.6350   23.1020 H   0  0  0  0  0  0  0  0  0  0  0  0
   20.3454   19.5366   22.1821 C   0  0  0  0  0  0  0  0  0  0  0  0
   21.0499   18.7376   22.4475 H   0  0  0  0  0  0  0  0  0  0  0  0
   20.9444   20.4124   21.8978 H   0  0  0  0  0  0  0  0  0  0  0  0
   19.4954   19.0797   20.9779 C   0  0  0  0  0  0  0  0  0  0  0  0
   18.8933   18.2052   21.2610 H   0  0  0  0  0  0  0  0  0  0  0  0
   18.7911   19.8753   20.6979 H   0  0  0  0  0  0  0  0  0  0  0  0
   20.3759   18.7244   19.7629 C   0  0  0  0  0  0  0  0  0  0  0  0
   21.0689   17.9082   20.0055 H   0  0  0  0  0  0  0  0  0  0  0  0
   19.7555   18.4020   18.9166 H   0  0  0  0  0  0  0  0  0  0  0  0
   20.9669   19.5912   19.4394 H   0  0  0  0  0  0  0  0  0  0  0  0
  1  2  1  0  0  0  0
  1  3  2  0  0  0  0
  1  4  1  0  0  0  0
  4  5  1  0  0  0  0
  4  6  1  0  0  0  0
  4  7  1  0  0  0  0
  7  8  1  0  0  0  0
  7  9  1  0  0  0  0
  7 10  1  0  0  0  0
 10 11  1  0  0  0  0
 10 12  1  0  0  0  0
 10 13  1  0  0  0  0
 13 14  1  0  0  0  0
 13 15  1  0  0  0  0
 13 16  1  0  0  0  0
 16 17  1  0  0  0  0
 16 18  1  0  0  0  0
 16 19  1  0  0  0  0
 19 20  1  0  0  0  0
 19 21  1  0  0  0  0
 19 22  1  0  0  0  0
 22 23  1  0  0  0  0
 22 24  1  0  0  0  0
 22 25  1  0  0  0  0
M  END
> <VConfSearch Rank>
971

> <Conf_Id>
135

> <Delta U+W>
1.314

> <U+W>
-50.316

> <U>
9.773

> <W>
-60.088

> <W(PB)>
-62.535

> <W(SA)>
2.447

> <Valence>
8.741

> <Coulomb>
0.479

> <VdW>
0.552

> <VdW6>
-10.627

> <VdW12>
11.179

> <Bond>
0.227

> <Angle>
3.155

> <Pdih>
5.358

> <Idih>
0.001

> <Tether>
0.000

$$$$
VeraChem MOL file


 25 24  0  0  0  0  0  0  0  0999 V2000     
   16.8150   16.5616   23.4972 C   0  0  0  0  0  0  0  0  0  0  0  0
   15.8716   17.0136   24.1156 O   0  5  0  0  0  0  0  0  0  0  0  0
   16.7257   15.6355   22.7153 O   0  0  0  0  0  0  0  0  0  0  0  0
   18.1820   17.2065   23.6960 C   0  0  0  0  0  0  0  0  0  0  0  0
   18.9458   16.4304   23.5664 H   0  0  0  0  0  0  0  0  0  0  0  0
   18.2394   17.5495   24.7348 H   0  0  0  0  0  0  0  0  0  0  0  0
   18.4394   18.3796   22.7144 C   0  0  0  0  0  0  0  0  0  0  0  0
   18.2771   18.0198   21.6889 H   0  0  0  0  0  0  0  0  0  0  0  0
   17.6980   19.1724   22.8852 H   0  0  0  0  0  0  0  0  0  0  0  0
   19.8674   18.9681   22.8102 C   0  0  0  0  0  0  0  0  0  0  0  0
   19.9965   19.6743   21.9804 H   0  0  0  0  0  0  0  0  0  0  0  0
   20.6071   18.1693   22.6641 H   0  0  0  0  0  0  0  0  0  0  0  0
   20.1436   19.7027   24.1438 C   0  0  0  0  0  0  0  0  0  0  0  0
   19.4371   20.5366   24.2534 H   0  0  0  0  0  0  0  0  0  0  0  0
   19.9516   19.0236   24.9837 H   0  0  0  0  0  0  0  0  0  0  0  0
   21.5922   20.2337   24.2881 C   0  0  0  0  0  0  0  0  0  0  0  0
   22.3029   19.3961   24.2739 H   0  0  0  0  0  0  0  0  0  0  0  0
   21.6811   20.6826   25.2868 H   0  0  0  0  0  0  0  0  0  0  0  0
   22.0003   21.3015   23.2424 C   0  0  0  0  0  0  0  0  0  0  0  0
   21.1134   21.8405   22.8815 H   0  0  0  0  0  0  0  0  0  0  0  0
   22.6337   22.0521   23.7350 H   0  0  0  0  0  0  0  0  0  0  0  0
   22.7924   20.7150   22.0525 C   0  0  0  0  0  0  0  0  0  0  0  0
   22.2125   19.9611   21.5080 H   0  0  0  0  0  0  0  0  0  0  0  0
   23.0626   21.5076   21.3429 H   0  0  0  0  0  0  0  0  0  0  0  0
   23.7213   20.2426   22.3975 H   0  0  0  0  0  0  0  0  0  0  0  0
  1  2  1  0  0  0  0
  1  3  2  0  0  0  0
  1  4  1  0  0  0  0
  4  5  1  0  0  0  0
  4  6  1  0  0  0  0
  4  7  1  0  0  0  0
  7  8  1  0  0  0  0
  7  9  1  0  0  0  0
  7 10  1  0  0  0  0
 10 11  1  0  0  0  0
 10 12  1  0  0  0  0
 10 13  1  0  0  0  0
 13 14  1  0  0  0  0
 13 15  1  0  0  0  0
 13 16  1  0  0  0  0
 16 17  1  0  0  0  0
 16 18  1  0  0  0  0
 16 19  1  0  0  0  0
 19 20  1  0  0  0  0
 19 21  1  0  0  0  0
 19 22  1  0  0  0  0
 22 23  1  0  0  0  0
 22 24  1  0  0  0  0
 22 25  1  0  0  0  0
M  END
> <VConfSearch Rank>
972

> <Conf_Id>
19

> <Delta U+W>
3.222

> <U+W>
-48.407

> <U>
10.617

> <W>
-59.025

> <W(PB)>
-61.462

> <W(SA)>
2.437

> <Valence>
11.188

> <Coulomb>
-1.778

> <VdW>
1.208

> <VdW6>
-9.786

> <VdW12>
10.993

> <Bond>
0.241

> <Angle>
3.294

> <Pdih>
7.653

> <Idih>
0.001

> <Tether>
0.000

$$$$
VeraChem MOL file


 25 24  0  0  0  0  0  0  0  0999 V2000     
   21.1540   16.0001   25.7902 C   0  0  0  0  0  0  0  0  0  0  0  0
   20.7644   14.9185   25.3962 O   0  5  0  0  0  0  0  0  0  0  0  0
   21.4756   16.2212   26.9411 O   0  0  0  0  0  0  0  0  0  0  0  0
   21.2210   17.1493   24.7907 C   0  0  0  0  0  0  0  0  0  0  0  0
   21.4783   16.7252   23.8139 H   0  0  0  0  0  0  0  0  0  0  0  0
   22.0451   17.8093   25.0867 H   0  0  0  0  0  0  0  0  0  0  0  0
   19.8957   17.9512   24.7103 C   0  0  0  0  0  0  0  0  0  0  0  0
   19.0865   17.2921   24.3667 H   0  0  0  0  0  0  0  0  0  0  0  0
   19.6213   18.2761   25.7235 H   0  0  0  0  0  0  0  0  0  0  0  0
   19.9786   19.1986   23.7981 C   0  0  0  0  0  0  0  0  0  0  0  0
   20.8042   19.8436   24.1280 H   0  0  0  0  0  0  0  0  0  0  0  0
   19.0543   19.7748   23.9314 H   0  0  0  0  0  0  0  0  0  0  0  0
   20.1462   18.8559   22.2985 C   0  0  0  0  0  0  0  0  0  0  0  0
   21.0316   18.2226   22.1632 H   0  0  0  0  0  0  0  0  0  0  0  0
   19.2864   18.2605   21.9625 H   0  0  0  0  0  0  0  0  0  0  0  0
   20.3059   20.0928   21.3786 C   0  0  0  0  0  0  0  0  0  0  0  0
   20.4703   19.7248   20.3566 H   0  0  0  0  0  0  0  0  0  0  0  0
   21.2170   20.6453   21.6462 H   0  0  0  0  0  0  0  0  0  0  0  0
   19.0862   21.0479   21.3560 C   0  0  0  0  0  0  0  0  0  0  0  0
   18.9541   21.4254   20.3326 H   0  0  0  0  0  0  0  0  0  0  0  0
   18.1666   20.4980   21.5992 H   0  0  0  0  0  0  0  0  0  0  0  0
   19.2489   22.2632   22.2960 C   0  0  0  0  0  0  0  0  0  0  0  0
   20.1226   22.8632   22.0100 H   0  0  0  0  0  0  0  0  0  0  0  0
   18.3647   22.9114   22.2423 H   0  0  0  0  0  0  0  0  0  0  0  0
   19.3771   21.9572   23.3405 H   0  0  0  0  0  0  0  0  0  0  0  0
  1  2  1  0  0  0  0
  1  3  2  0  0  0  0
  1  4  1  0  0  0  0
  4  5  1  0  0  0  0
  4  6  1  0  0  0  0
  4  7  1  0  0  0  0
  7  8  1  0  0  0  0
  7  9  1  0  0  0  0
  7 10  1  0  0  0  0
 10 11  1  0  0  0  0
 10 12  1  0  0  0  0
 10 13  1  0  0  0  0
 13 14  1  0  0  0  0
 13 15  1  0  0  0  0
 13 16  1  0  0  0  0
 16 17  1  0  0  0  0
 16 18  1  0  0  0  0
 16 19  1  0  0  0  0
 19 20  1  0  0  0  0
 19 21  1  0  0  0  0
 19 22  1  0  0  0  0
 22 23  1  0  0  0  0
 22 24  1  0  0  0  0
 22 25  1  0  0  0  0
M  END
> <VConfSearch Rank>
973

> <Conf_Id>
20

> <Delta U+W>
3.224

> <U+W>
-48.406

> <U>
10.617

> <W>
-59.023

> <W(PB)>
-61.467

> <W(SA)>
2.444

> <Valence>
11.188

> <Coulomb>
-1.778

> <VdW>
1.208

> <VdW6>
-9.786

> <VdW12>
10.993

> <Bond>
0.241

> <Angle>
3.294

> <Pdih>
7.653

> <Idih>
0.001

> <Tether>
0.000

$$$$
VeraChem MOL file


 25 24  0  0  0  0  0  0  0  0999 V2000     
   21.0975   21.5486   21.6704 C   0  0  0  0  0  0  0  0  0  0  0  0
   21.6991   20.9691   20.7873 O   0  5  0  0  0  0  0  0  0  0  0  0
   21.6438   22.0782   22.6181 O   0  0  0  0  0  0  0  0  0  0  0  0
   19.5800   21.6764   21.5506 C   0  0  0  0  0  0  0  0  0  0  0  0
   19.3911   22.2679   20.6473 H   0  0  0  0  0  0  0  0  0  0  0  0
   19.2041   22.2656   22.3958 H   0  0  0  0  0  0  0  0  0  0  0  0
   18.8073   20.3315   21.4455 C   0  0  0  0  0  0  0  0  0  0  0  0
   17.8225   20.5397   21.0058 H   0  0  0  0  0  0  0  0  0  0  0  0
   19.3171   19.6607   20.7400 H   0  0  0  0  0  0  0  0  0  0  0  0
   18.5774   19.6071   22.7952 C   0  0  0  0  0  0  0  0  0  0  0  0
   17.8992   18.7611   22.6180 H   0  0  0  0  0  0  0  0  0  0  0  0
   18.0572   20.2789   23.4915 H   0  0  0  0  0  0  0  0  0  0  0  0
   19.8709   19.0767   23.4540 C   0  0  0  0  0  0  0  0  0  0  0  0
   20.4435   18.4897   22.7229 H   0  0  0  0  0  0  0  0  0  0  0  0
   20.5059   19.9181   23.7590 H   0  0  0  0  0  0  0  0  0  0  0  0
   19.5657   18.2057   24.6921 C   0  0  0  0  0  0  0  0  0  0  0  0
   18.9368   17.3545   24.3972 H   0  0  0  0  0  0  0  0  0  0  0  0
   18.9890   18.7928   25.4199 H   0  0  0  0  0  0  0  0  0  0  0  0
   20.8570   17.6850   25.3574 C   0  0  0  0  0  0  0  0  0  0  0  0
   21.4359   17.0965   24.6321 H   0  0  0  0  0  0  0  0  0  0  0  0
   21.4881   18.5339   25.6554 H   0  0  0  0  0  0  0  0  0  0  0  0
   20.5492   16.8161   26.5935 C   0  0  0  0  0  0  0  0  0  0  0  0
   19.9449   15.9418   26.3184 H   0  0  0  0  0  0  0  0  0  0  0  0
   21.4781   16.4549   27.0536 H   0  0  0  0  0  0  0  0  0  0  0  0
   19.9975   17.3901   27.3495 H   0  0  0  0  0  0  0  0  0  0  0  0
  1  2  1  0  0  0  0
  1  3  2  0  0  0  0
  1  4  1  0  0  0  0
  4  5  1  0  0  0  0
  4  6  1  0  0  0  0
  4  7  1  0  0  0  0
  7  8  1  0  0  0  0
  7  9  1  0  0  0  0
  7 10  1  0  0  0  0
 10 11  1  0  0  0  0
 10 12  1  0  0  0  0
 10 13  1  0  0  0  0
 13 14  1  0  0  0  0
 13 15  1  0  0  0  0
 13 16  1  0  0  0  0
 16 17  1  0  0  0  0
 16 18  1  0  0  0  0
 16 19  1  0  0  0  0
 19 20  1  0  0  0  0
 19 21  1  0  0  0  0
 19 22  1  0  0  0  0
 22 23  1  0  0  0  0
 22 24  1  0  0  0  0
 22 25  1  0  0  0  0
M  END
> <VConfSearch Rank>
974

> <Conf_Id>
24

> <Delta U+W>
1.784

> <U+W>
-49.846

> <U>
10.904

> <W>
-60.749

> <W(PB)>
-63.220

> <W(SA)>
2.471

> <Valence>
9.445

> <Coulomb>
0.780

> <VdW>
0.679

> <VdW6>
-10.008

> <VdW12>
10.687

> <Bond>
0.201

> <Angle>
3.198

> <Pdih>
6.039

> <Idih>
0.006

> <Tether>
0.000

$$$$
VeraChem MOL file


 25 24  0  0  0  0  0  0  0  0999 V2000     
   23.1201   19.8119   22.6944 C   0  0  0  0  0  0  0  0  0  0  0  0
   23.0333   20.9152   22.1914 O   0  5  0  0  0  0  0  0  0  0  0  0
   23.5306   19.6193   23.8220 O   0  0  0  0  0  0  0  0  0  0  0  0
   22.7575   18.5965   21.8430 C   0  0  0  0  0  0  0  0  0  0  0  0
   22.9391   17.6857   22.4263 H   0  0  0  0  0  0  0  0  0  0  0  0
   23.4684   18.5817   21.0088 H   0  0  0  0  0  0  0  0  0  0  0  0
   21.3105   18.5926   21.2746 C   0  0  0  0  0  0  0  0  0  0  0  0
   21.0630   19.5852   20.8734 H   0  0  0  0  0  0  0  0  0  0  0  0
   21.2846   17.9058   20.4178 H   0  0  0  0  0  0  0  0  0  0  0  0
   20.2202   18.1379   22.2765 C   0  0  0  0  0  0  0  0  0  0  0  0
   20.4674   17.1403   22.6644 H   0  0  0  0  0  0  0  0  0  0  0  0
   19.2749   18.0297   21.7272 H   0  0  0  0  0  0  0  0  0  0  0  0
   20.0008   19.1135   23.4549 C   0  0  0  0  0  0  0  0  0  0  0  0
   20.8934   19.1343   24.0927 H   0  0  0  0  0  0  0  0  0  0  0  0
   19.8572   20.1320   23.0688 H   0  0  0  0  0  0  0  0  0  0  0  0
   18.7823   18.7084   24.3126 C   0  0  0  0  0  0  0  0  0  0  0  0
   18.9255   17.6880   24.6937 H   0  0  0  0  0  0  0  0  0  0  0  0
   17.8801   18.6924   23.6859 H   0  0  0  0  0  0  0  0  0  0  0  0
   18.5692   19.6754   25.4962 C   0  0  0  0  0  0  0  0  0  0  0  0
   19.4692   19.6927   26.1265 H   0  0  0  0  0  0  0  0  0  0  0  0
   18.4249   20.6970   25.1182 H   0  0  0  0  0  0  0  0  0  0  0  0
   17.3522   19.2682   26.3510 C   0  0  0  0  0  0  0  0  0  0  0  0
   17.4844   18.2612   26.7680 H   0  0  0  0  0  0  0  0  0  0  0  0
   17.2159   19.9661   27.1873 H   0  0  0  0  0  0  0  0  0  0  0  0
   16.4321   19.2732   25.7520 H   0  0  0  0  0  0  0  0  0  0  0  0
  1  2  1  0  0  0  0
  1  3  2  0  0  0  0
  1  4  1  0  0  0  0
  4  5  1  0  0  0  0
  4  6  1  0  0  0  0
  4  7  1  0  0  0  0
  7  8  1  0  0  0  0
  7  9  1  0  0  0  0
  7 10  1  0  0  0  0
 10 11  1  0  0  0  0
 10 12  1  0  0  0  0
 10 13  1  0  0  0  0
 13 14  1  0  0  0  0
 13 15  1  0  0  0  0
 13 16  1  0  0  0  0
 16 17  1  0  0  0  0
 16 18  1  0  0  0  0
 16 19  1  0  0  0  0
 19 20  1  0  0  0  0
 19 21  1  0  0  0  0
 19 22  1  0  0  0  0
 22 23  1  0  0  0  0
 22 24  1  0  0  0  0
 22 25  1  0  0  0  0
M  END
> <VConfSearch Rank>
975

> <Conf_Id>
9

> <Delta U+W>
1.764

> <U+W>
-49.865

> <U>
10.902

> <W>
-60.768

> <W(PB)>
-63.223

> <W(SA)>
2.456

> <Valence>
9.445

> <Coulomb>
0.778

> <VdW>
0.679

> <VdW6>
-10.007

> <VdW12>
10.687

> <Bond>
0.201

> <Angle>
3.198

> <Pdih>
6.040

> <Idih>
0.006

> <Tether>
0.000

$$$$
VeraChem MOL file


 25 24  0  0  0  0  0  0  0  0999 V2000     
   22.2709   21.0501   25.6131 C   0  0  0  0  0  0  0  0  0  0  0  0
   23.2235   20.3833   25.2602 O   0  5  0  0  0  0  0  0  0  0  0  0
   22.3711   22.1084   26.2020 O   0  0  0  0  0  0  0  0  0  0  0  0
   20.8729   20.5413   25.2809 C   0  0  0  0  0  0  0  0  0  0  0  0
   20.1981   20.8584   26.0848 H   0  0  0  0  0  0  0  0  0  0  0  0
   20.9014   19.4475   25.3014 H   0  0  0  0  0  0  0  0  0  0  0  0
   20.3542   21.0625   23.9145 C   0  0  0  0  0  0  0  0  0  0  0  0
   20.3407   22.1605   23.9553 H   0  0  0  0  0  0  0  0  0  0  0  0
   21.0593   20.7953   23.1152 H   0  0  0  0  0  0  0  0  0  0  0  0
   18.9300   20.5625   23.5627 C   0  0  0  0  0  0  0  0  0  0  0  0
   18.4098   21.3661   23.0237 H   0  0  0  0  0  0  0  0  0  0  0  0
   18.3480   20.3929   24.4789 H   0  0  0  0  0  0  0  0  0  0  0  0
   18.8913   19.3002   22.6650 C   0  0  0  0  0  0  0  0  0  0  0  0
   17.8434   19.0887   22.4124 H   0  0  0  0  0  0  0  0  0  0  0  0
   19.3998   19.5195   21.7169 H   0  0  0  0  0  0  0  0  0  0  0  0
   19.5152   18.0412   23.3121 C   0  0  0  0  0  0  0  0  0  0  0  0
   19.1095   17.9193   24.3255 H   0  0  0  0  0  0  0  0  0  0  0  0
   20.5996   18.1764   23.4169 H   0  0  0  0  0  0  0  0  0  0  0  0
   19.2445   16.7449   22.5134 C   0  0  0  0  0  0  0  0  0  0  0  0
   19.6318   15.8906   23.0854 H   0  0  0  0  0  0  0  0  0  0  0  0
   18.1614   16.5879   22.4165 H   0  0  0  0  0  0  0  0  0  0  0  0
   19.8965   16.7443   21.1137 C   0  0  0  0  0  0  0  0  0  0  0  0
   20.9770   16.9250   21.1838 H   0  0  0  0  0  0  0  0  0  0  0  0
   19.7469   15.7751   20.6206 H   0  0  0  0  0  0  0  0  0  0  0  0
   19.4594   17.5167   20.4685 H   0  0  0  0  0  0  0  0  0  0  0  0
  1  2  1  0  0  0  0
  1  3  2  0  0  0  0
  1  4  1  0  0  0  0
  4  5  1  0  0  0  0
  4  6  1  0  0  0  0
  4  7  1  0  0  0  0
  7  8  1  0  0  0  0
  7  9  1  0  0  0  0
  7 10  1  0  0  0  0
 10 11  1  0  0  0  0
 10 12  1  0  0  0  0
 10 13  1  0  0  0  0
 13 14  1  0  0  0  0
 13 15  1  0  0  0  0
 13 16  1  0  0  0  0
 16 17  1  0  0  0  0
 16 18  1  0  0  0  0
 16 19  1  0  0  0  0
 19 20  1  0  0  0  0
 19 21  1  0  0  0  0
 19 22  1  0  0  0  0
 22 23  1  0  0  0  0
 22 24  1  0  0  0  0
 22 25  1  0  0  0  0
M  END
> <VConfSearch Rank>
976

> <Conf_Id>
89

> <Delta U+W>
2.903

> <U+W>
-48.726

> <U>
10.996

> <W>
-59.723

> <W(PB)>
-62.151

> <W(SA)>
2.428

> <Valence>
10.985

> <Coulomb>
-0.995

> <VdW>
1.006

> <VdW6>
-10.062

> <VdW12>
11.069

> <Bond>
0.238

> <Angle>
3.202

> <Pdih>
7.544

> <Idih>
0.001

> <Tether>
0.000

$$$$
VeraChem MOL file


 25 24  0  0  0  0  0  0  0  0999 V2000     
   18.6880   21.1231   25.8652 C   0  0  0  0  0  0  0  0  0  0  0  0
   17.5809   21.2473   25.3793 O   0  5  0  0  0  0  0  0  0  0  0  0
   18.8943   20.5824   26.9342 O   0  0  0  0  0  0  0  0  0  0  0  0
   19.8732   21.7366   25.1221 C   0  0  0  0  0  0  0  0  0  0  0  0
   20.2639   22.5305   25.7692 H   0  0  0  0  0  0  0  0  0  0  0  0
   19.5086   22.2260   24.2108 H   0  0  0  0  0  0  0  0  0  0  0  0
   21.0256   20.7502   24.7805 C   0  0  0  0  0  0  0  0  0  0  0  0
   21.9376   21.3402   24.6172 H   0  0  0  0  0  0  0  0  0  0  0  0
   21.2352   20.1042   25.6444 H   0  0  0  0  0  0  0  0  0  0  0  0
   20.7920   19.8867   23.5157 C   0  0  0  0  0  0  0  0  0  0  0  0
   21.7321   19.3688   23.2890 H   0  0  0  0  0  0  0  0  0  0  0  0
   20.5836   20.5388   22.6567 H   0  0  0  0  0  0  0  0  0  0  0  0
   19.6570   18.8447   23.6651 C   0  0  0  0  0  0  0  0  0  0  0  0
   19.8296   18.2295   24.5587 H   0  0  0  0  0  0  0  0  0  0  0  0
   18.7059   19.3670   23.8250 H   0  0  0  0  0  0  0  0  0  0  0  0
   19.4903   17.9305   22.4275 C   0  0  0  0  0  0  0  0  0  0  0  0
   19.3503   18.5478   21.5296 H   0  0  0  0  0  0  0  0  0  0  0  0
   18.5669   17.3481   22.5501 H   0  0  0  0  0  0  0  0  0  0  0  0
   20.6695   16.9543   22.2132 C   0  0  0  0  0  0  0  0  0  0  0  0
   21.5919   17.5118   22.0056 H   0  0  0  0  0  0  0  0  0  0  0  0
   20.8436   16.3766   23.1314 H   0  0  0  0  0  0  0  0  0  0  0  0
   20.3966   15.9866   21.0440 C   0  0  0  0  0  0  0  0  0  0  0  0
   20.2452   16.5371   20.1062 H   0  0  0  0  0  0  0  0  0  0  0  0
   21.2434   15.3024   20.9024 H   0  0  0  0  0  0  0  0  0  0  0  0
   19.5007   15.3815   21.2350 H   0  0  0  0  0  0  0  0  0  0  0  0
  1  2  1  0  0  0  0
  1  3  2  0  0  0  0
  1  4  1  0  0  0  0
  4  5  1  0  0  0  0
  4  6  1  0  0  0  0
  4  7  1  0  0  0  0
  7  8  1  0  0  0  0
  7  9  1  0  0  0  0
  7 10  1  0  0  0  0
 10 11  1  0  0  0  0
 10 12  1  0  0  0  0
 10 13  1  0  0  0  0
 13 14  1  0  0  0  0
 13 15  1  0  0  0  0
 13 16  1  0  0  0  0
 16 17  1  0  0  0  0
 16 18  1  0  0  0  0
 16 19  1  0  0  0  0
 19 20  1  0  0  0  0
 19 21  1  0  0  0  0
 19 22  1  0  0  0  0
 22 23  1  0  0  0  0
 22 24  1  0  0  0  0
 22 25  1  0  0  0  0
M  END
> <VConfSearch Rank>
977

> <Conf_Id>
114

> <Delta U+W>
2.758

> <U+W>
-48.871

> <U>
11.422

> <W>
-60.293

> <W(PB)>
-62.719

> <W(SA)>
2.425

> <Valence>
10.135

> <Coulomb>
0.369

> <VdW>
0.918

> <VdW6>
-10.482

> <VdW12>
11.400

> <Bond>
0.245

> <Angle>
3.539

> <Pdih>
6.346

> <Idih>
0.006

> <Tether>
0.000

$$$$
VeraChem MOL file


 25 24  0  0  0  0  0  0  0  0999 V2000     
   16.8607   19.8690   25.0692 C   0  0  0  0  0  0  0  0  0  0  0  0
   16.9129   21.0460   25.3674 O   0  5  0  0  0  0  0  0  0  0  0  0
   16.0437   19.4060   24.2976 O   0  0  0  0  0  0  0  0  0  0  0  0
   17.8620   18.9146   25.7138 C   0  0  0  0  0  0  0  0  0  0  0  0
   17.3058   18.0297   26.0450 H   0  0  0  0  0  0  0  0  0  0  0  0
   18.2683   19.3898   26.6148 H   0  0  0  0  0  0  0  0  0  0  0  0
   19.0135   18.4797   24.7705 C   0  0  0  0  0  0  0  0  0  0  0  0
   19.6069   17.7007   25.2677 H   0  0  0  0  0  0  0  0  0  0  0  0
   18.5814   18.0242   23.8699 H   0  0  0  0  0  0  0  0  0  0  0  0
   19.9389   19.6586   24.3842 C   0  0  0  0  0  0  0  0  0  0  0  0
   20.2830   20.1556   25.3015 H   0  0  0  0  0  0  0  0  0  0  0  0
   19.3704   20.4109   23.8202 H   0  0  0  0  0  0  0  0  0  0  0  0
   21.1797   19.2292   23.5652 C   0  0  0  0  0  0  0  0  0  0  0  0
   21.8400   20.1004   23.4691 H   0  0  0  0  0  0  0  0  0  0  0  0
   21.7446   18.4702   24.1230 H   0  0  0  0  0  0  0  0  0  0  0  0
   20.8314   18.6909   22.1554 C   0  0  0  0  0  0  0  0  0  0  0  0
   20.2634   19.4490   21.5993 H   0  0  0  0  0  0  0  0  0  0  0  0
   20.1747   17.8169   22.2500 H   0  0  0  0  0  0  0  0  0  0  0  0
   22.0728   18.2692   21.3347 C   0  0  0  0  0  0  0  0  0  0  0  0
   22.6498   17.5193   21.8932 H   0  0  0  0  0  0  0  0  0  0  0  0
   21.7337   17.7760   20.4133 H   0  0  0  0  0  0  0  0  0  0  0  0
   22.9886   19.4529   20.9536 C   0  0  0  0  0  0  0  0  0  0  0  0
   23.7980   19.1145   20.2939 H   0  0  0  0  0  0  0  0  0  0  0  0
   22.4245   20.2316   20.4240 H   0  0  0  0  0  0  0  0  0  0  0  0
   23.4511   19.9047   21.8399 H   0  0  0  0  0  0  0  0  0  0  0  0
  1  2  1  0  0  0  0
  1  3  2  0  0  0  0
  1  4  1  0  0  0  0
  4  5  1  0  0  0  0
  4  6  1  0  0  0  0
  4  7  1  0  0  0  0
  7  8  1  0  0  0  0
  7  9  1  0  0  0  0
  7 10  1  0  0  0  0
 10 11  1  0  0  0  0
 10 12  1  0  0  0  0
 10 13  1  0  0  0  0
 13 14  1  0  0  0  0
 13 15  1  0  0  0  0
 13 16  1  0  0  0  0
 16 17  1  0  0  0  0
 16 18  1  0  0  0  0
 16 19  1  0  0  0  0
 19 20  1  0  0  0  0
 19 21  1  0  0  0  0
 19 22  1  0  0  0  0
 22 23  1  0  0  0  0
 22 24  1  0  0  0  0
 22 25  1  0  0  0  0
M  END
> <VConfSearch Rank>
978

> <Conf_Id>
87

> <Delta U+W>
1.453

> <U+W>
-50.176

> <U>
9.763

> <W>
-59.940

> <W(PB)>
-62.392

> <W(SA)>
2.452

> <Valence>
8.883

> <Coulomb>
-0.122

> <VdW>
1.003

> <VdW6>
-9.782

> <VdW12>
10.785

> <Bond>
0.212

> <Angle>
2.940

> <Pdih>
5.730

> <Idih>
0.001

> <Tether>
0.000

$$$$
VeraChem MOL file


 25 24  0  0  0  0  0  0  0  0999 V2000     
   17.2003   20.7891   25.4895 C   0  0  0  0  0  0  0  0  0  0  0  0
   17.7333   21.8185   25.8541 O   0  5  0  0  0  0  0  0  0  0  0  0
   16.0091   20.6883   25.2717 O   0  0  0  0  0  0  0  0  0  0  0  0
   18.0776   19.5607   25.2757 C   0  0  0  0  0  0  0  0  0  0  0  0
   17.4844   18.6717   25.5214 H   0  0  0  0  0  0  0  0  0  0  0  0
   18.9070   19.6055   25.9916 H   0  0  0  0  0  0  0  0  0  0  0  0
   18.6248   19.4567   23.8309 C   0  0  0  0  0  0  0  0  0  0  0  0
   17.7836   19.4212   23.1250 H   0  0  0  0  0  0  0  0  0  0  0  0
   19.1974   20.3653   23.6019 H   0  0  0  0  0  0  0  0  0  0  0  0
   19.5161   18.2072   23.6435 C   0  0  0  0  0  0  0  0  0  0  0  0
   18.9489   17.3156   23.9435 H   0  0  0  0  0  0  0  0  0  0  0  0
   20.3788   18.2611   24.3204 H   0  0  0  0  0  0  0  0  0  0  0  0
   20.0013   18.0089   22.1856 C   0  0  0  0  0  0  0  0  0  0  0  0
   20.5741   17.0741   22.1267 H   0  0  0  0  0  0  0  0  0  0  0  0
   19.1263   17.8620   21.5381 H   0  0  0  0  0  0  0  0  0  0  0  0
   20.8551   19.1686   21.6077 C   0  0  0  0  0  0  0  0  0  0  0  0
   20.2311   20.0669   21.5128 H   0  0  0  0  0  0  0  0  0  0  0  0
   21.1540   18.9062   20.5839 H   0  0  0  0  0  0  0  0  0  0  0  0
   22.1239   19.5227   22.4219 C   0  0  0  0  0  0  0  0  0  0  0  0
   22.6289   20.3674   21.9338 H   0  0  0  0  0  0  0  0  0  0  0  0
   21.8439   19.8741   23.4239 H   0  0  0  0  0  0  0  0  0  0  0  0
   23.1201   18.3490   22.5403 C   0  0  0  0  0  0  0  0  0  0  0  0
   23.4012   17.9709   21.5488 H   0  0  0  0  0  0  0  0  0  0  0  0
   24.0359   18.6722   23.0518 H   0  0  0  0  0  0  0  0  0  0  0  0
   22.6918   17.5194   23.1168 H   0  0  0  0  0  0  0  0  0  0  0  0
  1  2  1  0  0  0  0
  1  3  2  0  0  0  0
  1  4  1  0  0  0  0
  4  5  1  0  0  0  0
  4  6  1  0  0  0  0
  4  7  1  0  0  0  0
  7  8  1  0  0  0  0
  7  9  1  0  0  0  0
  7 10  1  0  0  0  0
 10 11  1  0  0  0  0
 10 12  1  0  0  0  0
 10 13  1  0  0  0  0
 13 14  1  0  0  0  0
 13 15  1  0  0  0  0
 13 16  1  0  0  0  0
 16 17  1  0  0  0  0
 16 18  1  0  0  0  0
 16 19  1  0  0  0  0
 19 20  1  0  0  0  0
 19 21  1  0  0  0  0
 19 22  1  0  0  0  0
 22 23  1  0  0  0  0
 22 24  1  0  0  0  0
 22 25  1  0  0  0  0
M  END
> <VConfSearch Rank>
979

> <Conf_Id>
29

> <Delta U+W>
0.850

> <U+W>
-50.780

> <U>
8.646

> <W>
-59.426

> <W(PB)>
-61.868

> <W(SA)>
2.442

> <Valence>
8.924

> <Coulomb>
-1.171

> <VdW>
0.894

> <VdW6>
-10.223

> <VdW12>
11.117

> <Bond>
0.231

> <Angle>
3.232

> <Pdih>
5.461

> <Idih>
0.001

> <Tether>
0.000

$$$$
VeraChem MOL file


 25 24  0  0  0  0  0  0  0  0999 V2000     
   23.4303   17.6139   22.1391 C   0  0  0  0  0  0  0  0  0  0  0  0
   23.3892   17.8067   20.9400 O   0  5  0  0  0  0  0  0  0  0  0  0
   23.9807   16.6579   22.6489 O   0  0  0  0  0  0  0  0  0  0  0  0
   22.7366   18.6171   23.0537 C   0  0  0  0  0  0  0  0  0  0  0  0
   22.8017   19.6067   22.5856 H   0  0  0  0  0  0  0  0  0  0  0  0
   23.2980   18.6653   23.9944 H   0  0  0  0  0  0  0  0  0  0  0  0
   21.2569   18.2546   23.3313 C   0  0  0  0  0  0  0  0  0  0  0  0
   20.7210   18.1927   22.3749 H   0  0  0  0  0  0  0  0  0  0  0  0
   21.2068   17.2584   23.7921 H   0  0  0  0  0  0  0  0  0  0  0  0
   20.5758   19.2911   24.2545 C   0  0  0  0  0  0  0  0  0  0  0  0
   20.5897   20.2798   23.7772 H   0  0  0  0  0  0  0  0  0  0  0  0
   21.1646   19.3898   25.1766 H   0  0  0  0  0  0  0  0  0  0  0  0
   19.1240   18.9127   24.6411 C   0  0  0  0  0  0  0  0  0  0  0  0
   19.1415   17.9677   25.2008 H   0  0  0  0  0  0  0  0  0  0  0  0
   18.7360   19.6646   25.3407 H   0  0  0  0  0  0  0  0  0  0  0  0
   18.1385   18.7647   23.4516 C   0  0  0  0  0  0  0  0  0  0  0  0
   17.1452   18.5164   23.8493 H   0  0  0  0  0  0  0  0  0  0  0  0
   18.4355   17.9038   22.8386 H   0  0  0  0  0  0  0  0  0  0  0  0
   18.0132   20.0104   22.5402 C   0  0  0  0  0  0  0  0  0  0  0  0
   18.9770   20.2256   22.0600 H   0  0  0  0  0  0  0  0  0  0  0  0
   17.3130   19.7795   21.7258 H   0  0  0  0  0  0  0  0  0  0  0  0
   17.5109   21.2649   23.2871 C   0  0  0  0  0  0  0  0  0  0  0  0
   18.2348   21.5953   24.0426 H   0  0  0  0  0  0  0  0  0  0  0  0
   17.3596   22.0952   22.5853 H   0  0  0  0  0  0  0  0  0  0  0  0
   16.5550   21.0668   23.7889 H   0  0  0  0  0  0  0  0  0  0  0  0
  1  2  1  0  0  0  0
  1  3  2  0  0  0  0
  1  4  1  0  0  0  0
  4  5  1  0  0  0  0
  4  6  1  0  0  0  0
  4  7  1  0  0  0  0
  7  8  1  0  0  0  0
  7  9  1  0  0  0  0
  7 10  1  0  0  0  0
 10 11  1  0  0  0  0
 10 12  1  0  0  0  0
 10 13  1  0  0  0  0
 13 14  1  0  0  0  0
 13 15  1  0  0  0  0
 13 16  1  0  0  0  0
 16 17  1  0  0  0  0
 16 18  1  0  0  0  0
 16 19  1  0  0  0  0
 19 20  1  0  0  0  0
 19 21  1  0  0  0  0
 19 22  1  0  0  0  0
 22 23  1  0  0  0  0
 22 24  1  0  0  0  0
 22 25  1  0  0  0  0
M  END
> <VConfSearch Rank>
980

> <Conf_Id>
30

> <Delta U+W>
0.843

> <U+W>
-50.787

> <U>
8.647

> <W>
-59.434

> <W(PB)>
-61.861

> <W(SA)>
2.428

> <Valence>
8.924

> <Coulomb>
-1.170

> <VdW>
0.894

> <VdW6>
-10.224

> <VdW12>
11.118

> <Bond>
0.231

> <Angle>
3.232

> <Pdih>
5.460

> <Idih>
0.000

> <Tether>
0.000

$$$$
VeraChem MOL file


 25 24  0  0  0  0  0  0  0  0999 V2000     
   23.6675   21.3700   21.0353 C   0  0  0  0  0  0  0  0  0  0  0  0
   24.1809   21.6978   22.0877 O   0  5  0  0  0  0  0  0  0  0  0  0
   24.1393   21.6496   19.9511 O   0  0  0  0  0  0  0  0  0  0  0  0
   22.3655   20.5674   21.0438 C   0  0  0  0  0  0  0  0  0  0  0  0
   22.5497   19.6398   20.4893 H   0  0  0  0  0  0  0  0  0  0  0  0
   21.6246   21.1403   20.4740 H   0  0  0  0  0  0  0  0  0  0  0  0
   21.8021   20.2345   22.4510 C   0  0  0  0  0  0  0  0  0  0  0  0
   22.5519   19.6661   23.0187 H   0  0  0  0  0  0  0  0  0  0  0  0
   21.6259   21.1680   23.0033 H   0  0  0  0  0  0  0  0  0  0  0  0
   20.4900   19.4246   22.3675 C   0  0  0  0  0  0  0  0  0  0  0  0
   20.6686   18.4919   21.8149 H   0  0  0  0  0  0  0  0  0  0  0  0
   19.7420   19.9947   21.7996 H   0  0  0  0  0  0  0  0  0  0  0  0
   19.9313   19.0945   23.7684 C   0  0  0  0  0  0  0  0  0  0  0  0
   20.6791   18.5243   24.3365 H   0  0  0  0  0  0  0  0  0  0  0  0
   19.7526   20.0270   24.3212 H   0  0  0  0  0  0  0  0  0  0  0  0
   18.6194   18.2847   23.6856 C   0  0  0  0  0  0  0  0  0  0  0  0
   18.7979   17.3521   23.1329 H   0  0  0  0  0  0  0  0  0  0  0  0
   17.8714   18.8548   23.1176 H   0  0  0  0  0  0  0  0  0  0  0  0
   18.0609   17.9547   25.0858 C   0  0  0  0  0  0  0  0  0  0  0  0
   18.8058   17.3827   25.6564 H   0  0  0  0  0  0  0  0  0  0  0  0
   17.8793   18.8854   25.6410 H   0  0  0  0  0  0  0  0  0  0  0  0
   16.7509   17.1460   24.9989 C   0  0  0  0  0  0  0  0  0  0  0  0
   16.9107   16.1944   24.4752 H   0  0  0  0  0  0  0  0  0  0  0  0
   16.3682   16.9203   26.0027 H   0  0  0  0  0  0  0  0  0  0  0  0
   15.9772   17.7083   24.4598 H   0  0  0  0  0  0  0  0  0  0  0  0
  1  2  1  0  0  0  0
  1  3  2  0  0  0  0
  1  4  1  0  0  0  0
  4  5  1  0  0  0  0
  4  6  1  0  0  0  0
  4  7  1  0  0  0  0
  7  8  1  0  0  0  0
  7  9  1  0  0  0  0
  7 10  1  0  0  0  0
 10 11  1  0  0  0  0
 10 12  1  0  0  0  0
 10 13  1  0  0  0  0
 13 14  1  0  0  0  0
 13 15  1  0  0  0  0
 13 16  1  0  0  0  0
 16 17  1  0  0  0  0
 16 18  1  0  0  0  0
 16 19  1  0  0  0  0
 19 20  1  0  0  0  0
 19 21  1  0  0  0  0
 19 22  1  0  0  0  0
 22 23  1  0  0  0  0
 22 24  1  0  0  0  0
 22 25  1  0  0  0  0
M  END
> <VConfSearch Rank>
981

> <Conf_Id>
0

> <Delta U+W>
0.000

> <U+W>
-51.629

> <U>
6.586

> <W>
-58.216

> <W(PB)>
-60.757

> <W(SA)>
2.541

> <Valence>
8.027

> <Coulomb>
-2.892

> <VdW>
1.451

> <VdW6>
-7.931

> <VdW12>
9.383

> <Bond>
0.149

> <Angle>
2.726

> <Pdih>
5.152

> <Idih>
0.000

> <Tether>
0.000

$$$$
VeraChem MOL file


 25 24  0  0  0  0  0  0  0  0999 V2000     
   16.8762   20.4917   20.0552 C   0  0  0  0  0  0  0  0  0  0  0  0
   17.0530   20.0754   18.9273 O   0  5  0  0  0  0  0  0  0  0  0  0
   15.7777   20.6901   20.5353 O   0  0  0  0  0  0  0  0  0  0  0  0
   18.1002   20.7580   20.9241 C   0  0  0  0  0  0  0  0  0  0  0  0
   17.8661   21.5927   21.5956 H   0  0  0  0  0  0  0  0  0  0  0  0
   18.9170   21.0868   20.2704 H   0  0  0  0  0  0  0  0  0  0  0  0
   18.5370   19.5187   21.7436 C   0  0  0  0  0  0  0  0  0  0  0  0
   17.7040   19.1943   22.3827 H   0  0  0  0  0  0  0  0  0  0  0  0
   18.7547   18.6884   21.0575 H   0  0  0  0  0  0  0  0  0  0  0  0
   19.7774   19.8134   22.6145 C   0  0  0  0  0  0  0  0  0  0  0  0
   19.5569   20.6446   23.2984 H   0  0  0  0  0  0  0  0  0  0  0  0
   20.6078   20.1387   21.9728 H   0  0  0  0  0  0  0  0  0  0  0  0
   20.2106   18.5762   23.4300 C   0  0  0  0  0  0  0  0  0  0  0  0
   19.3804   18.2508   24.0719 H   0  0  0  0  0  0  0  0  0  0  0  0
   20.4312   17.7449   22.7464 H   0  0  0  0  0  0  0  0  0  0  0  0
   21.4510   18.8701   24.3012 C   0  0  0  0  0  0  0  0  0  0  0  0
   21.2307   19.7013   24.9851 H   0  0  0  0  0  0  0  0  0  0  0  0
   22.2814   19.1956   23.6596 H   0  0  0  0  0  0  0  0  0  0  0  0
   21.8842   17.6336   25.1164 C   0  0  0  0  0  0  0  0  0  0  0  0
   21.0566   17.3062   25.7609 H   0  0  0  0  0  0  0  0  0  0  0  0
   22.1073   16.8005   24.4354 H   0  0  0  0  0  0  0  0  0  0  0  0
   23.1231   17.9311   25.9849 C   0  0  0  0  0  0  0  0  0  0  0  0
   23.4170   17.0417   26.5573 H   0  0  0  0  0  0  0  0  0  0  0  0
   23.9764   18.2309   25.3625 H   0  0  0  0  0  0  0  0  0  0  0  0
   22.9178   18.7404   26.6979 H   0  0  0  0  0  0  0  0  0  0  0  0
  1  2  1  0  0  0  0
  1  3  2  0  0  0  0
  1  4  1  0  0  0  0
  4  5  1  0  0  0  0
  4  6  1  0  0  0  0
  4  7  1  0  0  0  0
  7  8  1  0  0  0  0
  7  9  1  0  0  0  0
  7 10  1  0  0  0  0
 10 11  1  0  0  0  0
 10 12  1  0  0  0  0
 10 13  1  0  0  0  0
 13 14  1  0  0  0  0
 13 15  1  0  0  0  0
 13 16  1  0  0  0  0
 16 17  1  0  0  0  0
 16 18  1  0  0  0  0
 16 19  1  0  0  0  0
 19 20  1  0  0  0  0
 19 21  1  0  0  0  0
 19 22  1  0  0  0  0
 22 23  1  0  0  0  0
 22 24  1  0  0  0  0
 22 25  1  0  0  0  0
M  END
> <VConfSearch Rank>
982

> <Conf_Id>
27

> <Delta U+W>
-1.297

> <U+W>
-52.926

> <U>
5.617

> <W>
-58.543

> <W(PB)>
-61.065

> <W(SA)>
2.522

> <Valence>
7.531

> <Coulomb>
-2.818

> <VdW>
0.904

> <VdW6>
-7.640

> <VdW12>
8.544

> <Bond>
0.115

> <Angle>
2.271

> <Pdih>
5.144

> <Idih>
0.001

> <Tether>
0.000

$$$$
VeraChem MOL file


 25 24  0  0  0  0  0  0  0  0999 V2000     
   19.6839   21.8072   26.2650 C   0  0  0  0  0  0  0  0  0  0  0  0
   18.5251   22.1449   26.4074 O   0  5  0  0  0  0  0  0  0  0  0  0
   20.3097   21.1819   27.0982 O   0  0  0  0  0  0  0  0  0  0  0  0
   20.3954   22.2062   24.9752 C   0  0  0  0  0  0  0  0  0  0  0  0
   21.4780   22.1432   25.1387 H   0  0  0  0  0  0  0  0  0  0  0  0
   20.1638   23.2609   24.7857 H   0  0  0  0  0  0  0  0  0  0  0  0
   19.9894   21.3569   23.7428 C   0  0  0  0  0  0  0  0  0  0  0  0
   18.8998   21.4077   23.6087 H   0  0  0  0  0  0  0  0  0  0  0  0
   20.4394   21.7971   22.8427 H   0  0  0  0  0  0  0  0  0  0  0  0
   20.4334   19.8819   23.8651 C   0  0  0  0  0  0  0  0  0  0  0  0
   19.9730   19.4292   24.7542 H   0  0  0  0  0  0  0  0  0  0  0  0
   21.5212   19.8371   24.0124 H   0  0  0  0  0  0  0  0  0  0  0  0
   20.0475   19.0630   22.6145 C   0  0  0  0  0  0  0  0  0  0  0  0
   18.9596   19.1084   22.4680 H   0  0  0  0  0  0  0  0  0  0  0  0
   20.5093   19.5121   21.7245 H   0  0  0  0  0  0  0  0  0  0  0  0
   20.4901   17.5888   22.7364 C   0  0  0  0  0  0  0  0  0  0  0  0
   20.0284   17.1396   23.6264 H   0  0  0  0  0  0  0  0  0  0  0  0
   21.5780   17.5432   22.8832 H   0  0  0  0  0  0  0  0  0  0  0  0
   20.1041   16.7697   21.4868 C   0  0  0  0  0  0  0  0  0  0  0  0
   19.0162   16.8116   21.3379 H   0  0  0  0  0  0  0  0  0  0  0  0
   20.5658   17.2152   20.5947 H   0  0  0  0  0  0  0  0  0  0  0  0
   20.5477   15.2983   21.6126 C   0  0  0  0  0  0  0  0  0  0  0  0
   20.0755   14.8185   22.4799 H   0  0  0  0  0  0  0  0  0  0  0  0
   20.2655   14.7311   20.7162 H   0  0  0  0  0  0  0  0  0  0  0  0
   21.6368   15.2251   21.7311 H   0  0  0  0  0  0  0  0  0  0  0  0
  1  2  1  0  0  0  0
  1  3  2  0  0  0  0
  1  4  1  0  0  0  0
  4  5  1  0  0  0  0
  4  6  1  0  0  0  0
  4  7  1  0  0  0  0
  7  8  1  0  0  0  0
  7  9  1  0  0  0  0
  7 10  1  0  0  0  0
 10 11  1  0  0  0  0
 10 12  1  0  0  0  0
 10 13  1  0  0  0  0
 13 14  1  0  0  0  0
 13 15  1  0  0  0  0
 13 16  1  0  0  0  0
 16 17  1  0  0  0  0
 16 18  1  0  0  0  0
 16 19  1  0  0  0  0
 19 20  1  0  0  0  0
 19 21  1  0  0  0  0
 19 22  1  0  0  0  0
 22 23  1  0  0  0  0
 22 24  1  0  0  0  0
 22 25  1  0  0  0  0
M  END
> <VConfSearch Rank>
983

> <Conf_Id>
37

> <Delta U+W>
-0.230

> <U+W>
-51.860

> <U>
7.816

> <W>
-59.675

> <W(PB)>
-62.180

> <W(SA)>
2.505

> <Valence>
7.785

> <Coulomb>
-0.713

> <VdW>
0.744

> <VdW6>
-8.514

> <VdW12>
9.259

> <Bond>
0.136

> <Angle>
2.433

> <Pdih>
5.216

> <Idih>
0.000

> <Tether>
0.000

$$$$
VeraChem MOL file


 25 24  0  0  0  0  0  0  0  0999 V2000     
   20.8145   15.9368   25.3322 C   0  0  0  0  0  0  0  0  0  0  0  0
   22.0025   15.6909   25.4043 O   0  5  0  0  0  0  0  0  0  0  0  0
   20.0241   15.2591   24.7053 O   0  0  0  0  0  0  0  0  0  0  0  0
   20.2857   17.1548   26.0843 C   0  0  0  0  0  0  0  0  0  0  0  0
   20.7233   17.1350   27.0893 H   0  0  0  0  0  0  0  0  0  0  0  0
   19.2013   17.0463   26.2078 H   0  0  0  0  0  0  0  0  0  0  0  0
   20.6145   18.5083   25.4025 C   0  0  0  0  0  0  0  0  0  0  0  0
   20.3212   19.3263   26.0743 H   0  0  0  0  0  0  0  0  0  0  0  0
   21.7011   18.5898   25.2605 H   0  0  0  0  0  0  0  0  0  0  0  0
   19.8950   18.6806   24.0458 C   0  0  0  0  0  0  0  0  0  0  0  0
   18.8102   18.5850   24.1909 H   0  0  0  0  0  0  0  0  0  0  0  0
   20.1968   17.8752   23.3618 H   0  0  0  0  0  0  0  0  0  0  0  0
   20.2113   20.0469   23.4003 C   0  0  0  0  0  0  0  0  0  0  0  0
   19.9077   20.8539   24.0813 H   0  0  0  0  0  0  0  0  0  0  0  0
   21.2962   20.1415   23.2555 H   0  0  0  0  0  0  0  0  0  0  0  0
   19.4933   20.2195   22.0444 C   0  0  0  0  0  0  0  0  0  0  0  0
   18.4083   20.1246   22.1889 H   0  0  0  0  0  0  0  0  0  0  0  0
   19.7967   19.4125   21.3633 H   0  0  0  0  0  0  0  0  0  0  0  0
   19.8096   21.5848   21.3985 C   0  0  0  0  0  0  0  0  0  0  0  0
   19.5057   22.3946   22.0763 H   0  0  0  0  0  0  0  0  0  0  0  0
   20.8941   21.6823   21.2506 H   0  0  0  0  0  0  0  0  0  0  0  0
   19.0908   21.7531   20.0448 C   0  0  0  0  0  0  0  0  0  0  0  0
   18.0016   21.6914   20.1680 H   0  0  0  0  0  0  0  0  0  0  0  0
   19.3268   22.7286   19.6000 H   0  0  0  0  0  0  0  0  0  0  0  0
   19.4003   20.9737   19.3361 H   0  0  0  0  0  0  0  0  0  0  0  0
  1  2  1  0  0  0  0
  1  3  2  0  0  0  0
  1  4  1  0  0  0  0
  4  5  1  0  0  0  0
  4  6  1  0  0  0  0
  4  7  1  0  0  0  0
  7  8  1  0  0  0  0
  7  9  1  0  0  0  0
  7 10  1  0  0  0  0
 10 11  1  0  0  0  0
 10 12  1  0  0  0  0
 10 13  1  0  0  0  0
 13 14  1  0  0  0  0
 13 15  1  0  0  0  0
 13 16  1  0  0  0  0
 16 17  1  0  0  0  0
 16 18  1  0  0  0  0
 16 19  1  0  0  0  0
 19 20  1  0  0  0  0
 19 21  1  0  0  0  0
 19 22  1  0  0  0  0
 22 23  1  0  0  0  0
 22 24  1  0  0  0  0
 22 25  1  0  0  0  0
M  END
> <VConfSearch Rank>
984

> <Conf_Id>
54

> <Delta U+W>
-0.224

> <U+W>
-51.854

> <U>
7.816

> <W>
-59.670

> <W(PB)>
-62.157

> <W(SA)>
2.487

> <Valence>
7.785

> <Coulomb>
-0.713

> <VdW>
0.744

> <VdW6>
-8.515

> <VdW12>
9.259

> <Bond>
0.136

> <Angle>
2.433

> <Pdih>
5.215

> <Idih>
0.000

> <Tether>
0.000

$$$$
VeraChem MOL file


 25 24  0  0  0  0  0  0  0  0999 V2000     
   16.9171   17.4091   25.0927 C   0  0  0  0  0  0  0  0  0  0  0  0
   17.0428   17.6628   26.2746 O   0  5  0  0  0  0  0  0  0  0  0  0
   15.8938   17.6068   24.4675 O   0  0  0  0  0  0  0  0  0  0  0  0
   18.1019   16.7911   24.3556 C   0  0  0  0  0  0  0  0  0  0  0  0
   17.7175   15.9509   23.7655 H   0  0  0  0  0  0  0  0  0  0  0  0
   18.7936   16.3695   25.0950 H   0  0  0  0  0  0  0  0  0  0  0  0
   18.8514   17.7783   23.4231 C   0  0  0  0  0  0  0  0  0  0  0  0
   19.5762   17.2095   22.8274 H   0  0  0  0  0  0  0  0  0  0  0  0
   18.1379   18.2229   22.7156 H   0  0  0  0  0  0  0  0  0  0  0  0
   19.5806   18.8969   24.2059 C   0  0  0  0  0  0  0  0  0  0  0  0
   20.3260   18.4533   24.8800 H   0  0  0  0  0  0  0  0  0  0  0  0
   18.8560   19.4175   24.8469 H   0  0  0  0  0  0  0  0  0  0  0  0
   20.2633   19.9462   23.2960 C   0  0  0  0  0  0  0  0  0  0  0  0
   19.5214   20.3758   22.6094 H   0  0  0  0  0  0  0  0  0  0  0  0
   20.6117   20.7696   23.9322 H   0  0  0  0  0  0  0  0  0  0  0  0
   21.4583   19.3812   22.4887 C   0  0  0  0  0  0  0  0  0  0  0  0
   21.1112   18.5623   21.8462 H   0  0  0  0  0  0  0  0  0  0  0  0
   22.1975   18.9471   23.1756 H   0  0  0  0  0  0  0  0  0  0  0  0
   22.1450   20.4354   21.5890 C   0  0  0  0  0  0  0  0  0  0  0  0
   22.8837   19.9273   20.9539 H   0  0  0  0  0  0  0  0  0  0  0  0
   21.4060   20.8809   20.9088 H   0  0  0  0  0  0  0  0  0  0  0  0
   22.8596   21.5501   22.3838 C   0  0  0  0  0  0  0  0  0  0  0  0
   22.1448   22.1669   22.9422 H   0  0  0  0  0  0  0  0  0  0  0  0
   23.5791   21.1255   23.0959 H   0  0  0  0  0  0  0  0  0  0  0  0
   23.4092   22.2137   21.7037 H   0  0  0  0  0  0  0  0  0  0  0  0
  1  2  1  0  0  0  0
  1  3  2  0  0  0  0
  1  4  1  0  0  0  0
  4  5  1  0  0  0  0
  4  6  1  0  0  0  0
  4  7  1  0  0  0  0
  7  8  1  0  0  0  0
  7  9  1  0  0  0  0
  7 10  1  0  0  0  0
 10 11  1  0  0  0  0
 10 12  1  0  0  0  0
 10 13  1  0  0  0  0
 13 14  1  0  0  0  0
 13 15  1  0  0  0  0
 13 16  1  0  0  0  0
 16 17  1  0  0  0  0
 16 18  1  0  0  0  0
 16 19  1  0  0  0  0
 19 20  1  0  0  0  0
 19 21  1  0  0  0  0
 19 22  1  0  0  0  0
 22 23  1  0  0  0  0
 22 24  1  0  0  0  0
 22 25  1  0  0  0  0
M  END
> <VConfSearch Rank>
985

> <Conf_Id>
101

> <Delta U+W>
1.534

> <U+W>
-50.095

> <U>
9.416

> <W>
-59.512

> <W(PB)>
-61.988

> <W(SA)>
2.476

> <Valence>
8.939

> <Coulomb>
-0.615

> <VdW>
1.092

> <VdW6>
-9.710

> <VdW12>
10.802

> <Bond>
0.216

> <Angle>
2.979

> <Pdih>
5.743

> <Idih>
0.000

> <Tether>
0.000

$$$$
VeraChem MOL file


 25 24  0  0  0  0  0  0  0  0999 V2000     
   20.1627   15.0249   22.8699 C   0  0  0  0  0  0  0  0  0  0  0  0
   19.8217   14.7624   21.7334 O   0  5  0  0  0  0  0  0  0  0  0  0
   20.7895   14.2616   23.5777 O   0  0  0  0  0  0  0  0  0  0  0  0
   19.8038   16.3963   23.4309 C   0  0  0  0  0  0  0  0  0  0  0  0
   19.6547   16.2927   24.5123 H   0  0  0  0  0  0  0  0  0  0  0  0
   18.8425   16.6919   22.9963 H   0  0  0  0  0  0  0  0  0  0  0  0
   20.8894   17.4652   23.1402 C   0  0  0  0  0  0  0  0  0  0  0  0
   21.8566   17.0907   23.5029 H   0  0  0  0  0  0  0  0  0  0  0  0
   20.9954   17.5960   22.0544 H   0  0  0  0  0  0  0  0  0  0  0  0
   20.6083   18.8333   23.8067 C   0  0  0  0  0  0  0  0  0  0  0  0
   21.4922   19.4677   23.6629 H   0  0  0  0  0  0  0  0  0  0  0  0
   20.4930   18.6987   24.8908 H   0  0  0  0  0  0  0  0  0  0  0  0
   19.3630   19.5531   23.2332 C   0  0  0  0  0  0  0  0  0  0  0  0
   19.4785   19.6884   22.1500 H   0  0  0  0  0  0  0  0  0  0  0  0
   18.4792   18.9172   23.3680 H   0  0  0  0  0  0  0  0  0  0  0  0
   19.0713   20.9173   23.9088 C   0  0  0  0  0  0  0  0  0  0  0  0
   18.8729   20.7501   24.9761 H   0  0  0  0  0  0  0  0  0  0  0  0
   18.1416   21.3246   23.4886 H   0  0  0  0  0  0  0  0  0  0  0  0
   20.1876   21.9823   23.7702 C   0  0  0  0  0  0  0  0  0  0  0  0
   19.8652   22.8950   24.2899 H   0  0  0  0  0  0  0  0  0  0  0  0
   21.0979   21.6477   24.2846 H   0  0  0  0  0  0  0  0  0  0  0  0
   20.5177   22.3367   22.3041 C   0  0  0  0  0  0  0  0  0  0  0  0
   19.6159   22.6514   21.7632 H   0  0  0  0  0  0  0  0  0  0  0  0
   21.2428   23.1597   22.2616 H   0  0  0  0  0  0  0  0  0  0  0  0
   20.9557   21.4803   21.7762 H   0  0  0  0  0  0  0  0  0  0  0  0
  1  2  1  0  0  0  0
  1  3  2  0  0  0  0
  1  4  1  0  0  0  0
  4  5  1  0  0  0  0
  4  6  1  0  0  0  0
  4  7  1  0  0  0  0
  7  8  1  0  0  0  0
  7  9  1  0  0  0  0
  7 10  1  0  0  0  0
 10 11  1  0  0  0  0
 10 12  1  0  0  0  0
 10 13  1  0  0  0  0
 13 14  1  0  0  0  0
 13 15  1  0  0  0  0
 13 16  1  0  0  0  0
 16 17  1  0  0  0  0
 16 18  1  0  0  0  0
 16 19  1  0  0  0  0
 19 20  1  0  0  0  0
 19 21  1  0  0  0  0
 19 22  1  0  0  0  0
 22 23  1  0  0  0  0
 22 24  1  0  0  0  0
 22 25  1  0  0  0  0
M  END
> <VConfSearch Rank>
986

> <Conf_Id>
75

> <Delta U+W>
1.014

> <U+W>
-50.615

> <U>
8.474

> <W>
-59.089

> <W(PB)>
-61.530

> <W(SA)>
2.441

> <Valence>
9.080

> <Coulomb>
-1.772

> <VdW>
1.165

> <VdW6>
-9.830

> <VdW12>
10.996

> <Bond>
0.240

> <Angle>
3.225

> <Pdih>
5.615

> <Idih>
0.001

> <Tether>
0.000

$$$$
VeraChem MOL file


 25 24  0  0  0  0  0  0  0  0999 V2000     
   18.2200   15.5020   22.3086 C   0  0  0  0  0  0  0  0  0  0  0  0
   18.2868   14.7726   23.2781 O   0  5  0  0  0  0  0  0  0  0  0  0
   17.3596   15.4107   21.4552 O   0  0  0  0  0  0  0  0  0  0  0  0
   19.2607   16.6068   22.1659 C   0  0  0  0  0  0  0  0  0  0  0  0
   19.4389   16.7710   21.0964 H   0  0  0  0  0  0  0  0  0  0  0  0
   20.2013   16.2468   22.5999 H   0  0  0  0  0  0  0  0  0  0  0  0
   18.8304   17.9301   22.8456 C   0  0  0  0  0  0  0  0  0  0  0  0
   17.8810   18.2704   22.4093 H   0  0  0  0  0  0  0  0  0  0  0  0
   18.6433   17.7456   23.9126 H   0  0  0  0  0  0  0  0  0  0  0  0
   19.9009   19.0317   22.6887 C   0  0  0  0  0  0  0  0  0  0  0  0
   20.0849   19.2123   21.6209 H   0  0  0  0  0  0  0  0  0  0  0  0
   20.8477   18.6805   23.1159 H   0  0  0  0  0  0  0  0  0  0  0  0
   19.4638   20.3529   23.3640 C   0  0  0  0  0  0  0  0  0  0  0  0
   18.5317   20.6877   22.8886 H   0  0  0  0  0  0  0  0  0  0  0  0
   19.2230   20.1805   24.4219 H   0  0  0  0  0  0  0  0  0  0  0  0
   20.5145   21.4851   23.2361 C   0  0  0  0  0  0  0  0  0  0  0  0
   19.9783   22.4360   23.1130 H   0  0  0  0  0  0  0  0  0  0  0  0
   21.1053   21.3552   22.3191 H   0  0  0  0  0  0  0  0  0  0  0  0
   21.4547   21.6358   24.4577 C   0  0  0  0  0  0  0  0  0  0  0  0
   22.0983   22.5116   24.2961 H   0  0  0  0  0  0  0  0  0  0  0  0
   20.8598   21.8534   25.3554 H   0  0  0  0  0  0  0  0  0  0  0  0
   22.3497   20.4073   24.7224 C   0  0  0  0  0  0  0  0  0  0  0  0
   22.9081   20.1247   23.8206 H   0  0  0  0  0  0  0  0  0  0  0  0
   23.0756   20.6251   25.5162 H   0  0  0  0  0  0  0  0  0  0  0  0
   21.7529   19.5462   25.0480 H   0  0  0  0  0  0  0  0  0  0  0  0
  1  2  1  0  0  0  0
  1  3  2  0  0  0  0
  1  4  1  0  0  0  0
  4  5  1  0  0  0  0
  4  6  1  0  0  0  0
  4  7  1  0  0  0  0
  7  8  1  0  0  0  0
  7  9  1  0  0  0  0
  7 10  1  0  0  0  0
 10 11  1  0  0  0  0
 10 12  1  0  0  0  0
 10 13  1  0  0  0  0
 13 14  1  0  0  0  0
 13 15  1  0  0  0  0
 13 16  1  0  0  0  0
 16 17  1  0  0  0  0
 16 18  1  0  0  0  0
 16 19  1  0  0  0  0
 19 20  1  0  0  0  0
 19 21  1  0  0  0  0
 19 22  1  0  0  0  0
 22 23  1  0  0  0  0
 22 24  1  0  0  0  0
 22 25  1  0  0  0  0
M  END
> <VConfSearch Rank>
987

> <Conf_Id>
125

> <Delta U+W>
2.314

> <U+W>
-49.315

> <U>
9.740

> <W>
-59.054

> <W(PB)>
-61.488

> <W(SA)>
2.433

> <Valence>
10.506

> <Coulomb>
-1.761

> <VdW>
0.994

> <VdW6>
-9.209

> <VdW12>
10.203

> <Bond>
0.193

> <Angle>
2.979

> <Pdih>
7.334

> <Idih>
0.001

> <Tether>
0.000

$$$$
VeraChem MOL file


 25 24  0  0  0  0  0  0  0  0999 V2000     
   18.3032   21.0267   20.1506 C   0  0  0  0  0  0  0  0  0  0  0  0
   19.2084   21.5350   19.5190 O   0  5  0  0  0  0  0  0  0  0  0  0
   17.1267   21.2182   19.9138 O   0  0  0  0  0  0  0  0  0  0  0  0
   18.6631   20.1174   21.3200 C   0  0  0  0  0  0  0  0  0  0  0  0
   19.5967   19.6028   21.0664 H   0  0  0  0  0  0  0  0  0  0  0  0
   17.8828   19.3521   21.4085 H   0  0  0  0  0  0  0  0  0  0  0  0
   18.8095   20.8897   22.6570 C   0  0  0  0  0  0  0  0  0  0  0  0
   19.6252   21.6208   22.5709 H   0  0  0  0  0  0  0  0  0  0  0  0
   17.8918   21.4682   22.8321 H   0  0  0  0  0  0  0  0  0  0  0  0
   19.0569   19.9715   23.8776 C   0  0  0  0  0  0  0  0  0  0  0  0
   18.2349   19.2481   23.9666 H   0  0  0  0  0  0  0  0  0  0  0  0
   19.0291   20.5870   24.7872 H   0  0  0  0  0  0  0  0  0  0  0  0
   20.4074   19.2206   23.8188 C   0  0  0  0  0  0  0  0  0  0  0  0
   20.4179   18.5513   22.9501 H   0  0  0  0  0  0  0  0  0  0  0  0
   21.2232   19.9429   23.6800 H   0  0  0  0  0  0  0  0  0  0  0  0
   20.6586   18.3992   25.1046 C   0  0  0  0  0  0  0  0  0  0  0  0
   19.8692   17.6441   25.2213 H   0  0  0  0  0  0  0  0  0  0  0  0
   20.5833   19.0650   25.9751 H   0  0  0  0  0  0  0  0  0  0  0  0
   22.0425   17.7094   25.1335 C   0  0  0  0  0  0  0  0  0  0  0  0
   22.8348   18.4626   25.0225 H   0  0  0  0  0  0  0  0  0  0  0  0
   22.1869   17.2508   26.1215 H   0  0  0  0  0  0  0  0  0  0  0  0
   22.2061   16.6199   24.0515 C   0  0  0  0  0  0  0  0  0  0  0  0
   22.1864   17.0507   23.0427 H   0  0  0  0  0  0  0  0  0  0  0  0
   23.1656   16.1006   24.1718 H   0  0  0  0  0  0  0  0  0  0  0  0
   21.4057   15.8720   24.1228 H   0  0  0  0  0  0  0  0  0  0  0  0
  1  2  1  0  0  0  0
  1  3  2  0  0  0  0
  1  4  1  0  0  0  0
  4  5  1  0  0  0  0
  4  6  1  0  0  0  0
  4  7  1  0  0  0  0
  7  8  1  0  0  0  0
  7  9  1  0  0  0  0
  7 10  1  0  0  0  0
 10 11  1  0  0  0  0
 10 12  1  0  0  0  0
 10 13  1  0  0  0  0
 13 14  1  0  0  0  0
 13 15  1  0  0  0  0
 13 16  1  0  0  0  0
 16 17  1  0  0  0  0
 16 18  1  0  0  0  0
 16 19  1  0  0  0  0
 19 20  1  0  0  0  0
 19 21  1  0  0  0  0
 19 22  1  0  0  0  0
 22 23  1  0  0  0  0
 22 24  1  0  0  0  0
 22 25  1  0  0  0  0
M  END
> <VConfSearch Rank>
988

> <Conf_Id>
4

> <Delta U+W>
0.189

> <U+W>
-51.441

> <U>
7.701

> <W>
-59.141

> <W(PB)>
-61.609

> <W(SA)>
2.467

> <Valence>
8.550

> <Coulomb>
-1.988

> <VdW>
1.139

> <VdW6>
-8.988

> <VdW12>
10.127

> <Bond>
0.191

> <Angle>
2.738

> <Pdih>
5.621

> <Idih>
0.001

> <Tether>
0.000

$$$$
VeraChem MOL file


 25 24  0  0  0  0  0  0  0  0999 V2000     
   18.3882   15.4798   23.0354 C   0  0  0  0  0  0  0  0  0  0  0  0
   17.1992   15.6637   22.8647 O   0  5  0  0  0  0  0  0  0  0  0  0
   18.9159   14.3869   22.9734 O   0  0  0  0  0  0  0  0  0  0  0  0
   19.2706   16.6900   23.3197 C   0  0  0  0  0  0  0  0  0  0  0  0
   20.0961   16.3650   23.9641 H   0  0  0  0  0  0  0  0  0  0  0  0
   18.6743   17.4095   23.8920 H   0  0  0  0  0  0  0  0  0  0  0  0
   19.8256   17.3441   22.0276 C   0  0  0  0  0  0  0  0  0  0  0  0
   20.3357   16.5733   21.4335 H   0  0  0  0  0  0  0  0  0  0  0  0
   18.9907   17.7074   21.4126 H   0  0  0  0  0  0  0  0  0  0  0  0
   20.8184   18.4999   22.2969 C   0  0  0  0  0  0  0  0  0  0  0  0
   21.2466   18.8213   21.3377 H   0  0  0  0  0  0  0  0  0  0  0  0
   21.6568   18.1311   22.9036 H   0  0  0  0  0  0  0  0  0  0  0  0
   20.1693   19.7190   22.9924 C   0  0  0  0  0  0  0  0  0  0  0  0
   19.3010   20.0548   22.4093 H   0  0  0  0  0  0  0  0  0  0  0  0
   19.7988   19.4235   23.9814 H   0  0  0  0  0  0  0  0  0  0  0  0
   21.1709   20.8871   23.1457 C   0  0  0  0  0  0  0  0  0  0  0  0
   21.5852   21.1351   22.1590 H   0  0  0  0  0  0  0  0  0  0  0  0
   22.0184   20.5683   23.7678 H   0  0  0  0  0  0  0  0  0  0  0  0
   20.5393   22.1642   23.7472 C   0  0  0  0  0  0  0  0  0  0  0  0
   21.2806   22.9744   23.7110 H   0  0  0  0  0  0  0  0  0  0  0  0
   19.6943   22.4889   23.1244 H   0  0  0  0  0  0  0  0  0  0  0  0
   20.0698   21.9855   25.2074 C   0  0  0  0  0  0  0  0  0  0  0  0
   20.8910   21.6304   25.8436 H   0  0  0  0  0  0  0  0  0  0  0  0
   19.7147   22.9404   25.6159 H   0  0  0  0  0  0  0  0  0  0  0  0
   19.2437   21.2670   25.2779 H   0  0  0  0  0  0  0  0  0  0  0  0
  1  2  1  0  0  0  0
  1  3  2  0  0  0  0
  1  4  1  0  0  0  0
  4  5  1  0  0  0  0
  4  6  1  0  0  0  0
  4  7  1  0  0  0  0
  7  8  1  0  0  0  0
  7  9  1  0  0  0  0
  7 10  1  0  0  0  0
 10 11  1  0  0  0  0
 10 12  1  0  0  0  0
 10 13  1  0  0  0  0
 13 14  1  0  0  0  0
 13 15  1  0  0  0  0
 13 16  1  0  0  0  0
 16 17  1  0  0  0  0
 16 18  1  0  0  0  0
 16 19  1  0  0  0  0
 19 20  1  0  0  0  0
 19 21  1  0  0  0  0
 19 22  1  0  0  0  0
 22 23  1  0  0  0  0
 22 24  1  0  0  0  0
 22 25  1  0  0  0  0
M  END
> <VConfSearch Rank>
989

> <Conf_Id>
17

> <Delta U+W>
0.219

> <U+W>
-51.411

> <U>
7.701

> <W>
-59.111

> <W(PB)>
-61.599

> <W(SA)>
2.488

> <Valence>
8.550

> <Coulomb>
-1.988

> <VdW>
1.139

> <VdW6>
-8.988

> <VdW12>
10.127

> <Bond>
0.191

> <Angle>
2.738

> <Pdih>
5.621

> <Idih>
0.001

> <Tether>
0.000

$$$$
VeraChem MOL file


 25 24  0  0  0  0  0  0  0  0999 V2000     
   22.1288   16.4803   24.6781 C   0  0  0  0  0  0  0  0  0  0  0  0
   22.6044   16.7620   25.7605 O   0  5  0  0  0  0  0  0  0  0  0  0
   22.7945   16.2961   23.6781 O   0  0  0  0  0  0  0  0  0  0  0  0
   20.6139   16.3302   24.5707 C   0  0  0  0  0  0  0  0  0  0  0  0
   20.2062   16.1682   25.5758 H   0  0  0  0  0  0  0  0  0  0  0  0
   20.4142   15.4179   23.9964 H   0  0  0  0  0  0  0  0  0  0  0  0
   19.9089   17.5339   23.8931 C   0  0  0  0  0  0  0  0  0  0  0  0
   20.3467   17.6879   22.8980 H   0  0  0  0  0  0  0  0  0  0  0  0
   18.8498   17.2870   23.7399 H   0  0  0  0  0  0  0  0  0  0  0  0
   20.0154   18.8305   24.7311 C   0  0  0  0  0  0  0  0  0  0  0  0
   21.0693   19.1253   24.8303 H   0  0  0  0  0  0  0  0  0  0  0  0
   19.6539   18.6286   25.7486 H   0  0  0  0  0  0  0  0  0  0  0  0
   19.2033   20.0104   24.1462 C   0  0  0  0  0  0  0  0  0  0  0  0
   18.1475   19.7210   24.0543 H   0  0  0  0  0  0  0  0  0  0  0  0
   19.2360   20.8433   24.8619 H   0  0  0  0  0  0  0  0  0  0  0  0
   19.7302   20.5027   22.7784 C   0  0  0  0  0  0  0  0  0  0  0  0
   19.6346   19.7047   22.0307 H   0  0  0  0  0  0  0  0  0  0  0  0
   20.8000   20.7390   22.8606 H   0  0  0  0  0  0  0  0  0  0  0  0
   18.9638   21.7487   22.2868 C   0  0  0  0  0  0  0  0  0  0  0  0
   17.8929   21.5161   22.2052 H   0  0  0  0  0  0  0  0  0  0  0  0
   19.0595   22.5579   23.0240 H   0  0  0  0  0  0  0  0  0  0  0  0
   19.4879   22.2361   20.9210 C   0  0  0  0  0  0  0  0  0  0  0  0
   19.3745   21.4569   20.1559 H   0  0  0  0  0  0  0  0  0  0  0  0
   18.9324   23.1222   20.5872 H   0  0  0  0  0  0  0  0  0  0  0  0
   20.5506   22.5051   20.9815 H   0  0  0  0  0  0  0  0  0  0  0  0
  1  2  1  0  0  0  0
  1  3  2  0  0  0  0
  1  4  1  0  0  0  0
  4  5  1  0  0  0  0
  4  6  1  0  0  0  0
  4  7  1  0  0  0  0
  7  8  1  0  0  0  0
  7  9  1  0  0  0  0
  7 10  1  0  0  0  0
 10 11  1  0  0  0  0
 10 12  1  0  0  0  0
 10 13  1  0  0  0  0
 13 14  1  0  0  0  0
 13 15  1  0  0  0  0
 13 16  1  0  0  0  0
 16 17  1  0  0  0  0
 16 18  1  0  0  0  0
 16 19  1  0  0  0  0
 19 20  1  0  0  0  0
 19 21  1  0  0  0  0
 19 22  1  0  0  0  0
 22 23  1  0  0  0  0
 22 24  1  0  0  0  0
 22 25  1  0  0  0  0
M  END
> <VConfSearch Rank>
990

> <Conf_Id>
142

> <Delta U+W>
0.593

> <U+W>
-51.037

> <U>
8.903

> <W>
-59.940

> <W(PB)>
-62.418

> <W(SA)>
2.478

> <Valence>
8.305

> <Coulomb>
-0.223

> <VdW>
0.821

> <VdW6>
-9.236

> <VdW12>
10.057

> <Bond>
0.173

> <Angle>
2.663

> <Pdih>
5.469

> <Idih>
0.001

> <Tether>
0.000

$$$$
VeraChem MOL file


 25 24  0  0  0  0  0  0  0  0999 V2000     
   17.6922   21.4162   22.4952 C   0  0  0  0  0  0  0  0  0  0  0  0
   17.4259   22.5982   22.5930 O   0  5  0  0  0  0  0  0  0  0  0  0
   17.5217   20.7707   21.4796 O   0  0  0  0  0  0  0  0  0  0  0  0
   18.2445   20.7000   23.7244 C   0  0  0  0  0  0  0  0  0  0  0  0
   18.1675   19.6184   23.5651 H   0  0  0  0  0  0  0  0  0  0  0  0
   17.5829   20.9380   24.5654 H   0  0  0  0  0  0  0  0  0  0  0  0
   19.7015   21.0966   24.0878 C   0  0  0  0  0  0  0  0  0  0  0  0
   19.7287   22.1728   24.3077 H   0  0  0  0  0  0  0  0  0  0  0  0
   19.9920   20.5925   25.0186 H   0  0  0  0  0  0  0  0  0  0  0  0
   20.7437   20.7907   22.9812 C   0  0  0  0  0  0  0  0  0  0  0  0
   21.7342   21.1119   23.3311 H   0  0  0  0  0  0  0  0  0  0  0  0
   20.5209   21.4077   22.0998 H   0  0  0  0  0  0  0  0  0  0  0  0
   20.8243   19.3079   22.5394 C   0  0  0  0  0  0  0  0  0  0  0  0
   19.8735   19.0022   22.0826 H   0  0  0  0  0  0  0  0  0  0  0  0
   21.5810   19.2245   21.7476 H   0  0  0  0  0  0  0  0  0  0  0  0
   21.1900   18.3396   23.6880 C   0  0  0  0  0  0  0  0  0  0  0  0
   20.4050   18.3574   24.4553 H   0  0  0  0  0  0  0  0  0  0  0  0
   22.1184   18.6753   24.1697 H   0  0  0  0  0  0  0  0  0  0  0  0
   21.3658   16.8930   23.1803 C   0  0  0  0  0  0  0  0  0  0  0  0
   20.4389   16.5561   22.6957 H   0  0  0  0  0  0  0  0  0  0  0  0
   22.1552   16.8613   22.4166 H   0  0  0  0  0  0  0  0  0  0  0  0
   21.7244   15.9275   24.3279 C   0  0  0  0  0  0  0  0  0  0  0  0
   20.9357   15.9150   25.0915 H   0  0  0  0  0  0  0  0  0  0  0  0
   21.8457   14.9044   23.9491 H   0  0  0  0  0  0  0  0  0  0  0  0
   22.6647   16.2239   24.8110 H   0  0  0  0  0  0  0  0  0  0  0  0
  1  2  1  0  0  0  0
  1  3  2  0  0  0  0
  1  4  1  0  0  0  0
  4  5  1  0  0  0  0
  4  6  1  0  0  0  0
  4  7  1  0  0  0  0
  7  8  1  0  0  0  0
  7  9  1  0  0  0  0
  7 10  1  0  0  0  0
 10 11  1  0  0  0  0
 10 12  1  0  0  0  0
 10 13  1  0  0  0  0
 13 14  1  0  0  0  0
 13 15  1  0  0  0  0
 13 16  1  0  0  0  0
 16 17  1  0  0  0  0
 16 18  1  0  0  0  0
 16 19  1  0  0  0  0
 19 20  1  0  0  0  0
 19 21  1  0  0  0  0
 19 22  1  0  0  0  0
 22 23  1  0  0  0  0
 22 24  1  0  0  0  0
 22 25  1  0  0  0  0
M  END
> <VConfSearch Rank>
991

> <Conf_Id>
135

> <Delta U+W>
1.314

> <U+W>
-50.316

> <U>
9.773

> <W>
-60.088

> <W(PB)>
-62.535

> <W(SA)>
2.447

> <Valence>
8.741

> <Coulomb>
0.479

> <VdW>
0.552

> <VdW6>
-10.627

> <VdW12>
11.179

> <Bond>
0.227

> <Angle>
3.155

> <Pdih>
5.358

> <Idih>
0.001

> <Tether>
0.000

$$$$
VeraChem MOL file


 25 24  0  0  0  0  0  0  0  0999 V2000     
   19.7042   15.3511   21.5859 C   0  0  0  0  0  0  0  0  0  0  0  0
   20.1479   15.2646   20.4579 O   0  5  0  0  0  0  0  0  0  0  0  0
   19.5139   14.3935   22.3095 O   0  0  0  0  0  0  0  0  0  0  0  0
   19.3904   16.7395   22.1318 C   0  0  0  0  0  0  0  0  0  0  0  0
   18.5486   16.6482   22.8285 H   0  0  0  0  0  0  0  0  0  0  0  0
   19.0530   17.3577   21.2927 H   0  0  0  0  0  0  0  0  0  0  0  0
   20.6047   17.3923   22.8425 C   0  0  0  0  0  0  0  0  0  0  0  0
   20.9739   16.6996   23.6116 H   0  0  0  0  0  0  0  0  0  0  0  0
   21.4256   17.5231   22.1240 H   0  0  0  0  0  0  0  0  0  0  0  0
   20.2765   18.7466   23.5155 C   0  0  0  0  0  0  0  0  0  0  0  0
   21.1463   19.0440   24.1147 H   0  0  0  0  0  0  0  0  0  0  0  0
   19.4391   18.6187   24.2148 H   0  0  0  0  0  0  0  0  0  0  0  0
   19.9513   19.8738   22.5066 C   0  0  0  0  0  0  0  0  0  0  0  0
   20.8165   20.0353   21.8493 H   0  0  0  0  0  0  0  0  0  0  0  0
   19.1254   19.5583   21.8571 H   0  0  0  0  0  0  0  0  0  0  0  0
   19.5473   21.2176   23.1643 C   0  0  0  0  0  0  0  0  0  0  0  0
   18.6271   21.0879   23.7501 H   0  0  0  0  0  0  0  0  0  0  0  0
   19.2898   21.9161   22.3564 H   0  0  0  0  0  0  0  0  0  0  0  0
   20.6494   21.8728   24.0341 C   0  0  0  0  0  0  0  0  0  0  0  0
   21.6443   21.5586   23.6896 H   0  0  0  0  0  0  0  0  0  0  0  0
   20.6077   22.9616   23.8930 H   0  0  0  0  0  0  0  0  0  0  0  0
   20.4869   21.5801   25.5424 C   0  0  0  0  0  0  0  0  0  0  0  0
   20.5279   20.5060   25.7566 H   0  0  0  0  0  0  0  0  0  0  0  0
   21.2855   22.0675   26.1165 H   0  0  0  0  0  0  0  0  0  0  0  0
   19.5266   21.9620   25.9125 H   0  0  0  0  0  0  0  0  0  0  0  0
  1  2  1  0  0  0  0
  1  3  2  0  0  0  0
  1  4  1  0  0  0  0
  4  5  1  0  0  0  0
  4  6  1  0  0  0  0
  4  7  1  0  0  0  0
  7  8  1  0  0  0  0
  7  9  1  0  0  0  0
  7 10  1  0  0  0  0
 10 11  1  0  0  0  0
 10 12  1  0  0  0  0
 10 13  1  0  0  0  0
 13 14  1  0  0  0  0
 13 15  1  0  0  0  0
 13 16  1  0  0  0  0
 16 17  1  0  0  0  0
 16 18  1  0  0  0  0
 16 19  1  0  0  0  0
 19 20  1  0  0  0  0
 19 21  1  0  0  0  0
 19 22  1  0  0  0  0
 22 23  1  0  0  0  0
 22 24  1  0  0  0  0
 22 25  1  0  0  0  0
M  END
> <VConfSearch Rank>
992

> <Conf_Id>
19

> <Delta U+W>
3.222

> <U+W>
-48.407

> <U>
10.617

> <W>
-59.025

> <W(PB)>
-61.462

> <W(SA)>
2.437

> <Valence>
11.188

> <Coulomb>
-1.778

> <VdW>
1.208

> <VdW6>
-9.786

> <VdW12>
10.993

> <Bond>
0.241

> <Angle>
3.294

> <Pdih>
7.653

> <Idih>
0.001

> <Tether>
0.000

$$$$
VeraChem MOL file


 25 24  0  0  0  0  0  0  0  0999 V2000     
   22.8564   16.0292   23.5578 C   0  0  0  0  0  0  0  0  0  0  0  0
   22.8829   15.5099   24.6561 O   0  5  0  0  0  0  0  0  0  0  0  0
   23.7547   15.9314   22.7453 O   0  0  0  0  0  0  0  0  0  0  0  0
   21.6392   16.8691   23.1875 C   0  0  0  0  0  0  0  0  0  0  0  0
   20.7658   16.4201   23.6730 H   0  0  0  0  0  0  0  0  0  0  0  0
   21.4875   16.7884   22.1046 H   0  0  0  0  0  0  0  0  0  0  0  0
   21.7914   18.3575   23.5969 C   0  0  0  0  0  0  0  0  0  0  0  0
   21.8945   18.4308   24.6884 H   0  0  0  0  0  0  0  0  0  0  0  0
   22.7278   18.7436   23.1708 H   0  0  0  0  0  0  0  0  0  0  0  0
   20.6252   19.2557   23.1192 C   0  0  0  0  0  0  0  0  0  0  0  0
   20.5077   19.1615   22.0312 H   0  0  0  0  0  0  0  0  0  0  0  0
   20.9008   20.2989   23.3185 H   0  0  0  0  0  0  0  0  0  0  0  0
   19.2814   18.9471   23.8216 C   0  0  0  0  0  0  0  0  0  0  0  0
   19.0304   17.8880   23.6850 H   0  0  0  0  0  0  0  0  0  0  0  0
   19.3921   19.1011   24.9036 H   0  0  0  0  0  0  0  0  0  0  0  0
   18.0863   19.7861   23.3025 C   0  0  0  0  0  0  0  0  0  0  0  0
   17.1874   19.4427   23.8325 H   0  0  0  0  0  0  0  0  0  0  0  0
   17.9072   19.5684   22.2407 H   0  0  0  0  0  0  0  0  0  0  0  0
   18.2206   21.3138   23.5220 C   0  0  0  0  0  0  0  0  0  0  0  0
   17.2329   21.7202   23.7801 H   0  0  0  0  0  0  0  0  0  0  0  0
   18.8698   21.5198   24.3841 H   0  0  0  0  0  0  0  0  0  0  0  0
   18.7339   22.0642   22.2727 C   0  0  0  0  0  0  0  0  0  0  0  0
   18.0478   21.9278   21.4267 H   0  0  0  0  0  0  0  0  0  0  0  0
   18.8079   23.1405   22.4745 H   0  0  0  0  0  0  0  0  0  0  0  0
   19.7248   21.7123   21.9636 H   0  0  0  0  0  0  0  0  0  0  0  0
  1  2  1  0  0  0  0
  1  3  2  0  0  0  0
  1  4  1  0  0  0  0
  4  5  1  0  0  0  0
  4  6  1  0  0  0  0
  4  7  1  0  0  0  0
  7  8  1  0  0  0  0
  7  9  1  0  0  0  0
  7 10  1  0  0  0  0
 10 11  1  0  0  0  0
 10 12  1  0  0  0  0
 10 13  1  0  0  0  0
 13 14  1  0  0  0  0
 13 15  1  0  0  0  0
 13 16  1  0  0  0  0
 16 17  1  0  0  0  0
 16 18  1  0  0  0  0
 16 19  1  0  0  0  0
 19 20  1  0  0  0  0
 19 21  1  0  0  0  0
 19 22  1  0  0  0  0
 22 23  1  0  0  0  0
 22 24  1  0  0  0  0
 22 25  1  0  0  0  0
M  END
> <VConfSearch Rank>
993

> <Conf_Id>
20

> <Delta U+W>
3.224

> <U+W>
-48.406

> <U>
10.617

> <W>
-59.023

> <W(PB)>
-61.467

> <W(SA)>
2.444

> <Valence>
11.188

> <Coulomb>
-1.778

> <VdW>
1.208

> <VdW6>
-9.786

> <VdW12>
10.993

> <Bond>
0.241

> <Angle>
3.294

> <Pdih>
7.653

> <Idih>
0.001

> <Tether>
0.000

$$$$
VeraChem MOL file


 25 24  0  0  0  0  0  0  0  0999 V2000     
   18.4270   16.4423   23.9324 C   0  0  0  0  0  0  0  0  0  0  0  0
   17.4636   16.4608   23.1913 O   0  5  0  0  0  0  0  0  0  0  0  0
   18.3523   16.6110   25.1337 O   0  0  0  0  0  0  0  0  0  0  0  0
   19.7961   16.1249   23.3339 C   0  0  0  0  0  0  0  0  0  0  0  0
   19.7292   15.1062   22.9350 H   0  0  0  0  0  0  0  0  0  0  0  0
   20.5398   16.0983   24.1395 H   0  0  0  0  0  0  0  0  0  0  0  0
   20.2630   17.0821   22.2013 C   0  0  0  0  0  0  0  0  0  0  0  0
   21.0382   16.5658   21.6191 H   0  0  0  0  0  0  0  0  0  0  0  0
   19.4350   17.2683   21.5032 H   0  0  0  0  0  0  0  0  0  0  0  0
   20.8575   18.4262   22.6904 C   0  0  0  0  0  0  0  0  0  0  0  0
   21.2870   18.9458   21.8230 H   0  0  0  0  0  0  0  0  0  0  0  0
   21.6918   18.2329   23.3784 H   0  0  0  0  0  0  0  0  0  0  0  0
   19.8300   19.3597   23.3696 C   0  0  0  0  0  0  0  0  0  0  0  0
   18.9477   19.4691   22.7241 H   0  0  0  0  0  0  0  0  0  0  0  0
   19.4862   18.9133   24.3112 H   0  0  0  0  0  0  0  0  0  0  0  0
   20.4306   20.7512   23.6655 C   0  0  0  0  0  0  0  0  0  0  0  0
   20.7710   21.2120   22.7281 H   0  0  0  0  0  0  0  0  0  0  0  0
   21.3154   20.6394   24.3071 H   0  0  0  0  0  0  0  0  0  0  0  0
   19.4089   21.6804   24.3541 C   0  0  0  0  0  0  0  0  0  0  0  0
   18.5228   21.7949   23.7144 H   0  0  0  0  0  0  0  0  0  0  0  0
   19.0673   21.2234   25.2933 H   0  0  0  0  0  0  0  0  0  0  0  0
   20.0115   23.0688   24.6487 C   0  0  0  0  0  0  0  0  0  0  0  0
   20.3331   23.5621   23.7221 H   0  0  0  0  0  0  0  0  0  0  0  0
   19.2718   23.7157   25.1380 H   0  0  0  0  0  0  0  0  0  0  0  0
   20.8817   22.9863   25.3131 H   0  0  0  0  0  0  0  0  0  0  0  0
  1  2  1  0  0  0  0
  1  3  2  0  0  0  0
  1  4  1  0  0  0  0
  4  5  1  0  0  0  0
  4  6  1  0  0  0  0
  4  7  1  0  0  0  0
  7  8  1  0  0  0  0
  7  9  1  0  0  0  0
  7 10  1  0  0  0  0
 10 11  1  0  0  0  0
 10 12  1  0  0  0  0
 10 13  1  0  0  0  0
 13 14  1  0  0  0  0
 13 15  1  0  0  0  0
 13 16  1  0  0  0  0
 16 17  1  0  0  0  0
 16 18  1  0  0  0  0
 16 19  1  0  0  0  0
 19 20  1  0  0  0  0
 19 21  1  0  0  0  0
 19 22  1  0  0  0  0
 22 23  1  0  0  0  0
 22 24  1  0  0  0  0
 22 25  1  0  0  0  0
M  END
> <VConfSearch Rank>
994

> <Conf_Id>
24

> <Delta U+W>
1.784

> <U+W>
-49.846

> <U>
10.904

> <W>
-60.749

> <W(PB)>
-63.220

> <W(SA)>
2.471

> <Valence>
9.445

> <Coulomb>
0.780

> <VdW>
0.679

> <VdW6>
-10.008

> <VdW12>
10.687

> <Bond>
0.201

> <Angle>
3.198

> <Pdih>
6.039

> <Idih>
0.006

> <Tether>
0.000

$$$$
VeraChem MOL file


 25 24  0  0  0  0  0  0  0  0999 V2000     
   17.9591   17.4206   25.2975 C   0  0  0  0  0  0  0  0  0  0  0  0
   17.0591   17.1430   24.5291 O   0  5  0  0  0  0  0  0  0  0  0  0
   18.7947   16.6198   25.6689 O   0  0  0  0  0  0  0  0  0  0  0  0
   18.0055   18.8318   25.8804 C   0  0  0  0  0  0  0  0  0  0  0  0
   18.8411   18.8982   26.5875 H   0  0  0  0  0  0  0  0  0  0  0  0
   17.0876   18.9529   26.4672 H   0  0  0  0  0  0  0  0  0  0  0  0
   18.0924   19.9789   24.8346 C   0  0  0  0  0  0  0  0  0  0  0  0
   17.3860   19.7918   24.0138 H   0  0  0  0  0  0  0  0  0  0  0  0
   17.7542   20.9052   25.3184 H   0  0  0  0  0  0  0  0  0  0  0  0
   19.5106   20.2342   24.2667 C   0  0  0  0  0  0  0  0  0  0  0  0
   20.2090   20.4323   25.0912 H   0  0  0  0  0  0  0  0  0  0  0  0
   19.4773   21.1518   23.6634 H   0  0  0  0  0  0  0  0  0  0  0  0
   20.0551   19.0835   23.3903 C   0  0  0  0  0  0  0  0  0  0  0  0
   20.2205   18.1913   24.0073 H   0  0  0  0  0  0  0  0  0  0  0  0
   19.3098   18.8150   22.6291 H   0  0  0  0  0  0  0  0  0  0  0  0
   21.3826   19.4687   22.7018 C   0  0  0  0  0  0  0  0  0  0  0  0
   22.1251   19.7415   23.4643 H   0  0  0  0  0  0  0  0  0  0  0  0
   21.2273   20.3568   22.0740 H   0  0  0  0  0  0  0  0  0  0  0  0
   21.9330   18.3163   21.8356 C   0  0  0  0  0  0  0  0  0  0  0  0
   22.0914   17.4265   22.4608 H   0  0  0  0  0  0  0  0  0  0  0  0
   21.1928   18.0415   21.0714 H   0  0  0  0  0  0  0  0  0  0  0  0
   23.2586   18.7037   21.1498 C   0  0  0  0  0  0  0  0  0  0  0  0
   24.0271   18.9532   21.8931 H   0  0  0  0  0  0  0  0  0  0  0  0
   23.6352   17.8731   20.5387 H   0  0  0  0  0  0  0  0  0  0  0  0
   23.1218   19.5728   20.4931 H   0  0  0  0  0  0  0  0  0  0  0  0
  1  2  1  0  0  0  0
  1  3  2  0  0  0  0
  1  4  1  0  0  0  0
  4  5  1  0  0  0  0
  4  6  1  0  0  0  0
  4  7  1  0  0  0  0
  7  8  1  0  0  0  0
  7  9  1  0  0  0  0
  7 10  1  0  0  0  0
 10 11  1  0  0  0  0
 10 12  1  0  0  0  0
 10 13  1  0  0  0  0
 13 14  1  0  0  0  0
 13 15  1  0  0  0  0
 13 16  1  0  0  0  0
 16 17  1  0  0  0  0
 16 18  1  0  0  0  0
 16 19  1  0  0  0  0
 19 20  1  0  0  0  0
 19 21  1  0  0  0  0
 19 22  1  0  0  0  0
 22 23  1  0  0  0  0
 22 24  1  0  0  0  0
 22 25  1  0  0  0  0
M  END
> <VConfSearch Rank>
995

> <Conf_Id>
9

> <Delta U+W>
1.764

> <U+W>
-49.865

> <U>
10.902

> <W>
-60.768

> <W(PB)>
-63.223

> <W(SA)>
2.456

> <Valence>
9.445

> <Coulomb>
0.778

> <VdW>
0.679

> <VdW6>
-10.007

> <VdW12>
10.687

> <Bond>
0.201

> <Angle>
3.198

> <Pdih>
6.040

> <Idih>
0.006

> <Tether>
0.000

$$$$
VeraChem MOL file


 25 24  0  0  0  0  0  0  0  0999 V2000     
   18.1627   17.5265   20.6327 C   0  0  0  0  0  0  0  0  0  0  0  0
   19.1900   17.3608   20.0052 O   0  5  0  0  0  0  0  0  0  0  0  0
   17.1209   16.9530   20.3824 O   0  0  0  0  0  0  0  0  0  0  0  0
   18.1870   18.4920   21.8121 C   0  0  0  0  0  0  0  0  0  0  0  0
   17.1991   18.9622   21.8842 H   0  0  0  0  0  0  0  0  0  0  0  0
   18.9022   19.2868   21.5791 H   0  0  0  0  0  0  0  0  0  0  0  0
   18.5425   17.7936   23.1513 C   0  0  0  0  0  0  0  0  0  0  0  0
   17.7901   17.0143   23.3356 H   0  0  0  0  0  0  0  0  0  0  0  0
   19.5060   17.2729   23.0624 H   0  0  0  0  0  0  0  0  0  0  0  0
   18.5639   18.7580   24.3645 C   0  0  0  0  0  0  0  0  0  0  0  0
   18.1927   18.2107   25.2419 H   0  0  0  0  0  0  0  0  0  0  0  0
   17.8571   19.5842   24.2076 H   0  0  0  0  0  0  0  0  0  0  0  0
   19.9645   19.3152   24.7229 C   0  0  0  0  0  0  0  0  0  0  0  0
   19.8736   19.9128   25.6400 H   0  0  0  0  0  0  0  0  0  0  0  0
   20.6319   18.4776   24.9646 H   0  0  0  0  0  0  0  0  0  0  0  0
   20.6030   20.1879   23.6166 C   0  0  0  0  0  0  0  0  0  0  0  0
   19.8678   20.9283   23.2736 H   0  0  0  0  0  0  0  0  0  0  0  0
   20.8545   19.5630   22.7497 H   0  0  0  0  0  0  0  0  0  0  0  0
   21.8739   20.9350   24.0841 C   0  0  0  0  0  0  0  0  0  0  0  0
   22.2067   21.6036   23.2783 H   0  0  0  0  0  0  0  0  0  0  0  0
   21.6321   21.5786   24.9411 H   0  0  0  0  0  0  0  0  0  0  0  0
   23.0348   19.9878   24.4573 C   0  0  0  0  0  0  0  0  0  0  0  0
   23.2776   19.3167   23.6231 H   0  0  0  0  0  0  0  0  0  0  0  0
   23.9369   20.5634   24.7018 H   0  0  0  0  0  0  0  0  0  0  0  0
   22.7848   19.3739   25.3316 H   0  0  0  0  0  0  0  0  0  0  0  0
  1  2  1  0  0  0  0
  1  3  2  0  0  0  0
  1  4  1  0  0  0  0
  4  5  1  0  0  0  0
  4  6  1  0  0  0  0
  4  7  1  0  0  0  0
  7  8  1  0  0  0  0
  7  9  1  0  0  0  0
  7 10  1  0  0  0  0
 10 11  1  0  0  0  0
 10 12  1  0  0  0  0
 10 13  1  0  0  0  0
 13 14  1  0  0  0  0
 13 15  1  0  0  0  0
 13 16  1  0  0  0  0
 16 17  1  0  0  0  0
 16 18  1  0  0  0  0
 16 19  1  0  0  0  0
 19 20  1  0  0  0  0
 19 21  1  0  0  0  0
 19 22  1  0  0  0  0
 22 23  1  0  0  0  0
 22 24  1  0  0  0  0
 22 25  1  0  0  0  0
M  END
> <VConfSearch Rank>
996

> <Conf_Id>
89

> <Delta U+W>
2.903

> <U+W>
-48.726

> <U>
10.996

> <W>
-59.723

> <W(PB)>
-62.151

> <W(SA)>
2.428

> <Valence>
10.985

> <Coulomb>
-0.995

> <VdW>
1.006

> <VdW6>
-10.062

> <VdW12>
11.069

> <Bond>
0.238

> <Angle>
3.202

> <Pdih>
7.544

> <Idih>
0.001

> <Tether>
0.000

$$$$
VeraChem MOL file


 25 24  0  0  0  0  0  0  0  0999 V2000     
   18.6698   21.1744   21.1501 C   0  0  0  0  0  0  0  0  0  0  0  0
   19.0200   22.2336   21.6326 O   0  5  0  0  0  0  0  0  0  0  0  0
   19.0473   20.7740   20.0662 O   0  0  0  0  0  0  0  0  0  0  0  0
   17.6518   20.3346   21.9193 C   0  0  0  0  0  0  0  0  0  0  0  0
   16.7482   20.3035   21.2996 H   0  0  0  0  0  0  0  0  0  0  0  0
   17.3805   20.8600   22.8429 H   0  0  0  0  0  0  0  0  0  0  0  0
   18.0966   18.8791   22.2375 C   0  0  0  0  0  0  0  0  0  0  0  0
   17.1930   18.2833   22.4247 H   0  0  0  0  0  0  0  0  0  0  0  0
   18.5753   18.4314   21.3554 H   0  0  0  0  0  0  0  0  0  0  0  0
   19.0192   18.7341   23.4735 C   0  0  0  0  0  0  0  0  0  0  0  0
   19.1185   17.6633   23.6900 H   0  0  0  0  0  0  0  0  0  0  0  0
   18.5344   19.1831   24.3510 H   0  0  0  0  0  0  0  0  0  0  0  0
   20.4266   19.3505   23.2848 C   0  0  0  0  0  0  0  0  0  0  0  0
   20.8912   18.9494   22.3737 H   0  0  0  0  0  0  0  0  0  0  0  0
   20.3299   20.4327   23.1351 H   0  0  0  0  0  0  0  0  0  0  0  0
   21.3677   19.1240   24.4925 C   0  0  0  0  0  0  0  0  0  0  0  0
   20.8881   19.4961   25.4081 H   0  0  0  0  0  0  0  0  0  0  0  0
   22.2702   19.7330   24.3460 H   0  0  0  0  0  0  0  0  0  0  0  0
   21.7883   17.6489   24.6839 C   0  0  0  0  0  0  0  0  0  0  0  0
   20.9116   17.0302   24.9145 H   0  0  0  0  0  0  0  0  0  0  0  0
   22.2173   17.2619   23.7494 H   0  0  0  0  0  0  0  0  0  0  0  0
   22.8192   17.4984   25.8209 C   0  0  0  0  0  0  0  0  0  0  0  0
   22.4064   17.8536   26.7743 H   0  0  0  0  0  0  0  0  0  0  0  0
   23.1055   16.4461   25.9466 H   0  0  0  0  0  0  0  0  0  0  0  0
   23.7292   18.0735   25.6056 H   0  0  0  0  0  0  0  0  0  0  0  0
  1  2  1  0  0  0  0
  1  3  2  0  0  0  0
  1  4  1  0  0  0  0
  4  5  1  0  0  0  0
  4  6  1  0  0  0  0
  4  7  1  0  0  0  0
  7  8  1  0  0  0  0
  7  9  1  0  0  0  0
  7 10  1  0  0  0  0
 10 11  1  0  0  0  0
 10 12  1  0  0  0  0
 10 13  1  0  0  0  0
 13 14  1  0  0  0  0
 13 15  1  0  0  0  0
 13 16  1  0  0  0  0
 16 17  1  0  0  0  0
 16 18  1  0  0  0  0
 16 19  1  0  0  0  0
 19 20  1  0  0  0  0
 19 21  1  0  0  0  0
 19 22  1  0  0  0  0
 22 23  1  0  0  0  0
 22 24  1  0  0  0  0
 22 25  1  0  0  0  0
M  END
> <VConfSearch Rank>
997

> <Conf_Id>
114

> <Delta U+W>
2.758

> <U+W>
-48.871

> <U>
11.422

> <W>
-60.293

> <W(PB)>
-62.719

> <W(SA)>
2.425

> <Valence>
10.135

> <Coulomb>
0.369

> <VdW>
0.918

> <VdW6>
-10.482

> <VdW12>
11.400

> <Bond>
0.245

> <Angle>
3.539

> <Pdih>
6.346

> <Idih>
0.006

> <Tether>
0.000

$$$$
VeraChem MOL file


 25 24  0  0  0  0  0  0  0  0999 V2000     
   22.9924   18.5862   25.9678 C   0  0  0  0  0  0  0  0  0  0  0  0
   22.5574   17.7810   26.7674 O   0  5  0  0  0  0  0  0  0  0  0  0
   23.9773   18.3899   25.2834 O   0  0  0  0  0  0  0  0  0  0  0  0
   22.2760   19.9265   25.8287 C   0  0  0  0  0  0  0  0  0  0  0  0
   23.0433   20.7095   25.8194 H   0  0  0  0  0  0  0  0  0  0  0  0
   21.6651   20.0914   26.7244 H   0  0  0  0  0  0  0  0  0  0  0  0
   21.4013   20.0430   24.5535 C   0  0  0  0  0  0  0  0  0  0  0  0
   21.0315   21.0736   24.4675 H   0  0  0  0  0  0  0  0  0  0  0  0
   22.0307   19.8565   23.6735 H   0  0  0  0  0  0  0  0  0  0  0  0
   20.1992   19.0683   24.5696 C   0  0  0  0  0  0  0  0  0  0  0  0
   19.6392   19.2102   25.5040 H   0  0  0  0  0  0  0  0  0  0  0  0
   20.5596   18.0304   24.5804 H   0  0  0  0  0  0  0  0  0  0  0  0
   19.2271   19.2643   23.3816 C   0  0  0  0  0  0  0  0  0  0  0  0
   18.3441   18.6376   23.5598 H   0  0  0  0  0  0  0  0  0  0  0  0
   18.8727   20.3038   23.3634 H   0  0  0  0  0  0  0  0  0  0  0  0
   19.8479   18.8990   22.0106 C   0  0  0  0  0  0  0  0  0  0  0  0
   20.2053   17.8605   22.0307 H   0  0  0  0  0  0  0  0  0  0  0  0
   20.7285   19.5280   21.8290 H   0  0  0  0  0  0  0  0  0  0  0  0
   18.8729   19.0878   20.8247 C   0  0  0  0  0  0  0  0  0  0  0  0
   18.5043   20.1228   20.8085 H   0  0  0  0  0  0  0  0  0  0  0  0
   19.4275   18.9417   19.8875 H   0  0  0  0  0  0  0  0  0  0  0  0
   17.6780   18.1098   20.8499 C   0  0  0  0  0  0  0  0  0  0  0  0
   17.0729   18.2205   19.9407 H   0  0  0  0  0  0  0  0  0  0  0  0
   18.0231   17.0690   20.9012 H   0  0  0  0  0  0  0  0  0  0  0  0
   17.0223   18.2985   21.7089 H   0  0  0  0  0  0  0  0  0  0  0  0
  1  2  1  0  0  0  0
  1  3  2  0  0  0  0
  1  4  1  0  0  0  0
  4  5  1  0  0  0  0
  4  6  1  0  0  0  0
  4  7  1  0  0  0  0
  7  8  1  0  0  0  0
  7  9  1  0  0  0  0
  7 10  1  0  0  0  0
 10 11  1  0  0  0  0
 10 12  1  0  0  0  0
 10 13  1  0  0  0  0
 13 14  1  0  0  0  0
 13 15  1  0  0  0  0
 13 16  1  0  0  0  0
 16 17  1  0  0  0  0
 16 18  1  0  0  0  0
 16 19  1  0  0  0  0
 19 20  1  0  0  0  0
 19 21  1  0  0  0  0
 19 22  1  0  0  0  0
 22 23  1  0  0  0  0
 22 24  1  0  0  0  0
 22 25  1  0  0  0  0
M  END
> <VConfSearch Rank>
998

> <Conf_Id>
87

> <Delta U+W>
1.453

> <U+W>
-50.176

> <U>
9.763

> <W>
-59.940

> <W(PB)>
-62.392

> <W(SA)>
2.452

> <Valence>
8.883

> <Coulomb>
-0.122

> <VdW>
1.003

> <VdW6>
-9.782

> <VdW12>
10.785

> <Bond>
0.212

> <Angle>
2.940

> <Pdih>
5.730

> <Idih>
0.001

> <Tether>
0.000

$$$$
VeraChem MOL file


 25 24  0  0  0  0  0  0  0  0999 V2000     
   16.3546   17.8519   22.7433 C   0  0  0  0  0  0  0  0  0  0  0  0
   15.7255   18.8888   22.8191 O   0  5  0  0  0  0  0  0  0  0  0  0
   16.0345   16.9207   22.0312 O   0  0  0  0  0  0  0  0  0  0  0  0
   17.6261   17.7189   23.5737 C   0  0  0  0  0  0  0  0  0  0  0  0
   17.7392   16.6656   23.8572 H   0  0  0  0  0  0  0  0  0  0  0  0
   17.4902   18.2914   24.4991 H   0  0  0  0  0  0  0  0  0  0  0  0
   18.8886   18.2098   22.8232 C   0  0  0  0  0  0  0  0  0  0  0  0
   19.0070   17.6337   21.8952 H   0  0  0  0  0  0  0  0  0  0  0  0
   18.7436   19.2588   22.5330 H   0  0  0  0  0  0  0  0  0  0  0  0
   20.1615   18.0705   23.6898 C   0  0  0  0  0  0  0  0  0  0  0  0
   20.2516   17.0292   24.0277 H   0  0  0  0  0  0  0  0  0  0  0  0
   20.0606   18.6779   24.5988 H   0  0  0  0  0  0  0  0  0  0  0  0
   21.4623   18.4545   22.9408 C   0  0  0  0  0  0  0  0  0  0  0  0
   22.3193   18.2718   23.6022 H   0  0  0  0  0  0  0  0  0  0  0  0
   21.5945   17.7736   22.0890 H   0  0  0  0  0  0  0  0  0  0  0  0
   21.5208   19.9151   22.4202 C   0  0  0  0  0  0  0  0  0  0  0  0
   20.7653   20.0518   21.6355 H   0  0  0  0  0  0  0  0  0  0  0  0
   22.4903   20.0724   21.9284 H   0  0  0  0  0  0  0  0  0  0  0  0
   21.3265   21.0082   23.4997 C   0  0  0  0  0  0  0  0  0  0  0  0
   21.3622   21.9921   23.0122 H   0  0  0  0  0  0  0  0  0  0  0  0
   20.3261   20.9260   23.9449 H   0  0  0  0  0  0  0  0  0  0  0  0
   22.3972   20.9652   24.6113 C   0  0  0  0  0  0  0  0  0  0  0  0
   23.4073   21.0296   24.1864 H   0  0  0  0  0  0  0  0  0  0  0  0
   22.2666   21.8068   25.3037 H   0  0  0  0  0  0  0  0  0  0  0  0
   22.3276   20.0392   25.1959 H   0  0  0  0  0  0  0  0  0  0  0  0
  1  2  1  0  0  0  0
  1  3  2  0  0  0  0
  1  4  1  0  0  0  0
  4  5  1  0  0  0  0
  4  6  1  0  0  0  0
  4  7  1  0  0  0  0
  7  8  1  0  0  0  0
  7  9  1  0  0  0  0
  7 10  1  0  0  0  0
 10 11  1  0  0  0  0
 10 12  1  0  0  0  0
 10 13  1  0  0  0  0
 13 14  1  0  0  0  0
 13 15  1  0  0  0  0
 13 16  1  0  0  0  0
 16 17  1  0  0  0  0
 16 18  1  0  0  0  0
 16 19  1  0  0  0  0
 19 20  1  0  0  0  0
 19 21  1  0  0  0  0
 19 22  1  0  0  0  0
 22 23  1  0  0  0  0
 22 24  1  0  0  0  0
 22 25  1  0  0  0  0
M  END
> <VConfSearch Rank>
999

> <Conf_Id>
29

> <Delta U+W>
0.850

> <U+W>
-50.780

> <U>
8.646

> <W>
-59.426

> <W(PB)>
-61.868

> <W(SA)>
2.442

> <Valence>
8.924

> <Coulomb>
-1.171

> <VdW>
0.894

> <VdW6>
-10.223

> <VdW12>
11.117

> <Bond>
0.231

> <Angle>
3.232

> <Pdih>
5.461

> <Idih>
0.001

> <Tether>
0.000

$$$$
VeraChem MOL file


 25 24  0  0  0  0  0  0  0  0999 V2000     
   20.5239   23.0994   23.4506 C   0  0  0  0  0  0  0  0  0  0  0  0
   20.1770   23.4320   22.3345 O   0  5  0  0  0  0  0  0  0  0  0  0
   21.3878   23.6714   24.0856 O   0  0  0  0  0  0  0  0  0  0  0  0
   19.8511   21.8857   24.0818 C   0  0  0  0  0  0  0  0  0  0  0  0
   18.8172   21.8419   23.7187 H   0  0  0  0  0  0  0  0  0  0  0  0
   19.8079   22.0456   25.1658 H   0  0  0  0  0  0  0  0  0  0  0  0
   20.5844   20.5591   23.7651 C   0  0  0  0  0  0  0  0  0  0  0  0
   20.6324   20.4314   22.6755 H   0  0  0  0  0  0  0  0  0  0  0  0
   21.6201   20.6207   24.1267 H   0  0  0  0  0  0  0  0  0  0  0  0
   19.8778   19.3447   24.4105 C   0  0  0  0  0  0  0  0  0  0  0  0
   18.8555   19.2585   24.0195 H   0  0  0  0  0  0  0  0  0  0  0  0
   19.7771   19.5220   25.4898 H   0  0  0  0  0  0  0  0  0  0  0  0
   20.6355   18.0092   24.2043 C   0  0  0  0  0  0  0  0  0  0  0  0
   21.6202   18.0828   24.6854 H   0  0  0  0  0  0  0  0  0  0  0  0
   20.1025   17.2128   24.7401 H   0  0  0  0  0  0  0  0  0  0  0  0
   20.8380   17.5834   22.7259 C   0  0  0  0  0  0  0  0  0  0  0  0
   21.3652   16.6200   22.7085 H   0  0  0  0  0  0  0  0  0  0  0  0
   21.5095   18.2971   22.2309 H   0  0  0  0  0  0  0  0  0  0  0  0
   19.5390   17.4558   21.8926 C   0  0  0  0  0  0  0  0  0  0  0  0
   19.0387   18.4307   21.8209 H   0  0  0  0  0  0  0  0  0  0  0  0
   19.8082   17.1763   20.8648 H   0  0  0  0  0  0  0  0  0  0  0  0
   18.5559   16.4049   22.4522 C   0  0  0  0  0  0  0  0  0  0  0  0
   18.1770   16.6994   23.4390 H   0  0  0  0  0  0  0  0  0  0  0  0
   17.6924   16.2921   21.7840 H   0  0  0  0  0  0  0  0  0  0  0  0
   19.0410   15.4248   22.5475 H   0  0  0  0  0  0  0  0  0  0  0  0
  1  2  1  0  0  0  0
  1  3  2  0  0  0  0
  1  4  1  0  0  0  0
  4  5  1  0  0  0  0
  4  6  1  0  0  0  0
  4  7  1  0  0  0  0
  7  8  1  0  0  0  0
  7  9  1  0  0  0  0
  7 10  1  0  0  0  0
 10 11  1  0  0  0  0
 10 12  1  0  0  0  0
 10 13  1  0  0  0  0
 13 14  1  0  0  0  0
 13 15  1  0  0  0  0
 13 16  1  0  0  0  0
 16 17  1  0  0  0  0
 16 18  1  0  0  0  0
 16 19  1  0  0  0  0
 19 20  1  0  0  0  0
 19 21  1  0  0  0  0
 19 22  1  0  0  0  0
 22 23  1  0  0  0  0
 22 24  1  0  0  0  0
 22 25  1  0  0  0  0
M  END
> <VConfSearch Rank>
1000

> <Conf_Id>
30

> <Delta U+W>
0.843

> <U+W>
-50.787

> <U>
8.647

> <W>
-59.434

> <W(PB)>
-61.861

> <W(SA)>
2.428

> <Valence>
8.924

> <Coulomb>
-1.170

> <VdW>
0.894

> <VdW6>
-10.224

> <VdW12>
11.118

> <Bond>
0.231

> <Angle>
3.232

> <Pdih>
5.460

> <Idih>
0.000

> <Tether>
0.000

$$$$
