@<TRIPOS>MOLECULE
guest-8_confgen4.mol2 : confsearch ligand conformer 1
          25          24           1
SMALL
USER_CHARGES
 
@<TRIPOS>ATOM
       1    C1      20.129691   19.339131   27.829233 C.2        1 MOL1         0.6168
       2    O1      21.003913   20.183514   27.866055 O.co2      1 MOL1        -0.6703
       3    O2      19.618540   18.868961   28.826119 O.co2      1 MOL1        -0.6703
       4    C2      19.628806   18.824184   26.478921 C.3        1 MOL1        -0.1963
       5    H1      18.548262   19.005418   26.440385 H          1 MOL1         0.0750
       6    H2      19.772557   17.737372   26.469811 H          1 MOL1         0.0750
       7    C3      20.311135   19.454130   25.235534 C.3        1 MOL1        -0.1860
       8    H3      20.168719   20.543564   25.254400 H          1 MOL1         0.0752
       9    H4      21.394115   19.274329   25.283812 H          1 MOL1         0.0752
      10    C4      19.747261   18.879195   23.917906 C.3        1 MOL1        -0.1858
      11    H5      18.664530   19.060053   23.871873 H          1 MOL1         0.0752
      12    H6      19.890712   17.790029   23.901295 H          1 MOL1         0.0752
      13    C5      20.427382   19.507219   22.682386 C.3        1 MOL1        -0.1858
      14    H7      20.284065   20.596392   22.698713 H          1 MOL1         0.0752
      15    H8      21.510131   19.326480   22.728121 H          1 MOL1         0.0752
      16    C6      19.864031   18.932802   21.364587 C.3        1 MOL1        -0.1858
      17    H9      18.781287   19.113480   21.318618 H          1 MOL1         0.0752
      18    H10     20.007338   17.843637   21.347999 H          1 MOL1         0.0752
      19    C7      20.543749   19.560507   20.129543 C.3        1 MOL1        -0.1834
      20    H11     20.400865   20.649968   20.141725 H          1 MOL1         0.0752
      21    H12     21.626904   19.380133   20.171097 H          1 MOL1         0.0752
      22    C8      19.978492   18.984358   18.815717 C.3        1 MOL1        -0.2849
      23    H13     18.901059   19.178538   18.733078 H          1 MOL1         0.0764
      24    H14     20.472666   19.441447   17.948567 H          1 MOL1         0.0764
      25    H15     20.136341   17.899155   18.762659 H          1 MOL1         0.0764
@<TRIPOS>BOND
    1     1     2    1
    2     1     3    2
    3     1     4    1
    4     4     5    1
    5     4     6    1
    6     4     7    1
    7     7     8    1
    8     7     9    1
    9     7    10    1
   10    10    11    1
   11    10    12    1
   12    10    13    1
   13    13    14    1
   14    13    15    1
   15    13    16    1
   16    16    17    1
   17    16    18    1
   18    16    19    1
   19    19    20    1
   20    19    21    1
   21    19    22    1
   22    22    23    1
   23    22    24    1
   24    22    25    1
@<TRIPOS>SUBSTRUCTURE
       1 MOL1            1 RESIDUE      1      MOL     
@<SCITEGIC>MOL_PROPERTY
VConf Rank
SciTegic.value.IntegerValue
1

@<SCITEGIC>MOL_PROPERTY
Conf_Id
SciTegic.value.IntegerValue
0

@<SCITEGIC>MOL_PROPERTY
Delta U+W
SciTegic.value.DoubleValue
0.000

@<SCITEGIC>MOL_PROPERTY
U+W
SciTegic.value.DoubleValue
-51.629

@<SCITEGIC>MOL_PROPERTY
Grad RMS
SciTegic.value.DoubleValue
0.000000

@<SCITEGIC>MOL_PROPERTY
U
SciTegic.value.DoubleValue
6.586

@<SCITEGIC>MOL_PROPERTY
W
SciTegic.value.DoubleValue
-58.216

@<SCITEGIC>MOL_PROPERTY
W(PB)
SciTegic.value.DoubleValue
-60.757

@<SCITEGIC>MOL_PROPERTY
W(SA)
SciTegic.value.DoubleValue
2.541

@<SCITEGIC>MOL_PROPERTY
Valence
SciTegic.value.DoubleValue
8.027

@<SCITEGIC>MOL_PROPERTY
Coulomb
SciTegic.value.DoubleValue
-2.892

@<SCITEGIC>MOL_PROPERTY
VdW
SciTegic.value.DoubleValue
1.451

@<SCITEGIC>MOL_PROPERTY
VdW6
SciTegic.value.DoubleValue
-7.931

@<SCITEGIC>MOL_PROPERTY
VdW12
SciTegic.value.DoubleValue
9.383

@<SCITEGIC>MOL_PROPERTY
Bond
SciTegic.value.DoubleValue
0.149

@<SCITEGIC>MOL_PROPERTY
Angle
SciTegic.value.DoubleValue
2.726

@<SCITEGIC>MOL_PROPERTY
Pdih
SciTegic.value.DoubleValue
5.152

@<SCITEGIC>MOL_PROPERTY
Idih
SciTegic.value.DoubleValue
0.000

@<SCITEGIC>MOL_PROPERTY
Tether
SciTegic.value.DoubleValue
0.000

@<TRIPOS>MOLECULE
guest-8_confgen4.mol2 : confsearch ligand conformer 2
          25          24           1
SMALL
USER_CHARGES
 
@<TRIPOS>ATOM
       1    C1      20.159814   19.341547   27.808409 C.2        1 MOL1         0.6168
       2    O1      21.208966   19.725953   28.286041 O.co2      1 MOL1        -0.6703
       3    O2      19.073902   19.550538   28.312135 O.co2      1 MOL1        -0.6703
       4    C2      20.206778   18.574192   26.491958 C.3        1 MOL1        -0.1963
       5    H1      19.379989   17.853769   26.487946 H          1 MOL1         0.0750
       6    H2      21.139357   17.997764   26.466800 H          1 MOL1         0.0750
       7    C3      20.116191   19.499092   25.253259 C.3        1 MOL1        -0.1860
       8    H3      19.183649   20.078517   25.300431 H          1 MOL1         0.0752
       9    H4      20.942893   20.222607   25.279381 H          1 MOL1         0.0752
      10    C4      20.165926   18.699122   23.933563 C.3        1 MOL1        -0.1858
      11    H5      19.338960   17.976071   23.911072 H          1 MOL1         0.0752
      12    H6      21.098620   18.120007   23.890140 H          1 MOL1         0.0752
      13    C5      20.075641   19.623762   22.700535 C.3        1 MOL1        -0.1858
      14    H7      19.143001   20.202920   22.743701 H          1 MOL1         0.0752
      15    H8      20.902516   20.346870   22.722824 H          1 MOL1         0.0752
      16    C6      20.125376   18.824494   21.380468 C.3        1 MOL1        -0.1858
      17    H9      19.298546   18.101351   21.357821 H          1 MOL1         0.0752
      18    H10     21.057929   18.245227   21.336996 H          1 MOL1         0.0752
      19    C7      20.035221   19.748578   20.147868 C.3        1 MOL1        -0.1834
      20    H11     19.102587   20.328367   20.186934 H          1 MOL1         0.0752
      21    H12     20.861964   20.472217   20.166090 H          1 MOL1         0.0752
      22    C8      20.085187   18.946721   18.831763 C.3        1 MOL1        -0.2849
      23    H13     20.019966   19.618995   17.966384 H          1 MOL1         0.0764
      24    H14     21.022831   18.381208   18.751671 H          1 MOL1         0.0764
      25    H15     19.250214   18.236281   18.772677 H          1 MOL1         0.0764
@<TRIPOS>BOND
    1     1     2    1
    2     1     3    2
    3     1     4    1
    4     4     5    1
    5     4     6    1
    6     4     7    1
    7     7     8    1
    8     7     9    1
    9     7    10    1
   10    10    11    1
   11    10    12    1
   12    10    13    1
   13    13    14    1
   14    13    15    1
   15    13    16    1
   16    16    17    1
   17    16    18    1
   18    16    19    1
   19    19    20    1
   20    19    21    1
   21    19    22    1
   22    22    23    1
   23    22    24    1
   24    22    25    1
@<TRIPOS>SUBSTRUCTURE
       1 MOL1            1 RESIDUE      1      MOL     
@<SCITEGIC>MOL_PROPERTY
VConf Rank
SciTegic.value.IntegerValue
2

@<SCITEGIC>MOL_PROPERTY
Conf_Id
SciTegic.value.IntegerValue
27

@<SCITEGIC>MOL_PROPERTY
Delta U+W
SciTegic.value.DoubleValue
-1.297

@<SCITEGIC>MOL_PROPERTY
U+W
SciTegic.value.DoubleValue
-52.926

@<SCITEGIC>MOL_PROPERTY
Grad RMS
SciTegic.value.DoubleValue
0.000000

@<SCITEGIC>MOL_PROPERTY
U
SciTegic.value.DoubleValue
5.617

@<SCITEGIC>MOL_PROPERTY
W
SciTegic.value.DoubleValue
-58.543

@<SCITEGIC>MOL_PROPERTY
W(PB)
SciTegic.value.DoubleValue
-61.065

@<SCITEGIC>MOL_PROPERTY
W(SA)
SciTegic.value.DoubleValue
2.522

@<SCITEGIC>MOL_PROPERTY
Valence
SciTegic.value.DoubleValue
7.531

@<SCITEGIC>MOL_PROPERTY
Coulomb
SciTegic.value.DoubleValue
-2.818

@<SCITEGIC>MOL_PROPERTY
VdW
SciTegic.value.DoubleValue
0.904

@<SCITEGIC>MOL_PROPERTY
VdW6
SciTegic.value.DoubleValue
-7.640

@<SCITEGIC>MOL_PROPERTY
VdW12
SciTegic.value.DoubleValue
8.544

@<SCITEGIC>MOL_PROPERTY
Bond
SciTegic.value.DoubleValue
0.115

@<SCITEGIC>MOL_PROPERTY
Angle
SciTegic.value.DoubleValue
2.271

@<SCITEGIC>MOL_PROPERTY
Pdih
SciTegic.value.DoubleValue
5.144

@<SCITEGIC>MOL_PROPERTY
Idih
SciTegic.value.DoubleValue
0.001

@<SCITEGIC>MOL_PROPERTY
Tether
SciTegic.value.DoubleValue
0.000

@<TRIPOS>MOLECULE
guest-8_confgen4.mol2 : confsearch ligand conformer 3
          25          24           1
SMALL
USER_CHARGES
 
@<TRIPOS>ATOM
       1    C1      19.867472   19.540610   27.327044 C.2        1 MOL1         0.6168
       2    O1      20.482313   20.492212   27.766930 O.co2      1 MOL1        -0.6703
       3    O2      18.654510   19.465188   27.326822 O.co2      1 MOL1        -0.6703
       4    C2      20.665019   18.369772   26.759575 C.3        1 MOL1        -0.1963
       5    H1      20.016650   17.485663   26.731014 H          1 MOL1         0.0750
       6    H2      21.472061   18.148836   27.467993 H          1 MOL1         0.0750
       7    C3      21.266776   18.638472   25.355783 C.3        1 MOL1        -0.1860
       8    H3      21.890953   19.542128   25.394273 H          1 MOL1         0.0752
       9    H4      21.931672   17.806226   25.087775 H          1 MOL1         0.0752
      10    C4      20.183532   18.796663   24.265220 C.3        1 MOL1        -0.1858
      11    H5      19.524472   19.638953   24.517432 H          1 MOL1         0.0752
      12    H6      19.554012   17.896615   24.239921 H          1 MOL1         0.0752
      13    C5      20.805172   19.031349   22.871621 C.3        1 MOL1        -0.1858
      14    H7      21.434461   19.931566   22.897909 H          1 MOL1         0.0752
      15    H8      21.462304   18.188815   22.615980 H          1 MOL1         0.0752
      16    C6      19.723352   19.190354   21.781556 C.3        1 MOL1        -0.1858
      17    H9      19.066065   20.032848   22.037109 H          1 MOL1         0.0752
      18    H10     19.093716   18.290380   21.755341 H          1 MOL1         0.0752
      19    C7      20.344209   19.425475   20.388493 C.3        1 MOL1        -0.1834
      20    H11     20.973337   20.326139   20.410538 H          1 MOL1         0.0752
      21    H12     21.000924   18.583622   20.128707 H          1 MOL1         0.0752
      22    C8      19.260645   19.583904   19.302955 C.3        1 MOL1        -0.2849
      23    H13     18.607909   20.439253   19.521382 H          1 MOL1         0.0764
      24    H14     19.719458   19.750194   18.319634 H          1 MOL1         0.0764
      25    H15     18.635653   18.683634   19.237446 H          1 MOL1         0.0764
@<TRIPOS>BOND
    1     1     2    1
    2     1     3    2
    3     1     4    1
    4     4     5    1
    5     4     6    1
    6     4     7    1
    7     7     8    1
    8     7     9    1
    9     7    10    1
   10    10    11    1
   11    10    12    1
   12    10    13    1
   13    13    14    1
   14    13    15    1
   15    13    16    1
   16    16    17    1
   17    16    18    1
   18    16    19    1
   19    19    20    1
   20    19    21    1
   21    19    22    1
   22    22    23    1
   23    22    24    1
   24    22    25    1
@<TRIPOS>SUBSTRUCTURE
       1 MOL1            1 RESIDUE      1      MOL     
@<SCITEGIC>MOL_PROPERTY
VConf Rank
SciTegic.value.IntegerValue
3

@<SCITEGIC>MOL_PROPERTY
Conf_Id
SciTegic.value.IntegerValue
37

@<SCITEGIC>MOL_PROPERTY
Delta U+W
SciTegic.value.DoubleValue
-0.230

@<SCITEGIC>MOL_PROPERTY
U+W
SciTegic.value.DoubleValue
-51.860

@<SCITEGIC>MOL_PROPERTY
Grad RMS
SciTegic.value.DoubleValue
0.000000

@<SCITEGIC>MOL_PROPERTY
U
SciTegic.value.DoubleValue
7.816

@<SCITEGIC>MOL_PROPERTY
W
SciTegic.value.DoubleValue
-59.675

@<SCITEGIC>MOL_PROPERTY
W(PB)
SciTegic.value.DoubleValue
-62.180

@<SCITEGIC>MOL_PROPERTY
W(SA)
SciTegic.value.DoubleValue
2.505

@<SCITEGIC>MOL_PROPERTY
Valence
SciTegic.value.DoubleValue
7.785

@<SCITEGIC>MOL_PROPERTY
Coulomb
SciTegic.value.DoubleValue
-0.713

@<SCITEGIC>MOL_PROPERTY
VdW
SciTegic.value.DoubleValue
0.744

@<SCITEGIC>MOL_PROPERTY
VdW6
SciTegic.value.DoubleValue
-8.514

@<SCITEGIC>MOL_PROPERTY
VdW12
SciTegic.value.DoubleValue
9.259

@<SCITEGIC>MOL_PROPERTY
Bond
SciTegic.value.DoubleValue
0.136

@<SCITEGIC>MOL_PROPERTY
Angle
SciTegic.value.DoubleValue
2.433

@<SCITEGIC>MOL_PROPERTY
Pdih
SciTegic.value.DoubleValue
5.216

@<SCITEGIC>MOL_PROPERTY
Idih
SciTegic.value.DoubleValue
0.000

@<SCITEGIC>MOL_PROPERTY
Tether
SciTegic.value.DoubleValue
0.000

@<TRIPOS>MOLECULE
guest-8_confgen4.mol2 : confsearch ligand conformer 4
          25          24           1
SMALL
USER_CHARGES
 
@<TRIPOS>ATOM
       1    C1      20.333299   19.057933   27.338297 C.2        1 MOL1         0.6168
       2    O1      21.295932   19.649340   27.786236 O.co2      1 MOL1        -0.6703
       3    O2      20.214749   17.848704   27.364235 O.co2      1 MOL1        -0.6703
       4    C2      19.205113   19.882251   26.724566 C.3        1 MOL1        -0.1963
       5    H1      18.996739   20.713302   27.408612 H          1 MOL1         0.0750
       6    H2      18.299347   19.264817   26.689801 H          1 MOL1         0.0750
       7    C3      19.527553   20.440377   25.314080 C.3        1 MOL1        -0.1860
       8    H3      18.726029   21.127537   25.010898 H          1 MOL1         0.0752
       9    H4      20.451812   21.033108   25.359776 H          1 MOL1         0.0752
      10    C4      19.672096   19.326423   24.252957 C.3        1 MOL1        -0.1858
      11    H5      18.750886   18.728638   24.220558 H          1 MOL1         0.0752
      12    H6      20.484131   18.644270   24.540517 H          1 MOL1         0.0752
      13    C5      19.961227   19.905852   22.851425 C.3        1 MOL1        -0.1858
      14    H7      19.149016   20.586086   22.560510 H          1 MOL1         0.0752
      15    H8      20.882630   20.503339   22.884807 H          1 MOL1         0.0752
      16    C6      20.106480   18.793321   21.790750 C.3        1 MOL1        -0.1858
      17    H9      19.185280   18.195524   21.757408 H          1 MOL1         0.0752
      18    H10     20.918606   18.112891   22.081600 H          1 MOL1         0.0752
      19    C7      20.396097   19.371969   20.389803 C.3        1 MOL1        -0.1834
      20    H11     19.584743   20.051786   20.094790 H          1 MOL1         0.0752
      21    H12     21.318123   19.969046   20.418986 H          1 MOL1         0.0752
      22    C8      20.540453   18.257830   19.333650 C.3        1 MOL1        -0.2849
      23    H13     19.619949   17.663882   19.260901 H          1 MOL1         0.0764
      24    H14     20.746019   18.686813   18.344308 H          1 MOL1         0.0764
      25    H15     21.366347   17.580476   19.587597 H          1 MOL1         0.0764
@<TRIPOS>BOND
    1     1     2    1
    2     1     3    2
    3     1     4    1
    4     4     5    1
    5     4     6    1
    6     4     7    1
    7     7     8    1
    8     7     9    1
    9     7    10    1
   10    10    11    1
   11    10    12    1
   12    10    13    1
   13    13    14    1
   14    13    15    1
   15    13    16    1
   16    16    17    1
   17    16    18    1
   18    16    19    1
   19    19    20    1
   20    19    21    1
   21    19    22    1
   22    22    23    1
   23    22    24    1
   24    22    25    1
@<TRIPOS>SUBSTRUCTURE
       1 MOL1            1 RESIDUE      1      MOL     
@<SCITEGIC>MOL_PROPERTY
VConf Rank
SciTegic.value.IntegerValue
4

@<SCITEGIC>MOL_PROPERTY
Conf_Id
SciTegic.value.IntegerValue
54

@<SCITEGIC>MOL_PROPERTY
Delta U+W
SciTegic.value.DoubleValue
-0.224

@<SCITEGIC>MOL_PROPERTY
U+W
SciTegic.value.DoubleValue
-51.854

@<SCITEGIC>MOL_PROPERTY
Grad RMS
SciTegic.value.DoubleValue
0.000000

@<SCITEGIC>MOL_PROPERTY
U
SciTegic.value.DoubleValue
7.816

@<SCITEGIC>MOL_PROPERTY
W
SciTegic.value.DoubleValue
-59.670

@<SCITEGIC>MOL_PROPERTY
W(PB)
SciTegic.value.DoubleValue
-62.157

@<SCITEGIC>MOL_PROPERTY
W(SA)
SciTegic.value.DoubleValue
2.487

@<SCITEGIC>MOL_PROPERTY
Valence
SciTegic.value.DoubleValue
7.785

@<SCITEGIC>MOL_PROPERTY
Coulomb
SciTegic.value.DoubleValue
-0.713

@<SCITEGIC>MOL_PROPERTY
VdW
SciTegic.value.DoubleValue
0.744

@<SCITEGIC>MOL_PROPERTY
VdW6
SciTegic.value.DoubleValue
-8.515

@<SCITEGIC>MOL_PROPERTY
VdW12
SciTegic.value.DoubleValue
9.259

@<SCITEGIC>MOL_PROPERTY
Bond
SciTegic.value.DoubleValue
0.136

@<SCITEGIC>MOL_PROPERTY
Angle
SciTegic.value.DoubleValue
2.433

@<SCITEGIC>MOL_PROPERTY
Pdih
SciTegic.value.DoubleValue
5.215

@<SCITEGIC>MOL_PROPERTY
Idih
SciTegic.value.DoubleValue
0.000

@<SCITEGIC>MOL_PROPERTY
Tether
SciTegic.value.DoubleValue
0.000

@<TRIPOS>MOLECULE
guest-8_confgen4.mol2 : confsearch ligand conformer 5
          25          24           1
SMALL
USER_CHARGES
 
@<TRIPOS>ATOM
       1    C1      20.166943   19.442229   27.358313 C.2        1 MOL1         0.6168
       2    O1      21.199190   20.029754   27.615861 O.co2      1 MOL1        -0.6703
       3    O2      19.080933   19.766748   27.796922 O.co2      1 MOL1        -0.6703
       4    C2      20.238694   18.218406   26.449305 C.3        1 MOL1        -0.1963
       5    H1      19.642960   17.427017   26.919172 H          1 MOL1         0.0750
       6    H2      21.275505   17.861842   26.422593 H          1 MOL1         0.0750
       7    C3      19.721454   18.469384   25.008771 C.3        1 MOL1        -0.1860
       8    H3      19.666510   17.505463   24.487579 H          1 MOL1         0.0752
       9    H4      18.697317   18.864990   25.053905 H          1 MOL1         0.0752
      10    C4      20.625622   19.442770   24.214448 C.3        1 MOL1        -0.1858
      11    H5      21.638035   19.024701   24.130685 H          1 MOL1         0.0752
      12    H6      20.724864   20.380923   24.777474 H          1 MOL1         0.0752
      13    C5      20.085075   19.779530   22.804002 C.3        1 MOL1        -0.1858
      14    H7      19.065559   20.179896   22.886906 H          1 MOL1         0.0752
      15    H8      20.702939   20.585850   22.388958 H          1 MOL1         0.0752
      16    C6      20.096360   18.573136   21.832759 C.3        1 MOL1        -0.1858
      17    H9      19.473188   17.768136   22.242035 H          1 MOL1         0.0752
      18    H10     21.115169   18.170057   21.754198 H          1 MOL1         0.0752
      19    C7      19.565796   18.916255   20.420931 C.3        1 MOL1        -0.1834
      20    H11     19.477412   17.985773   19.843318 H          1 MOL1         0.0752
      21    H12     18.551322   19.331521   20.496406 H          1 MOL1         0.0752
      22    C8      20.472933   19.895789   19.644687 C.3        1 MOL1        -0.2849
      23    H13     20.495769   20.884490   20.119399 H          1 MOL1         0.0764
      24    H14     21.501639   19.516929   19.586886 H          1 MOL1         0.0764
      25    H15     20.104182   20.029146   18.619435 H          1 MOL1         0.0764
@<TRIPOS>BOND
    1     1     2    1
    2     1     3    2
    3     1     4    1
    4     4     5    1
    5     4     6    1
    6     4     7    1
    7     7     8    1
    8     7     9    1
    9     7    10    1
   10    10    11    1
   11    10    12    1
   12    10    13    1
   13    13    14    1
   14    13    15    1
   15    13    16    1
   16    16    17    1
   17    16    18    1
   18    16    19    1
   19    19    20    1
   20    19    21    1
   21    19    22    1
   22    22    23    1
   23    22    24    1
   24    22    25    1
@<TRIPOS>SUBSTRUCTURE
       1 MOL1            1 RESIDUE      1      MOL     
@<SCITEGIC>MOL_PROPERTY
VConf Rank
SciTegic.value.IntegerValue
5

@<SCITEGIC>MOL_PROPERTY
Conf_Id
SciTegic.value.IntegerValue
101

@<SCITEGIC>MOL_PROPERTY
Delta U+W
SciTegic.value.DoubleValue
1.534

@<SCITEGIC>MOL_PROPERTY
U+W
SciTegic.value.DoubleValue
-50.095

@<SCITEGIC>MOL_PROPERTY
Grad RMS
SciTegic.value.DoubleValue
0.000000

@<SCITEGIC>MOL_PROPERTY
U
SciTegic.value.DoubleValue
9.416

@<SCITEGIC>MOL_PROPERTY
W
SciTegic.value.DoubleValue
-59.512

@<SCITEGIC>MOL_PROPERTY
W(PB)
SciTegic.value.DoubleValue
-61.988

@<SCITEGIC>MOL_PROPERTY
W(SA)
SciTegic.value.DoubleValue
2.476

@<SCITEGIC>MOL_PROPERTY
Valence
SciTegic.value.DoubleValue
8.939

@<SCITEGIC>MOL_PROPERTY
Coulomb
SciTegic.value.DoubleValue
-0.615

@<SCITEGIC>MOL_PROPERTY
VdW
SciTegic.value.DoubleValue
1.092

@<SCITEGIC>MOL_PROPERTY
VdW6
SciTegic.value.DoubleValue
-9.710

@<SCITEGIC>MOL_PROPERTY
VdW12
SciTegic.value.DoubleValue
10.802

@<SCITEGIC>MOL_PROPERTY
Bond
SciTegic.value.DoubleValue
0.216

@<SCITEGIC>MOL_PROPERTY
Angle
SciTegic.value.DoubleValue
2.979

@<SCITEGIC>MOL_PROPERTY
Pdih
SciTegic.value.DoubleValue
5.743

@<SCITEGIC>MOL_PROPERTY
Idih
SciTegic.value.DoubleValue
0.000

@<SCITEGIC>MOL_PROPERTY
Tether
SciTegic.value.DoubleValue
0.000

@<TRIPOS>MOLECULE
guest-8_confgen4.mol2 : confsearch ligand conformer 6
          25          24           1
SMALL
USER_CHARGES
 
@<TRIPOS>ATOM
       1    C1      20.281298   19.429173   27.449573 C.2        1 MOL1         0.6168
       2    O1      21.151613   20.229443   27.730387 O.co2      1 MOL1        -0.6703
       3    O2      19.392046   19.106591   28.212428 O.co2      1 MOL1        -0.6703
       4    C2      20.292457   18.812671   26.055310 C.3        1 MOL1        -0.1963
       5    H1      19.877417   17.800348   26.127993 H          1 MOL1         0.0750
       6    H2      21.338255   18.714424   25.743840 H          1 MOL1         0.0750
       7    C3      19.488962   19.647797   25.024526 C.3        1 MOL1        -0.1860
       8    H3      18.475181   19.808304   25.416844 H          1 MOL1         0.0752
       9    H4      19.943085   20.643227   24.923567 H          1 MOL1         0.0752
      10    C4      19.379844   18.979237   23.633185 C.3        1 MOL1        -0.1858
      11    H5      18.681517   19.570702   23.027381 H          1 MOL1         0.0752
      12    H6      18.934643   17.980523   23.737752 H          1 MOL1         0.0752
      13    C5      20.735964   18.872961   22.893222 C.3        1 MOL1        -0.1858
      14    H7      21.180547   19.871105   22.788008 H          1 MOL1         0.0752
      15    H8      21.438741   18.289218   23.500731 H          1 MOL1         0.0752
      16    C6      20.631489   18.191146   21.505213 C.3        1 MOL1        -0.1858
      17    H9      20.266878   17.163806   21.640518 H          1 MOL1         0.0752
      18    H10     21.641375   18.100297   21.082665 H          1 MOL1         0.0752
      19    C7      19.724854   18.910269   20.475487 C.3        1 MOL1        -0.1834
      20    H11     19.730668   18.331581   19.541608 H          1 MOL1         0.0752
      21    H12     18.683270   18.912530   20.822531 H          1 MOL1         0.0752
      22    C8      20.174474   20.354712   20.166670 C.3        1 MOL1        -0.2849
      23    H13     21.222306   20.378880   19.840414 H          1 MOL1         0.0764
      24    H14     19.560130   20.785468   19.365548 H          1 MOL1         0.0764
      25    H15     20.072289   21.000710   21.047762 H          1 MOL1         0.0764
@<TRIPOS>BOND
    1     1     2    1
    2     1     3    2
    3     1     4    1
    4     4     5    1
    5     4     6    1
    6     4     7    1
    7     7     8    1
    8     7     9    1
    9     7    10    1
   10    10    11    1
   11    10    12    1
   12    10    13    1
   13    13    14    1
   14    13    15    1
   15    13    16    1
   16    16    17    1
   17    16    18    1
   18    16    19    1
   19    19    20    1
   20    19    21    1
   21    19    22    1
   22    22    23    1
   23    22    24    1
   24    22    25    1
@<TRIPOS>SUBSTRUCTURE
       1 MOL1            1 RESIDUE      1      MOL     
@<SCITEGIC>MOL_PROPERTY
VConf Rank
SciTegic.value.IntegerValue
6

@<SCITEGIC>MOL_PROPERTY
Conf_Id
SciTegic.value.IntegerValue
75

@<SCITEGIC>MOL_PROPERTY
Delta U+W
SciTegic.value.DoubleValue
1.014

@<SCITEGIC>MOL_PROPERTY
U+W
SciTegic.value.DoubleValue
-50.615

@<SCITEGIC>MOL_PROPERTY
Grad RMS
SciTegic.value.DoubleValue
0.000000

@<SCITEGIC>MOL_PROPERTY
U
SciTegic.value.DoubleValue
8.474

@<SCITEGIC>MOL_PROPERTY
W
SciTegic.value.DoubleValue
-59.089

@<SCITEGIC>MOL_PROPERTY
W(PB)
SciTegic.value.DoubleValue
-61.530

@<SCITEGIC>MOL_PROPERTY
W(SA)
SciTegic.value.DoubleValue
2.441

@<SCITEGIC>MOL_PROPERTY
Valence
SciTegic.value.DoubleValue
9.080

@<SCITEGIC>MOL_PROPERTY
Coulomb
SciTegic.value.DoubleValue
-1.772

@<SCITEGIC>MOL_PROPERTY
VdW
SciTegic.value.DoubleValue
1.165

@<SCITEGIC>MOL_PROPERTY
VdW6
SciTegic.value.DoubleValue
-9.830

@<SCITEGIC>MOL_PROPERTY
VdW12
SciTegic.value.DoubleValue
10.996

@<SCITEGIC>MOL_PROPERTY
Bond
SciTegic.value.DoubleValue
0.240

@<SCITEGIC>MOL_PROPERTY
Angle
SciTegic.value.DoubleValue
3.225

@<SCITEGIC>MOL_PROPERTY
Pdih
SciTegic.value.DoubleValue
5.615

@<SCITEGIC>MOL_PROPERTY
Idih
SciTegic.value.DoubleValue
0.001

@<SCITEGIC>MOL_PROPERTY
Tether
SciTegic.value.DoubleValue
0.000

@<TRIPOS>MOLECULE
guest-8_confgen4.mol2 : confsearch ligand conformer 7
          25          24           1
SMALL
USER_CHARGES
 
@<TRIPOS>ATOM
       1    C1      20.443431   19.252512   27.502516 C.2        1 MOL1         0.6168
       2    O1      21.500750   19.780042   27.786137 O.co2      1 MOL1        -0.6703
       3    O2      19.478604   19.238093   28.241143 O.co2      1 MOL1        -0.6703
       4    C2      20.313216   18.590485   26.135459 C.3        1 MOL1        -0.1963
       5    H1      19.629147   17.738962   26.233030 H          1 MOL1         0.0750
       6    H2      21.294575   18.187939   25.857078 H          1 MOL1         0.0750
       7    C3      19.804578   19.562415   25.042426 C.3        1 MOL1        -0.1860
       8    H3      18.827625   19.966561   25.341966 H          1 MOL1         0.0752
       9    H4      20.493212   20.415393   24.966609 H          1 MOL1         0.0752
      10    C4      19.682874   18.869202   23.668091 C.3        1 MOL1        -0.1858
      11    H5      18.994123   18.017190   23.748780 H          1 MOL1         0.0752
      12    H6      20.658401   18.458826   23.381469 H          1 MOL1         0.0752
      13    C5      19.168825   19.842461   22.581235 C.3        1 MOL1        -0.1858
      14    H7      18.178885   20.206307   22.888727 H          1 MOL1         0.0752
      15    H8      19.816150   20.728168   22.523679 H          1 MOL1         0.0752
      16    C6      19.038648   19.187896   21.182299 C.3        1 MOL1        -0.1858
      17    H9      18.155904   19.614543   20.686713 H          1 MOL1         0.0752
      18    H10     18.834342   18.113100   21.281844 H          1 MOL1         0.0752
      19    C7      20.252249   19.414256   20.246972 C.3        1 MOL1        -0.1834
      20    H11     20.020083   18.981696   19.264037 H          1 MOL1         0.0752
      21    H12     20.394434   20.491290   20.082596 H          1 MOL1         0.0752
      22    C8      21.569825   18.796637   20.759723 C.3        1 MOL1        -0.2849
      23    H13     21.440561   17.732574   20.996414 H          1 MOL1         0.0764
      24    H14     22.355462   18.881376   19.997918 H          1 MOL1         0.0764
      25    H15     21.925273   19.314124   21.659439 H          1 MOL1         0.0764
@<TRIPOS>BOND
    1     1     2    1
    2     1     3    2
    3     1     4    1
    4     4     5    1
    5     4     6    1
    6     4     7    1
    7     7     8    1
    8     7     9    1
    9     7    10    1
   10    10    11    1
   11    10    12    1
   12    10    13    1
   13    13    14    1
   14    13    15    1
   15    13    16    1
   16    16    17    1
   17    16    18    1
   18    16    19    1
   19    19    20    1
   20    19    21    1
   21    19    22    1
   22    22    23    1
   23    22    24    1
   24    22    25    1
@<TRIPOS>SUBSTRUCTURE
       1 MOL1            1 RESIDUE      1      MOL     
@<SCITEGIC>MOL_PROPERTY
VConf Rank
SciTegic.value.IntegerValue
7

@<SCITEGIC>MOL_PROPERTY
Conf_Id
SciTegic.value.IntegerValue
125

@<SCITEGIC>MOL_PROPERTY
Delta U+W
SciTegic.value.DoubleValue
2.314

@<SCITEGIC>MOL_PROPERTY
U+W
SciTegic.value.DoubleValue
-49.315

@<SCITEGIC>MOL_PROPERTY
Grad RMS
SciTegic.value.DoubleValue
0.000000

@<SCITEGIC>MOL_PROPERTY
U
SciTegic.value.DoubleValue
9.740

@<SCITEGIC>MOL_PROPERTY
W
SciTegic.value.DoubleValue
-59.054

@<SCITEGIC>MOL_PROPERTY
W(PB)
SciTegic.value.DoubleValue
-61.488

@<SCITEGIC>MOL_PROPERTY
W(SA)
SciTegic.value.DoubleValue
2.433

@<SCITEGIC>MOL_PROPERTY
Valence
SciTegic.value.DoubleValue
10.506

@<SCITEGIC>MOL_PROPERTY
Coulomb
SciTegic.value.DoubleValue
-1.761

@<SCITEGIC>MOL_PROPERTY
VdW
SciTegic.value.DoubleValue
0.994

@<SCITEGIC>MOL_PROPERTY
VdW6
SciTegic.value.DoubleValue
-9.209

@<SCITEGIC>MOL_PROPERTY
VdW12
SciTegic.value.DoubleValue
10.203

@<SCITEGIC>MOL_PROPERTY
Bond
SciTegic.value.DoubleValue
0.193

@<SCITEGIC>MOL_PROPERTY
Angle
SciTegic.value.DoubleValue
2.979

@<SCITEGIC>MOL_PROPERTY
Pdih
SciTegic.value.DoubleValue
7.334

@<SCITEGIC>MOL_PROPERTY
Idih
SciTegic.value.DoubleValue
0.001

@<SCITEGIC>MOL_PROPERTY
Tether
SciTegic.value.DoubleValue
0.000

@<TRIPOS>MOLECULE
guest-8_confgen4.mol2 : confsearch ligand conformer 8
          25          24           1
SMALL
USER_CHARGES
 
@<TRIPOS>ATOM
       1    C1      19.992140   19.802317   27.332579 C.2        1 MOL1         0.6168
       2    O1      20.833192   20.653839   27.542896 O.co2      1 MOL1        -0.6703
       3    O2      19.396474   19.212728   28.212527 O.co2      1 MOL1        -0.6703
       4    C2      19.684411   19.436102   25.885095 C.3        1 MOL1        -0.1963
       5    H1      19.802606   20.342146   25.280253 H          1 MOL1         0.0750
       6    H2      18.630310   19.139912   25.825955 H          1 MOL1         0.0750
       7    C3      20.591182   18.297911   25.348878 C.3        1 MOL1        -0.1860
       8    H3      21.640225   18.624130   25.369378 H          1 MOL1         0.0752
       9    H4      20.520097   17.439556   26.031242 H          1 MOL1         0.0752
      10    C4      20.217095   17.829231   23.922502 C.3        1 MOL1        -0.1858
      11    H5      19.170740   17.494731   23.907567 H          1 MOL1         0.0752
      12    H6      20.827858   16.950623   23.673648 H          1 MOL1         0.0752
      13    C5      20.432183   18.914521   22.842189 C.3        1 MOL1        -0.1858
      14    H7      19.775497   19.769240   23.044296 H          1 MOL1         0.0752
      15    H8      21.465945   19.282463   22.892369 H          1 MOL1         0.0752
      16    C6      20.146546   18.370054   21.423326 C.3        1 MOL1        -0.1858
      17    H9      19.099488   18.044443   21.355976 H          1 MOL1         0.0752
      18    H10     20.761901   17.476212   21.252360 H          1 MOL1         0.0752
      19    C7      20.443761   19.391659   20.300917 C.3        1 MOL1        -0.1834
      20    H11     21.491959   19.715478   20.361977 H          1 MOL1         0.0752
      21    H12     20.330031   18.890806   19.329610 H          1 MOL1         0.0752
      22    C8      19.516015   20.625638   20.335091 C.3        1 MOL1        -0.2849
      23    H13     19.679656   21.225288   21.239153 H          1 MOL1         0.0764
      24    H14     19.705985   21.272638   19.468951 H          1 MOL1         0.0764
      25    H15     18.460653   20.324746   20.307117 H          1 MOL1         0.0764
@<TRIPOS>BOND
    1     1     2    1
    2     1     3    2
    3     1     4    1
    4     4     5    1
    5     4     6    1
    6     4     7    1
    7     7     8    1
    8     7     9    1
    9     7    10    1
   10    10    11    1
   11    10    12    1
   12    10    13    1
   13    13    14    1
   14    13    15    1
   15    13    16    1
   16    16    17    1
   17    16    18    1
   18    16    19    1
   19    19    20    1
   20    19    21    1
   21    19    22    1
   22    22    23    1
   23    22    24    1
   24    22    25    1
@<TRIPOS>SUBSTRUCTURE
       1 MOL1            1 RESIDUE      1      MOL     
@<SCITEGIC>MOL_PROPERTY
VConf Rank
SciTegic.value.IntegerValue
8

@<SCITEGIC>MOL_PROPERTY
Conf_Id
SciTegic.value.IntegerValue
4

@<SCITEGIC>MOL_PROPERTY
Delta U+W
SciTegic.value.DoubleValue
0.189

@<SCITEGIC>MOL_PROPERTY
U+W
SciTegic.value.DoubleValue
-51.441

@<SCITEGIC>MOL_PROPERTY
Grad RMS
SciTegic.value.DoubleValue
0.000000

@<SCITEGIC>MOL_PROPERTY
U
SciTegic.value.DoubleValue
7.701

@<SCITEGIC>MOL_PROPERTY
W
SciTegic.value.DoubleValue
-59.141

@<SCITEGIC>MOL_PROPERTY
W(PB)
SciTegic.value.DoubleValue
-61.609

@<SCITEGIC>MOL_PROPERTY
W(SA)
SciTegic.value.DoubleValue
2.467

@<SCITEGIC>MOL_PROPERTY
Valence
SciTegic.value.DoubleValue
8.550

@<SCITEGIC>MOL_PROPERTY
Coulomb
SciTegic.value.DoubleValue
-1.988

@<SCITEGIC>MOL_PROPERTY
VdW
SciTegic.value.DoubleValue
1.139

@<SCITEGIC>MOL_PROPERTY
VdW6
SciTegic.value.DoubleValue
-8.988

@<SCITEGIC>MOL_PROPERTY
VdW12
SciTegic.value.DoubleValue
10.127

@<SCITEGIC>MOL_PROPERTY
Bond
SciTegic.value.DoubleValue
0.191

@<SCITEGIC>MOL_PROPERTY
Angle
SciTegic.value.DoubleValue
2.738

@<SCITEGIC>MOL_PROPERTY
Pdih
SciTegic.value.DoubleValue
5.621

@<SCITEGIC>MOL_PROPERTY
Idih
SciTegic.value.DoubleValue
0.001

@<SCITEGIC>MOL_PROPERTY
Tether
SciTegic.value.DoubleValue
0.000

@<TRIPOS>MOLECULE
guest-8_confgen4.mol2 : confsearch ligand conformer 9
          25          24           1
SMALL
USER_CHARGES
 
@<TRIPOS>ATOM
       1    C1      20.598994   19.173314   27.347143 C.2        1 MOL1         0.6168
       2    O1      21.474885   19.988692   27.558487 O.co2      1 MOL1        -0.6703
       3    O2      19.968633   18.619450   28.226131 O.co2      1 MOL1        -0.6703
       4    C2      20.255675   18.844299   25.898729 C.3        1 MOL1        -0.1963
       5    H1      19.923365   17.800192   25.856715 H          1 MOL1         0.0750
       6    H2      21.179161   18.916036   25.313281 H          1 MOL1         0.0750
       7    C3      19.163449   19.777624   25.314617 C.3        1 MOL1        -0.1860
       8    H3      18.287528   19.753206   25.977650 H          1 MOL1         0.0752
       9    H4      19.526520   20.814683   25.318756 H          1 MOL1         0.0752
      10    C4      18.714799   19.386370   23.886405 C.3        1 MOL1        -0.1858
      11    H5      17.864815   20.021829   23.602453 H          1 MOL1         0.0752
      12    H6      18.343194   18.352503   23.887612 H          1 MOL1         0.0752
      13    C5      19.831916   19.536798   22.827814 C.3        1 MOL1        -0.1858
      14    H7      20.235799   20.557681   22.863023 H          1 MOL1         0.0752
      15    H8      20.657372   18.855053   23.065451 H          1 MOL1         0.0752
      16    C6      19.310488   19.236999   21.403231 C.3        1 MOL1        -0.1858
      17    H9      18.443849   19.879737   21.196668 H          1 MOL1         0.0752
      18    H10     18.948625   18.200977   21.352237 H          1 MOL1         0.0752
      19    C7      20.368011   19.470460   20.299166 C.3        1 MOL1        -0.1834
      20    H11     19.885986   19.351713   19.318973 H          1 MOL1         0.0752
      21    H12     20.728396   20.507489   20.343902 H          1 MOL1         0.0752
      22    C8      21.566150   18.499993   20.384277 C.3        1 MOL1        -0.2849
      23    H13     21.227634   17.455773   20.373276 H          1 MOL1         0.0764
      24    H14     22.239582   18.645906   19.529823 H          1 MOL1         0.0764
      25    H15     22.150238   18.663405   21.298512 H          1 MOL1         0.0764
@<TRIPOS>BOND
    1     1     2    1
    2     1     3    2
    3     1     4    1
    4     4     5    1
    5     4     6    1
    6     4     7    1
    7     7     8    1
    8     7     9    1
    9     7    10    1
   10    10    11    1
   11    10    12    1
   12    10    13    1
   13    13    14    1
   14    13    15    1
   15    13    16    1
   16    16    17    1
   17    16    18    1
   18    16    19    1
   19    19    20    1
   20    19    21    1
   21    19    22    1
   22    22    23    1
   23    22    24    1
   24    22    25    1
@<TRIPOS>SUBSTRUCTURE
       1 MOL1            1 RESIDUE      1      MOL     
@<SCITEGIC>MOL_PROPERTY
VConf Rank
SciTegic.value.IntegerValue
9

@<SCITEGIC>MOL_PROPERTY
Conf_Id
SciTegic.value.IntegerValue
17

@<SCITEGIC>MOL_PROPERTY
Delta U+W
SciTegic.value.DoubleValue
0.219

@<SCITEGIC>MOL_PROPERTY
U+W
SciTegic.value.DoubleValue
-51.411

@<SCITEGIC>MOL_PROPERTY
Grad RMS
SciTegic.value.DoubleValue
0.000000

@<SCITEGIC>MOL_PROPERTY
U
SciTegic.value.DoubleValue
7.701

@<SCITEGIC>MOL_PROPERTY
W
SciTegic.value.DoubleValue
-59.111

@<SCITEGIC>MOL_PROPERTY
W(PB)
SciTegic.value.DoubleValue
-61.599

@<SCITEGIC>MOL_PROPERTY
W(SA)
SciTegic.value.DoubleValue
2.488

@<SCITEGIC>MOL_PROPERTY
Valence
SciTegic.value.DoubleValue
8.550

@<SCITEGIC>MOL_PROPERTY
Coulomb
SciTegic.value.DoubleValue
-1.988

@<SCITEGIC>MOL_PROPERTY
VdW
SciTegic.value.DoubleValue
1.139

@<SCITEGIC>MOL_PROPERTY
VdW6
SciTegic.value.DoubleValue
-8.988

@<SCITEGIC>MOL_PROPERTY
VdW12
SciTegic.value.DoubleValue
10.127

@<SCITEGIC>MOL_PROPERTY
Bond
SciTegic.value.DoubleValue
0.191

@<SCITEGIC>MOL_PROPERTY
Angle
SciTegic.value.DoubleValue
2.738

@<SCITEGIC>MOL_PROPERTY
Pdih
SciTegic.value.DoubleValue
5.621

@<SCITEGIC>MOL_PROPERTY
Idih
SciTegic.value.DoubleValue
0.001

@<SCITEGIC>MOL_PROPERTY
Tether
SciTegic.value.DoubleValue
0.000

@<TRIPOS>MOLECULE
guest-8_confgen4.mol2 : confsearch ligand conformer 10
          25          24           1
SMALL
USER_CHARGES
 
@<TRIPOS>ATOM
       1    C1      20.304536   18.978136   27.157159 C.2        1 MOL1         0.6168
       2    O1      21.234215   19.645446   27.566372 O.co2      1 MOL1        -0.6703
       3    O2      20.264820   17.765432   27.226777 O.co2      1 MOL1        -0.6703
       4    C2      19.111708   19.702005   26.539012 C.3        1 MOL1        -0.1963
       5    H1      19.128797   20.748306   26.867244 H          1 MOL1         0.0750
       6    H2      18.202791   19.253267   26.956729 H          1 MOL1         0.0750
       7    C3      19.062932   19.625819   24.990879 C.3        1 MOL1        -0.1860
       8    H3      19.066062   18.570755   24.686746 H          1 MOL1         0.0752
       9    H4      18.113746   20.054501   24.642248 H          1 MOL1         0.0752
      10    C4      20.239108   20.378490   24.323910 C.3        1 MOL1        -0.1858
      11    H5      21.191558   19.911879   24.611024 H          1 MOL1         0.0752
      12    H6      20.269904   21.406476   24.710100 H          1 MOL1         0.0752
      13    C5      20.138034   20.436041   22.781122 C.3        1 MOL1        -0.1858
      14    H7      19.190320   20.910273   22.491652 H          1 MOL1         0.0752
      15    H8      20.938876   21.086872   22.404387 H          1 MOL1         0.0752
      16    C6      20.256367   19.050888   22.104084 C.3        1 MOL1        -0.1858
      17    H9      19.419387   18.410690   22.411557 H          1 MOL1         0.0752
      18    H10     21.178526   18.556397   22.438740 H          1 MOL1         0.0752
      19    C7      20.263488   19.167030   20.565186 C.3        1 MOL1        -0.1834
      20    H11     19.343005   19.663004   20.227282 H          1 MOL1         0.0752
      21    H12     21.103070   19.799378   20.244777 H          1 MOL1         0.0752
      22    C8      20.377792   17.784713   19.891498 C.3        1 MOL1        -0.2849
      23    H13     19.532576   17.141343   20.169111 H          1 MOL1         0.0764
      24    H14     20.381806   17.886108   18.798448 H          1 MOL1         0.0764
      25    H15     21.305777   17.278684   20.188416 H          1 MOL1         0.0764
@<TRIPOS>BOND
    1     1     2    1
    2     1     3    2
    3     1     4    1
    4     4     5    1
    5     4     6    1
    6     4     7    1
    7     7     8    1
    8     7     9    1
    9     7    10    1
   10    10    11    1
   11    10    12    1
   12    10    13    1
   13    13    14    1
   14    13    15    1
   15    13    16    1
   16    16    17    1
   17    16    18    1
   18    16    19    1
   19    19    20    1
   20    19    21    1
   21    19    22    1
   22    22    23    1
   23    22    24    1
   24    22    25    1
@<TRIPOS>SUBSTRUCTURE
       1 MOL1            1 RESIDUE      1      MOL     
@<SCITEGIC>MOL_PROPERTY
VConf Rank
SciTegic.value.IntegerValue
10

@<SCITEGIC>MOL_PROPERTY
Conf_Id
SciTegic.value.IntegerValue
142

@<SCITEGIC>MOL_PROPERTY
Delta U+W
SciTegic.value.DoubleValue
0.593

@<SCITEGIC>MOL_PROPERTY
U+W
SciTegic.value.DoubleValue
-51.037

@<SCITEGIC>MOL_PROPERTY
Grad RMS
SciTegic.value.DoubleValue
0.000000

@<SCITEGIC>MOL_PROPERTY
U
SciTegic.value.DoubleValue
8.903

@<SCITEGIC>MOL_PROPERTY
W
SciTegic.value.DoubleValue
-59.940

@<SCITEGIC>MOL_PROPERTY
W(PB)
SciTegic.value.DoubleValue
-62.418

@<SCITEGIC>MOL_PROPERTY
W(SA)
SciTegic.value.DoubleValue
2.478

@<SCITEGIC>MOL_PROPERTY
Valence
SciTegic.value.DoubleValue
8.305

@<SCITEGIC>MOL_PROPERTY
Coulomb
SciTegic.value.DoubleValue
-0.223

@<SCITEGIC>MOL_PROPERTY
VdW
SciTegic.value.DoubleValue
0.821

@<SCITEGIC>MOL_PROPERTY
VdW6
SciTegic.value.DoubleValue
-9.236

@<SCITEGIC>MOL_PROPERTY
VdW12
SciTegic.value.DoubleValue
10.057

@<SCITEGIC>MOL_PROPERTY
Bond
SciTegic.value.DoubleValue
0.173

@<SCITEGIC>MOL_PROPERTY
Angle
SciTegic.value.DoubleValue
2.663

@<SCITEGIC>MOL_PROPERTY
Pdih
SciTegic.value.DoubleValue
5.469

@<SCITEGIC>MOL_PROPERTY
Idih
SciTegic.value.DoubleValue
0.001

@<SCITEGIC>MOL_PROPERTY
Tether
SciTegic.value.DoubleValue
0.000

@<TRIPOS>MOLECULE
guest-8_confgen4.mol2 : confsearch ligand conformer 11
          25          24           1
SMALL
USER_CHARGES
 
@<TRIPOS>ATOM
       1    C1      19.796360   19.114663   26.907144 C.2        1 MOL1         0.6168
       2    O1      20.433105   19.326880   27.920592 O.co2      1 MOL1        -0.6703
       3    O2      18.649941   19.483734   26.744150 O.co2      1 MOL1        -0.6703
       4    C2      20.466189   18.317337   25.791555 C.3        1 MOL1        -0.1963
       5    H1      19.695154   17.978096   25.090328 H          1 MOL1         0.0750
       6    H2      20.891698   17.414954   26.245609 H          1 MOL1         0.0750
       7    C3      21.584138   19.092100   25.041847 C.3        1 MOL1        -0.1860
       8    H3      22.371786   19.356564   25.760768 H          1 MOL1         0.0752
       9    H4      22.057500   18.425388   24.309541 H          1 MOL1         0.0752
      10    C4      21.103594   20.386168   24.335371 C.3        1 MOL1        -0.1858
      11    H5      21.964130   20.859828   23.843719 H          1 MOL1         0.0752
      12    H6      20.759336   21.101399   25.094987 H          1 MOL1         0.0752
      13    C5      19.974816   20.190792   23.292291 C.3        1 MOL1        -0.1858
      14    H7      19.067281   19.822022   23.788823 H          1 MOL1         0.0752
      15    H8      19.714501   21.174019   22.877521 H          1 MOL1         0.0752
      16    C6      20.361128   19.242799   22.133525 C.3        1 MOL1        -0.1858
      17    H9      20.554131   18.235223   22.524224 H          1 MOL1         0.0752
      18    H10     21.293317   19.591812   21.668885 H          1 MOL1         0.0752
      19    C7      19.249777   19.164987   21.065686 C.3        1 MOL1        -0.1834
      20    H11     18.315565   18.818533   21.529036 H          1 MOL1         0.0752
      21    H12     19.053088   20.167575   20.661331 H          1 MOL1         0.0752
      22    C8      19.633952   18.214539   19.913840 C.3        1 MOL1        -0.2849
      23    H13     19.805233   17.195875   20.285798 H          1 MOL1         0.0764
      24    H14     18.833112   18.171487   19.164282 H          1 MOL1         0.0764
      25    H15     20.549512   18.554989   19.412643 H          1 MOL1         0.0764
@<TRIPOS>BOND
    1     1     2    1
    2     1     3    2
    3     1     4    1
    4     4     5    1
    5     4     6    1
    6     4     7    1
    7     7     8    1
    8     7     9    1
    9     7    10    1
   10    10    11    1
   11    10    12    1
   12    10    13    1
   13    13    14    1
   14    13    15    1
   15    13    16    1
   16    16    17    1
   17    16    18    1
   18    16    19    1
   19    19    20    1
   20    19    21    1
   21    19    22    1
   22    22    23    1
   23    22    24    1
   24    22    25    1
@<TRIPOS>SUBSTRUCTURE
       1 MOL1            1 RESIDUE      1      MOL     
@<SCITEGIC>MOL_PROPERTY
VConf Rank
SciTegic.value.IntegerValue
11

@<SCITEGIC>MOL_PROPERTY
Conf_Id
SciTegic.value.IntegerValue
135

@<SCITEGIC>MOL_PROPERTY
Delta U+W
SciTegic.value.DoubleValue
1.314

@<SCITEGIC>MOL_PROPERTY
U+W
SciTegic.value.DoubleValue
-50.316

@<SCITEGIC>MOL_PROPERTY
Grad RMS
SciTegic.value.DoubleValue
0.000000

@<SCITEGIC>MOL_PROPERTY
U
SciTegic.value.DoubleValue
9.773

@<SCITEGIC>MOL_PROPERTY
W
SciTegic.value.DoubleValue
-60.088

@<SCITEGIC>MOL_PROPERTY
W(PB)
SciTegic.value.DoubleValue
-62.535

@<SCITEGIC>MOL_PROPERTY
W(SA)
SciTegic.value.DoubleValue
2.447

@<SCITEGIC>MOL_PROPERTY
Valence
SciTegic.value.DoubleValue
8.741

@<SCITEGIC>MOL_PROPERTY
Coulomb
SciTegic.value.DoubleValue
0.479

@<SCITEGIC>MOL_PROPERTY
VdW
SciTegic.value.DoubleValue
0.552

@<SCITEGIC>MOL_PROPERTY
VdW6
SciTegic.value.DoubleValue
-10.627

@<SCITEGIC>MOL_PROPERTY
VdW12
SciTegic.value.DoubleValue
11.179

@<SCITEGIC>MOL_PROPERTY
Bond
SciTegic.value.DoubleValue
0.227

@<SCITEGIC>MOL_PROPERTY
Angle
SciTegic.value.DoubleValue
3.155

@<SCITEGIC>MOL_PROPERTY
Pdih
SciTegic.value.DoubleValue
5.358

@<SCITEGIC>MOL_PROPERTY
Idih
SciTegic.value.DoubleValue
0.001

@<SCITEGIC>MOL_PROPERTY
Tether
SciTegic.value.DoubleValue
0.000

@<TRIPOS>MOLECULE
guest-8_confgen4.mol2 : confsearch ligand conformer 12
          25          24           1
SMALL
USER_CHARGES
 
@<TRIPOS>ATOM
       1    C1      20.138535   19.258456   27.471261 C.2        1 MOL1         0.6168
       2    O1      20.978334   20.002835   27.937499 O.co2      1 MOL1        -0.6703
       3    O2      19.172975   18.860051   28.092340 O.co2      1 MOL1        -0.6703
       4    C2      20.292549   18.818117   26.019861 C.3        1 MOL1        -0.1963
       5    H1      19.866766   17.812292   25.923043 H          1 MOL1         0.0750
       6    H2      21.364652   18.739463   25.808721 H          1 MOL1         0.0750
       7    C3      19.605491   19.788152   25.023462 C.3        1 MOL1        -0.1860
       8    H3      18.557058   19.916299   25.326467 H          1 MOL1         0.0752
       9    H4      20.071734   20.780554   25.094443 H          1 MOL1         0.0752
      10    C4      19.638087   19.297630   23.556063 C.3        1 MOL1        -0.1858
      11    H5      18.999251   19.965018   22.964058 H          1 MOL1         0.0752
      12    H6      19.194319   18.294894   23.491497 H          1 MOL1         0.0752
      13    C5      21.058210   19.284466   22.941621 C.3        1 MOL1        -0.1858
      14    H7      21.471004   20.302294   22.956493 H          1 MOL1         0.0752
      15    H8      21.722406   18.673251   23.565106 H          1 MOL1         0.0752
      16    C6      21.120064   18.725532   21.497586 C.3        1 MOL1        -0.1858
      17    H9      20.797205   17.675508   21.486683 H          1 MOL1         0.0752
      18    H10     22.175425   18.715552   21.192649 H          1 MOL1         0.0752
      19    C7      20.323855   19.542816   20.449588 C.3        1 MOL1        -0.1834
      20    H11     20.238690   20.591022   20.767778 H          1 MOL1         0.0752
      21    H12     20.890798   19.554979   19.508456 H          1 MOL1         0.0752
      22    C8      18.924899   18.955945   20.156719 C.3        1 MOL1        -0.2849
      23    H13     18.299710   18.922576   21.056243 H          1 MOL1         0.0764
      24    H14     18.402401   19.564270   19.407223 H          1 MOL1         0.0764
      25    H15     19.005295   17.934404   19.762927 H          1 MOL1         0.0764
@<TRIPOS>BOND
    1     1     2    1
    2     1     3    2
    3     1     4    1
    4     4     5    1
    5     4     6    1
    6     4     7    1
    7     7     8    1
    8     7     9    1
    9     7    10    1
   10    10    11    1
   11    10    12    1
   12    10    13    1
   13    13    14    1
   14    13    15    1
   15    13    16    1
   16    16    17    1
   17    16    18    1
   18    16    19    1
   19    19    20    1
   20    19    21    1
   21    19    22    1
   22    22    23    1
   23    22    24    1
   24    22    25    1
@<TRIPOS>SUBSTRUCTURE
       1 MOL1            1 RESIDUE      1      MOL     
@<SCITEGIC>MOL_PROPERTY
VConf Rank
SciTegic.value.IntegerValue
12

@<SCITEGIC>MOL_PROPERTY
Conf_Id
SciTegic.value.IntegerValue
19

@<SCITEGIC>MOL_PROPERTY
Delta U+W
SciTegic.value.DoubleValue
3.222

@<SCITEGIC>MOL_PROPERTY
U+W
SciTegic.value.DoubleValue
-48.407

@<SCITEGIC>MOL_PROPERTY
Grad RMS
SciTegic.value.DoubleValue
0.000000

@<SCITEGIC>MOL_PROPERTY
U
SciTegic.value.DoubleValue
10.617

@<SCITEGIC>MOL_PROPERTY
W
SciTegic.value.DoubleValue
-59.025

@<SCITEGIC>MOL_PROPERTY
W(PB)
SciTegic.value.DoubleValue
-61.462

@<SCITEGIC>MOL_PROPERTY
W(SA)
SciTegic.value.DoubleValue
2.437

@<SCITEGIC>MOL_PROPERTY
Valence
SciTegic.value.DoubleValue
11.188

@<SCITEGIC>MOL_PROPERTY
Coulomb
SciTegic.value.DoubleValue
-1.778

@<SCITEGIC>MOL_PROPERTY
VdW
SciTegic.value.DoubleValue
1.208

@<SCITEGIC>MOL_PROPERTY
VdW6
SciTegic.value.DoubleValue
-9.786

@<SCITEGIC>MOL_PROPERTY
VdW12
SciTegic.value.DoubleValue
10.993

@<SCITEGIC>MOL_PROPERTY
Bond
SciTegic.value.DoubleValue
0.241

@<SCITEGIC>MOL_PROPERTY
Angle
SciTegic.value.DoubleValue
3.294

@<SCITEGIC>MOL_PROPERTY
Pdih
SciTegic.value.DoubleValue
7.653

@<SCITEGIC>MOL_PROPERTY
Idih
SciTegic.value.DoubleValue
0.001

@<SCITEGIC>MOL_PROPERTY
Tether
SciTegic.value.DoubleValue
0.000

@<TRIPOS>MOLECULE
guest-8_confgen4.mol2 : confsearch ligand conformer 13
          25          24           1
SMALL
USER_CHARGES
 
@<TRIPOS>ATOM
       1    C1      20.057670   19.342173   27.469339 C.2        1 MOL1         0.6168
       2    O1      20.820752   20.166041   27.933762 O.co2      1 MOL1        -0.6703
       3    O2      19.610884   18.406236   28.102721 O.co2      1 MOL1        -0.6703
       4    C2      19.656930   19.476809   26.004599 C.3        1 MOL1        -0.1963
       5    H1      19.621647   20.545654   25.766906 H          1 MOL1         0.0750
       6    H2      18.639016   19.084562   25.893509 H          1 MOL1         0.0750
       7    C3      20.624576   18.732304   25.047936 C.3        1 MOL1        -0.1860
       8    H3      21.631119   19.164859   25.131901 H          1 MOL1         0.0752
       9    H4      20.708069   17.687575   25.378113 H          1 MOL1         0.0752
      10    C4      20.169631   18.746957   23.568833 C.3        1 MOL1        -0.1858
      11    H5      19.153417   18.337375   23.490530 H          1 MOL1         0.0752
      12    H6      20.827245   18.070979   23.007952 H          1 MOL1         0.0752
      13    C5      20.221522   20.151510   22.921529 C.3        1 MOL1        -0.1858
      14    H7      19.620169   20.851586   23.514610 H          1 MOL1         0.0752
      15    H8      21.252847   20.528446   22.951271 H          1 MOL1         0.0752
      16    C6      19.698769   20.198325   21.463444 C.3        1 MOL1        -0.1858
      17    H9      19.733682   21.245744   21.133950 H          1 MOL1         0.0752
      18    H10     18.638384   19.912542   21.434840 H          1 MOL1         0.0752
      19    C7      20.511029   19.348802   20.454115 C.3        1 MOL1        -0.1834
      20    H11     20.565374   19.892198   19.500664 H          1 MOL1         0.0752
      21    H12     21.547839   19.234293   20.799293 H          1 MOL1         0.0752
      22    C8      19.881237   17.964845   20.179722 C.3        1 MOL1        -0.2849
      23    H13     18.872680   18.071840   19.759666 H          1 MOL1         0.0764
      24    H14     20.487655   17.403272   19.457435 H          1 MOL1         0.0764
      25    H15     19.804504   17.363049   21.092450 H          1 MOL1         0.0764
@<TRIPOS>BOND
    1     1     2    1
    2     1     3    2
    3     1     4    1
    4     4     5    1
    5     4     6    1
    6     4     7    1
    7     7     8    1
    8     7     9    1
    9     7    10    1
   10    10    11    1
   11    10    12    1
   12    10    13    1
   13    13    14    1
   14    13    15    1
   15    13    16    1
   16    16    17    1
   17    16    18    1
   18    16    19    1
   19    19    20    1
   20    19    21    1
   21    19    22    1
   22    22    23    1
   23    22    24    1
   24    22    25    1
@<TRIPOS>SUBSTRUCTURE
       1 MOL1            1 RESIDUE      1      MOL     
@<SCITEGIC>MOL_PROPERTY
VConf Rank
SciTegic.value.IntegerValue
13

@<SCITEGIC>MOL_PROPERTY
Conf_Id
SciTegic.value.IntegerValue
20

@<SCITEGIC>MOL_PROPERTY
Delta U+W
SciTegic.value.DoubleValue
3.224

@<SCITEGIC>MOL_PROPERTY
U+W
SciTegic.value.DoubleValue
-48.406

@<SCITEGIC>MOL_PROPERTY
Grad RMS
SciTegic.value.DoubleValue
0.000000

@<SCITEGIC>MOL_PROPERTY
U
SciTegic.value.DoubleValue
10.617

@<SCITEGIC>MOL_PROPERTY
W
SciTegic.value.DoubleValue
-59.023

@<SCITEGIC>MOL_PROPERTY
W(PB)
SciTegic.value.DoubleValue
-61.467

@<SCITEGIC>MOL_PROPERTY
W(SA)
SciTegic.value.DoubleValue
2.444

@<SCITEGIC>MOL_PROPERTY
Valence
SciTegic.value.DoubleValue
11.188

@<SCITEGIC>MOL_PROPERTY
Coulomb
SciTegic.value.DoubleValue
-1.778

@<SCITEGIC>MOL_PROPERTY
VdW
SciTegic.value.DoubleValue
1.208

@<SCITEGIC>MOL_PROPERTY
VdW6
SciTegic.value.DoubleValue
-9.786

@<SCITEGIC>MOL_PROPERTY
VdW12
SciTegic.value.DoubleValue
10.993

@<SCITEGIC>MOL_PROPERTY
Bond
SciTegic.value.DoubleValue
0.241

@<SCITEGIC>MOL_PROPERTY
Angle
SciTegic.value.DoubleValue
3.294

@<SCITEGIC>MOL_PROPERTY
Pdih
SciTegic.value.DoubleValue
7.653

@<SCITEGIC>MOL_PROPERTY
Idih
SciTegic.value.DoubleValue
0.001

@<SCITEGIC>MOL_PROPERTY
Tether
SciTegic.value.DoubleValue
0.000

@<TRIPOS>MOLECULE
guest-8_confgen4.mol2 : confsearch ligand conformer 14
          25          24           1
SMALL
USER_CHARGES
 
@<TRIPOS>ATOM
       1    C1      20.681019   19.112074   26.665369 C.2        1 MOL1         0.6168
       2    O1      21.281128   20.139758   26.913123 O.co2      1 MOL1        -0.6703
       3    O2      21.228424   18.040618   26.493477 O.co2      1 MOL1        -0.6703
       4    C2      19.154384   19.153744   26.633139 C.3        1 MOL1        -0.1963
       5    H1      18.832434   19.430159   27.643787 H          1 MOL1         0.0750
       6    H2      18.773951   18.141857   26.448357 H          1 MOL1         0.0750
       7    C3      18.539419   20.154709   25.614808 C.3        1 MOL1        -0.1860
       8    H3      17.507817   20.365597   25.927462 H          1 MOL1         0.0752
       9    H4      19.072175   21.114539   25.664724 H          1 MOL1         0.0752
      10    C4      18.494492   19.647852   24.151879 C.3        1 MOL1        -0.1858
      11    H5      17.909330   20.364604   23.559566 H          1 MOL1         0.0752
      12    H6      17.950683   18.694367   24.107469 H          1 MOL1         0.0752
      13    C5      19.885605   19.483093   23.498971 C.3        1 MOL1        -0.1858
      14    H7      20.468772   20.404091   23.635809 H          1 MOL1         0.0752
      15    H8      20.437667   18.675918   23.996667 H          1 MOL1         0.0752
      16    C6      19.775132   19.159289   21.993144 C.3        1 MOL1        -0.1858
      17    H9      19.230949   19.965455   21.482333 H          1 MOL1         0.0752
      18    H10     19.187636   18.240795   21.858053 H          1 MOL1         0.0752
      19    C7      21.163419   18.983312   21.342707 C.3        1 MOL1        -0.1834
      20    H11     21.753385   19.900798   21.475434 H          1 MOL1         0.0752
      21    H12     21.710231   18.176371   21.850100 H          1 MOL1         0.0752
      22    C8      21.049978   18.659552   19.839384 C.3        1 MOL1        -0.2849
      23    H13     20.534260   19.465996   19.301747 H          1 MOL1         0.0764
      24    H14     22.045744   18.537774   19.393645 H          1 MOL1         0.0764
      25    H15     20.490776   17.728403   19.679295 H          1 MOL1         0.0764
@<TRIPOS>BOND
    1     1     2    1
    2     1     3    2
    3     1     4    1
    4     4     5    1
    5     4     6    1
    6     4     7    1
    7     7     8    1
    8     7     9    1
    9     7    10    1
   10    10    11    1
   11    10    12    1
   12    10    13    1
   13    13    14    1
   14    13    15    1
   15    13    16    1
   16    16    17    1
   17    16    18    1
   18    16    19    1
   19    19    20    1
   20    19    21    1
   21    19    22    1
   22    22    23    1
   23    22    24    1
   24    22    25    1
@<TRIPOS>SUBSTRUCTURE
       1 MOL1            1 RESIDUE      1      MOL     
@<SCITEGIC>MOL_PROPERTY
VConf Rank
SciTegic.value.IntegerValue
14

@<SCITEGIC>MOL_PROPERTY
Conf_Id
SciTegic.value.IntegerValue
24

@<SCITEGIC>MOL_PROPERTY
Delta U+W
SciTegic.value.DoubleValue
1.784

@<SCITEGIC>MOL_PROPERTY
U+W
SciTegic.value.DoubleValue
-49.846

@<SCITEGIC>MOL_PROPERTY
Grad RMS
SciTegic.value.DoubleValue
0.000000

@<SCITEGIC>MOL_PROPERTY
U
SciTegic.value.DoubleValue
10.904

@<SCITEGIC>MOL_PROPERTY
W
SciTegic.value.DoubleValue
-60.749

@<SCITEGIC>MOL_PROPERTY
W(PB)
SciTegic.value.DoubleValue
-63.220

@<SCITEGIC>MOL_PROPERTY
W(SA)
SciTegic.value.DoubleValue
2.471

@<SCITEGIC>MOL_PROPERTY
Valence
SciTegic.value.DoubleValue
9.445

@<SCITEGIC>MOL_PROPERTY
Coulomb
SciTegic.value.DoubleValue
0.780

@<SCITEGIC>MOL_PROPERTY
VdW
SciTegic.value.DoubleValue
0.679

@<SCITEGIC>MOL_PROPERTY
VdW6
SciTegic.value.DoubleValue
-10.008

@<SCITEGIC>MOL_PROPERTY
VdW12
SciTegic.value.DoubleValue
10.687

@<SCITEGIC>MOL_PROPERTY
Bond
SciTegic.value.DoubleValue
0.201

@<SCITEGIC>MOL_PROPERTY
Angle
SciTegic.value.DoubleValue
3.198

@<SCITEGIC>MOL_PROPERTY
Pdih
SciTegic.value.DoubleValue
6.039

@<SCITEGIC>MOL_PROPERTY
Idih
SciTegic.value.DoubleValue
0.006

@<SCITEGIC>MOL_PROPERTY
Tether
SciTegic.value.DoubleValue
0.000

@<TRIPOS>MOLECULE
guest-8_confgen4.mol2 : confsearch ligand conformer 15
          25          24           1
SMALL
USER_CHARGES
 
@<TRIPOS>ATOM
       1    C1      19.949577   19.869948   26.647761 C.2        1 MOL1         0.6168
       2    O1      20.991954   20.439205   26.906683 O.co2      1 MOL1        -0.6703
       3    O2      18.902671   20.450505   26.437621 O.co2      1 MOL1        -0.6703
       4    C2      19.937317   18.342458   26.651739 C.3        1 MOL1        -0.1963
       5    H1      18.917059   17.993604   26.451335 H          1 MOL1         0.0750
       6    H2      20.178349   18.035202   27.675928 H          1 MOL1         0.0750
       7    C3      20.939158   17.668491   25.672359 C.3        1 MOL1        -0.1860
       8    H3      21.915939   18.168300   25.733053 H          1 MOL1         0.0752
       9    H4      21.105819   16.637926   26.013810 H          1 MOL1         0.0752
      10    C4      20.465215   17.606281   24.199065 C.3        1 MOL1        -0.1858
      11    H5      19.494409   17.095042   24.144250 H          1 MOL1         0.0752
      12    H6      21.174441   16.982573   23.637844 H          1 MOL1         0.0752
      13    C5      20.364901   18.986286   23.510479 C.3        1 MOL1        -0.1858
      14    H7      19.566293   19.577746   23.975675 H          1 MOL1         0.0752
      15    H8      21.302443   19.540243   23.656054 H          1 MOL1         0.0752
      16    C6      20.072641   18.851189   22.000213 C.3        1 MOL1        -0.1858
      17    H9      19.137430   18.292827   21.856540 H          1 MOL1         0.0752
      18    H10     20.870844   18.267350   21.521706 H          1 MOL1         0.0752
      19    C7      19.960899   20.228817   21.313900 C.3        1 MOL1        -0.1834
      20    H11     19.162024   20.815185   21.788850 H          1 MOL1         0.0752
      21    H12     20.895207   20.789668   21.455220 H          1 MOL1         0.0752
      22    C8      19.668667   20.090820   19.806178 C.3        1 MOL1        -0.2849
      23    H13     18.722446   19.560502   19.636467 H          1 MOL1         0.0764
      24    H14     19.592440   21.079291   19.334819 H          1 MOL1         0.0764
      25    H15     20.468864   19.534842   19.300268 H          1 MOL1         0.0764
@<TRIPOS>BOND
    1     1     2    1
    2     1     3    2
    3     1     4    1
    4     4     5    1
    5     4     6    1
    6     4     7    1
    7     7     8    1
    8     7     9    1
    9     7    10    1
   10    10    11    1
   11    10    12    1
   12    10    13    1
   13    13    14    1
   14    13    15    1
   15    13    16    1
   16    16    17    1
   17    16    18    1
   18    16    19    1
   19    19    20    1
   20    19    21    1
   21    19    22    1
   22    22    23    1
   23    22    24    1
   24    22    25    1
@<TRIPOS>SUBSTRUCTURE
       1 MOL1            1 RESIDUE      1      MOL     
@<SCITEGIC>MOL_PROPERTY
VConf Rank
SciTegic.value.IntegerValue
15

@<SCITEGIC>MOL_PROPERTY
Conf_Id
SciTegic.value.IntegerValue
9

@<SCITEGIC>MOL_PROPERTY
Delta U+W
SciTegic.value.DoubleValue
1.764

@<SCITEGIC>MOL_PROPERTY
U+W
SciTegic.value.DoubleValue
-49.865

@<SCITEGIC>MOL_PROPERTY
Grad RMS
SciTegic.value.DoubleValue
0.000000

@<SCITEGIC>MOL_PROPERTY
U
SciTegic.value.DoubleValue
10.902

@<SCITEGIC>MOL_PROPERTY
W
SciTegic.value.DoubleValue
-60.768

@<SCITEGIC>MOL_PROPERTY
W(PB)
SciTegic.value.DoubleValue
-63.223

@<SCITEGIC>MOL_PROPERTY
W(SA)
SciTegic.value.DoubleValue
2.456

@<SCITEGIC>MOL_PROPERTY
Valence
SciTegic.value.DoubleValue
9.445

@<SCITEGIC>MOL_PROPERTY
Coulomb
SciTegic.value.DoubleValue
0.778

@<SCITEGIC>MOL_PROPERTY
VdW
SciTegic.value.DoubleValue
0.679

@<SCITEGIC>MOL_PROPERTY
VdW6
SciTegic.value.DoubleValue
-10.007

@<SCITEGIC>MOL_PROPERTY
VdW12
SciTegic.value.DoubleValue
10.687

@<SCITEGIC>MOL_PROPERTY
Bond
SciTegic.value.DoubleValue
0.201

@<SCITEGIC>MOL_PROPERTY
Angle
SciTegic.value.DoubleValue
3.198

@<SCITEGIC>MOL_PROPERTY
Pdih
SciTegic.value.DoubleValue
6.040

@<SCITEGIC>MOL_PROPERTY
Idih
SciTegic.value.DoubleValue
0.006

@<SCITEGIC>MOL_PROPERTY
Tether
SciTegic.value.DoubleValue
0.000

@<TRIPOS>MOLECULE
guest-8_confgen4.mol2 : confsearch ligand conformer 16
          25          24           1
SMALL
USER_CHARGES
 
@<TRIPOS>ATOM
       1    C1      20.624189   19.510940   27.027273 C.2        1 MOL1         0.6168
       2    O1      21.446656   20.384436   26.834511 O.co2      1 MOL1        -0.6703
       3    O2      20.123312   19.285125   28.111237 O.co2      1 MOL1        -0.6703
       4    C2      20.180672   18.664587   25.839546 C.3        1 MOL1        -0.1963
       5    H1      19.953000   17.657489   26.208567 H          1 MOL1         0.0750
       6    H2      21.032739   18.569932   25.159483 H          1 MOL1         0.0750
       7    C3      18.945115   19.255622   25.110352 C.3        1 MOL1        -0.1860
       8    H3      18.123395   19.320278   25.837010 H          1 MOL1         0.0752
       9    H4      19.151683   20.286392   24.790574 H          1 MOL1         0.0752
      10    C4      18.473505   18.404108   23.904202 C.3        1 MOL1        -0.1858
      11    H5      17.377598   18.461874   23.853519 H          1 MOL1         0.0752
      12    H6      18.708762   17.343982   24.070410 H          1 MOL1         0.0752
      13    C5      19.026949   18.864408   22.532129 C.3        1 MOL1        -0.1858
      14    H7      18.564119   18.248272   21.749368 H          1 MOL1         0.0752
      15    H8      18.704337   19.896876   22.344094 H          1 MOL1         0.0752
      16    C6      20.565456   18.767276   22.402772 C.3        1 MOL1        -0.1858
      17    H9      20.892789   17.775003   22.741365 H          1 MOL1         0.0752
      18    H10     21.040753   19.502909   23.064727 H          1 MOL1         0.0752
      19    C7      21.073022   18.987770   20.958718 C.3        1 MOL1        -0.1834
      20    H11     22.156267   18.805775   20.933753 H          1 MOL1         0.0752
      21    H12     20.618337   18.245758   20.287963 H          1 MOL1         0.0752
      22    C8      20.794125   20.409727   20.425258 C.3        1 MOL1        -0.2849
      23    H13     21.218169   21.170103   21.093958 H          1 MOL1         0.0764
      24    H14     21.244179   20.542974   19.433015 H          1 MOL1         0.0764
      25    H15     19.717226   20.596993   20.329900 H          1 MOL1         0.0764
@<TRIPOS>BOND
    1     1     2    1
    2     1     3    2
    3     1     4    1
    4     4     5    1
    5     4     6    1
    6     4     7    1
    7     7     8    1
    8     7     9    1
    9     7    10    1
   10    10    11    1
   11    10    12    1
   12    10    13    1
   13    13    14    1
   14    13    15    1
   15    13    16    1
   16    16    17    1
   17    16    18    1
   18    16    19    1
   19    19    20    1
   20    19    21    1
   21    19    22    1
   22    22    23    1
   23    22    24    1
   24    22    25    1
@<TRIPOS>SUBSTRUCTURE
       1 MOL1            1 RESIDUE      1      MOL     
@<SCITEGIC>MOL_PROPERTY
VConf Rank
SciTegic.value.IntegerValue
16

@<SCITEGIC>MOL_PROPERTY
Conf_Id
SciTegic.value.IntegerValue
89

@<SCITEGIC>MOL_PROPERTY
Delta U+W
SciTegic.value.DoubleValue
2.903

@<SCITEGIC>MOL_PROPERTY
U+W
SciTegic.value.DoubleValue
-48.726

@<SCITEGIC>MOL_PROPERTY
Grad RMS
SciTegic.value.DoubleValue
0.000000

@<SCITEGIC>MOL_PROPERTY
U
SciTegic.value.DoubleValue
10.996

@<SCITEGIC>MOL_PROPERTY
W
SciTegic.value.DoubleValue
-59.723

@<SCITEGIC>MOL_PROPERTY
W(PB)
SciTegic.value.DoubleValue
-62.151

@<SCITEGIC>MOL_PROPERTY
W(SA)
SciTegic.value.DoubleValue
2.428

@<SCITEGIC>MOL_PROPERTY
Valence
SciTegic.value.DoubleValue
10.985

@<SCITEGIC>MOL_PROPERTY
Coulomb
SciTegic.value.DoubleValue
-0.995

@<SCITEGIC>MOL_PROPERTY
VdW
SciTegic.value.DoubleValue
1.006

@<SCITEGIC>MOL_PROPERTY
VdW6
SciTegic.value.DoubleValue
-10.062

@<SCITEGIC>MOL_PROPERTY
VdW12
SciTegic.value.DoubleValue
11.069

@<SCITEGIC>MOL_PROPERTY
Bond
SciTegic.value.DoubleValue
0.238

@<SCITEGIC>MOL_PROPERTY
Angle
SciTegic.value.DoubleValue
3.202

@<SCITEGIC>MOL_PROPERTY
Pdih
SciTegic.value.DoubleValue
7.544

@<SCITEGIC>MOL_PROPERTY
Idih
SciTegic.value.DoubleValue
0.001

@<SCITEGIC>MOL_PROPERTY
Tether
SciTegic.value.DoubleValue
0.000

@<TRIPOS>MOLECULE
guest-8_confgen4.mol2 : confsearch ligand conformer 17
          25          24           1
SMALL
USER_CHARGES
 
@<TRIPOS>ATOM
       1    C1      20.282241   19.689436   26.879435 C.2        1 MOL1         0.6168
       2    O1      21.365525   20.240106   26.902210 O.co2      1 MOL1        -0.6703
       3    O2      19.240308   20.247596   27.163054 O.co2      1 MOL1        -0.6703
       4    C2      20.238361   18.201071   26.538712 C.3        1 MOL1        -0.1963
       5    H1      19.880684   17.690047   27.440044 H          1 MOL1         0.0750
       6    H2      21.260435   17.845185   26.361291 H          1 MOL1         0.0750
       7    C3      19.319527   17.820193   25.343614 C.3        1 MOL1        -0.1860
       8    H3      19.067695   16.755201   25.437505 H          1 MOL1         0.0752
       9    H4      18.366505   18.362614   25.415042 H          1 MOL1         0.0752
      10    C4      19.948062   18.032629   23.943704 C.3        1 MOL1        -0.1858
      11    H5      19.278716   17.572958   23.206006 H          1 MOL1         0.0752
      12    H6      20.899557   17.487574   23.879463 H          1 MOL1         0.0752
      13    C5      20.174021   19.518656   23.573504 C.3        1 MOL1        -0.1858
      14    H7      19.238012   20.080657   23.695212 H          1 MOL1         0.0752
      15    H8      20.895444   19.959305   24.272226 H          1 MOL1         0.0752
      16    C6      20.721288   19.722331   22.140189 C.3        1 MOL1        -0.1858
      17    H9      21.639730   19.133950   22.009429 H          1 MOL1         0.0752
      18    H10     21.009842   20.776310   22.027199 H          1 MOL1         0.0752
      19    C7      19.706496   19.362577   21.031039 C.3        1 MOL1        -0.1834
      20    H11     19.463742   18.292864   21.069953 H          1 MOL1         0.0752
      21    H12     18.768465   19.910560   21.195356 H          1 MOL1         0.0752
      22    C8      20.257171   19.699405   19.630539 C.3        1 MOL1        -0.2849
      23    H13     21.182340   19.143815   19.428676 H          1 MOL1         0.0764
      24    H14     19.527196   19.435750   18.854219 H          1 MOL1         0.0764
      25    H15     20.474531   20.771801   19.540732 H          1 MOL1         0.0764
@<TRIPOS>BOND
    1     1     2    1
    2     1     3    2
    3     1     4    1
    4     4     5    1
    5     4     6    1
    6     4     7    1
    7     7     8    1
    8     7     9    1
    9     7    10    1
   10    10    11    1
   11    10    12    1
   12    10    13    1
   13    13    14    1
   14    13    15    1
   15    13    16    1
   16    16    17    1
   17    16    18    1
   18    16    19    1
   19    19    20    1
   20    19    21    1
   21    19    22    1
   22    22    23    1
   23    22    24    1
   24    22    25    1
@<TRIPOS>SUBSTRUCTURE
       1 MOL1            1 RESIDUE      1      MOL     
@<SCITEGIC>MOL_PROPERTY
VConf Rank
SciTegic.value.IntegerValue
17

@<SCITEGIC>MOL_PROPERTY
Conf_Id
SciTegic.value.IntegerValue
114

@<SCITEGIC>MOL_PROPERTY
Delta U+W
SciTegic.value.DoubleValue
2.758

@<SCITEGIC>MOL_PROPERTY
U+W
SciTegic.value.DoubleValue
-48.871

@<SCITEGIC>MOL_PROPERTY
Grad RMS
SciTegic.value.DoubleValue
0.000000

@<SCITEGIC>MOL_PROPERTY
U
SciTegic.value.DoubleValue
11.422

@<SCITEGIC>MOL_PROPERTY
W
SciTegic.value.DoubleValue
-60.293

@<SCITEGIC>MOL_PROPERTY
W(PB)
SciTegic.value.DoubleValue
-62.719

@<SCITEGIC>MOL_PROPERTY
W(SA)
SciTegic.value.DoubleValue
2.425

@<SCITEGIC>MOL_PROPERTY
Valence
SciTegic.value.DoubleValue
10.135

@<SCITEGIC>MOL_PROPERTY
Coulomb
SciTegic.value.DoubleValue
0.369

@<SCITEGIC>MOL_PROPERTY
VdW
SciTegic.value.DoubleValue
0.918

@<SCITEGIC>MOL_PROPERTY
VdW6
SciTegic.value.DoubleValue
-10.482

@<SCITEGIC>MOL_PROPERTY
VdW12
SciTegic.value.DoubleValue
11.400

@<SCITEGIC>MOL_PROPERTY
Bond
SciTegic.value.DoubleValue
0.245

@<SCITEGIC>MOL_PROPERTY
Angle
SciTegic.value.DoubleValue
3.539

@<SCITEGIC>MOL_PROPERTY
Pdih
SciTegic.value.DoubleValue
6.346

@<SCITEGIC>MOL_PROPERTY
Idih
SciTegic.value.DoubleValue
0.006

@<SCITEGIC>MOL_PROPERTY
Tether
SciTegic.value.DoubleValue
0.000

@<TRIPOS>MOLECULE
guest-8_confgen4.mol2 : confsearch ligand conformer 18
          25          24           1
SMALL
USER_CHARGES
 
@<TRIPOS>ATOM
       1    C1      19.974682   19.588111   27.177664 C.2        1 MOL1         0.6168
       2    O1      20.805371   20.433613   27.446264 O.co2      1 MOL1        -0.6703
       3    O2      18.783152   19.730545   27.370189 O.co2      1 MOL1        -0.6703
       4    C2      20.453978   18.265987   26.585032 C.3        1 MOL1        -0.1963
       5    H1      19.932792   17.460300   27.115324 H          1 MOL1         0.0750
       6    H2      21.522369   18.151030   26.804349 H          1 MOL1         0.0750
       7    C3      20.201353   18.131417   25.060876 C.3        1 MOL1        -0.1860
       8    H3      20.454555   17.110078   24.746224 H          1 MOL1         0.0752
       9    H4      19.129625   18.267874   24.865672 H          1 MOL1         0.0752
      10    C4      21.030644   19.141867   24.232309 C.3        1 MOL1        -0.1858
      11    H5      22.088295   19.049763   24.514686 H          1 MOL1         0.0752
      12    H6      20.731640   20.168205   24.486334 H          1 MOL1         0.0752
      13    C5      20.912192   18.933888   22.703454 C.3        1 MOL1        -0.1858
      14    H7      21.640975   19.592801   22.214685 H          1 MOL1         0.0752
      15    H8      21.201715   17.905529   22.448158 H          1 MOL1         0.0752
      16    C6      19.497319   19.232047   22.148678 C.3        1 MOL1        -0.1858
      17    H9      19.206871   20.259363   22.407414 H          1 MOL1         0.0752
      18    H10     18.768001   18.570771   22.633314 H          1 MOL1         0.0752
      19    C7      19.382053   19.031328   20.619344 C.3        1 MOL1        -0.1834
      20    H11     19.683009   18.008037   20.355547 H          1 MOL1         0.0752
      21    H12     18.326172   19.127704   20.331130 H          1 MOL1         0.0752
      22    C8      20.212256   20.045195   19.802189 C.3        1 MOL1        -0.2849
      23    H13     20.020113   19.921146   18.728599 H          1 MOL1         0.0764
      24    H14     19.952322   21.076330   20.074787 H          1 MOL1         0.0764
      25    H15     21.288361   19.906590   19.964034 H          1 MOL1         0.0764
@<TRIPOS>BOND
    1     1     2    1
    2     1     3    2
    3     1     4    1
    4     4     5    1
    5     4     6    1
    6     4     7    1
    7     7     8    1
    8     7     9    1
    9     7    10    1
   10    10    11    1
   11    10    12    1
   12    10    13    1
   13    13    14    1
   14    13    15    1
   15    13    16    1
   16    16    17    1
   17    16    18    1
   18    16    19    1
   19    19    20    1
   20    19    21    1
   21    19    22    1
   22    22    23    1
   23    22    24    1
   24    22    25    1
@<TRIPOS>SUBSTRUCTURE
       1 MOL1            1 RESIDUE      1      MOL     
@<SCITEGIC>MOL_PROPERTY
VConf Rank
SciTegic.value.IntegerValue
18

@<SCITEGIC>MOL_PROPERTY
Conf_Id
SciTegic.value.IntegerValue
87

@<SCITEGIC>MOL_PROPERTY
Delta U+W
SciTegic.value.DoubleValue
1.453

@<SCITEGIC>MOL_PROPERTY
U+W
SciTegic.value.DoubleValue
-50.176

@<SCITEGIC>MOL_PROPERTY
Grad RMS
SciTegic.value.DoubleValue
0.000000

@<SCITEGIC>MOL_PROPERTY
U
SciTegic.value.DoubleValue
9.763

@<SCITEGIC>MOL_PROPERTY
W
SciTegic.value.DoubleValue
-59.940

@<SCITEGIC>MOL_PROPERTY
W(PB)
SciTegic.value.DoubleValue
-62.392

@<SCITEGIC>MOL_PROPERTY
W(SA)
SciTegic.value.DoubleValue
2.452

@<SCITEGIC>MOL_PROPERTY
Valence
SciTegic.value.DoubleValue
8.883

@<SCITEGIC>MOL_PROPERTY
Coulomb
SciTegic.value.DoubleValue
-0.122

@<SCITEGIC>MOL_PROPERTY
VdW
SciTegic.value.DoubleValue
1.003

@<SCITEGIC>MOL_PROPERTY
VdW6
SciTegic.value.DoubleValue
-9.782

@<SCITEGIC>MOL_PROPERTY
VdW12
SciTegic.value.DoubleValue
10.785

@<SCITEGIC>MOL_PROPERTY
Bond
SciTegic.value.DoubleValue
0.212

@<SCITEGIC>MOL_PROPERTY
Angle
SciTegic.value.DoubleValue
2.940

@<SCITEGIC>MOL_PROPERTY
Pdih
SciTegic.value.DoubleValue
5.730

@<SCITEGIC>MOL_PROPERTY
Idih
SciTegic.value.DoubleValue
0.001

@<SCITEGIC>MOL_PROPERTY
Tether
SciTegic.value.DoubleValue
0.000

@<TRIPOS>MOLECULE
guest-8_confgen4.mol2 : confsearch ligand conformer 19
          25          24           1
SMALL
USER_CHARGES
 
@<TRIPOS>ATOM
       1    C1      20.475963   19.460077   27.261668 C.2        1 MOL1         0.6168
       2    O1      21.477703   20.142530   27.348035 O.co2      1 MOL1        -0.6703
       3    O2      19.561375   19.502585   28.060708 O.co2      1 MOL1        -0.6703
       4    C2      20.351417   18.511112   26.075026 C.3        1 MOL1        -0.1963
       5    H1      19.782699   17.631794   26.400360 H          1 MOL1         0.0750
       6    H2      21.357432   18.166306   25.807411 H          1 MOL1         0.0750
       7    C3      19.668651   19.167028   24.849647 C.3        1 MOL1        -0.1860
       8    H3      18.666185   19.514778   25.134733 H          1 MOL1         0.0752
       9    H4      20.244253   20.054657   24.555397 H          1 MOL1         0.0752
      10    C4      19.561586   18.186103   23.659290 C.3        1 MOL1        -0.1858
      11    H5      19.044170   17.275942   23.991718 H          1 MOL1         0.0752
      12    H6      20.565400   17.868922   23.347584 H          1 MOL1         0.0752
      13    C5      18.792711   18.769091   22.447145 C.3        1 MOL1        -0.1858
      14    H7      18.710053   17.994199   21.673784 H          1 MOL1         0.0752
      15    H8      17.762217   18.991715   22.755352 H          1 MOL1         0.0752
      16    C6      19.410076   20.049082   21.824005 C.3        1 MOL1        -0.1858
      17    H9      19.342730   20.873520   22.545831 H          1 MOL1         0.0752
      18    H10     18.792948   20.353885   20.968005 H          1 MOL1         0.0752
      19    C7      20.879520   19.911481   21.355035 C.3        1 MOL1        -0.1834
      20    H11     21.212805   20.880294   20.958515 H          1 MOL1         0.0752
      21    H12     21.530785   19.693868   22.211966 H          1 MOL1         0.0752
      22    C8      21.073998   18.834911   20.265440 C.3        1 MOL1        -0.2849
      23    H13     20.419302   19.024302   19.404952 H          1 MOL1         0.0764
      24    H14     22.111687   18.833087   19.907772 H          1 MOL1         0.0764
      25    H15     20.853341   17.832104   20.652267 H          1 MOL1         0.0764
@<TRIPOS>BOND
    1     1     2    1
    2     1     3    2
    3     1     4    1
    4     4     5    1
    5     4     6    1
    6     4     7    1
    7     7     8    1
    8     7     9    1
    9     7    10    1
   10    10    11    1
   11    10    12    1
   12    10    13    1
   13    13    14    1
   14    13    15    1
   15    13    16    1
   16    16    17    1
   17    16    18    1
   18    16    19    1
   19    19    20    1
   20    19    21    1
   21    19    22    1
   22    22    23    1
   23    22    24    1
   24    22    25    1
@<TRIPOS>SUBSTRUCTURE
       1 MOL1            1 RESIDUE      1      MOL     
@<SCITEGIC>MOL_PROPERTY
VConf Rank
SciTegic.value.IntegerValue
19

@<SCITEGIC>MOL_PROPERTY
Conf_Id
SciTegic.value.IntegerValue
29

@<SCITEGIC>MOL_PROPERTY
Delta U+W
SciTegic.value.DoubleValue
0.850

@<SCITEGIC>MOL_PROPERTY
U+W
SciTegic.value.DoubleValue
-50.780

@<SCITEGIC>MOL_PROPERTY
Grad RMS
SciTegic.value.DoubleValue
0.000000

@<SCITEGIC>MOL_PROPERTY
U
SciTegic.value.DoubleValue
8.646

@<SCITEGIC>MOL_PROPERTY
W
SciTegic.value.DoubleValue
-59.426

@<SCITEGIC>MOL_PROPERTY
W(PB)
SciTegic.value.DoubleValue
-61.868

@<SCITEGIC>MOL_PROPERTY
W(SA)
SciTegic.value.DoubleValue
2.442

@<SCITEGIC>MOL_PROPERTY
Valence
SciTegic.value.DoubleValue
8.924

@<SCITEGIC>MOL_PROPERTY
Coulomb
SciTegic.value.DoubleValue
-1.171

@<SCITEGIC>MOL_PROPERTY
VdW
SciTegic.value.DoubleValue
0.894

@<SCITEGIC>MOL_PROPERTY
VdW6
SciTegic.value.DoubleValue
-10.223

@<SCITEGIC>MOL_PROPERTY
VdW12
SciTegic.value.DoubleValue
11.117

@<SCITEGIC>MOL_PROPERTY
Bond
SciTegic.value.DoubleValue
0.231

@<SCITEGIC>MOL_PROPERTY
Angle
SciTegic.value.DoubleValue
3.232

@<SCITEGIC>MOL_PROPERTY
Pdih
SciTegic.value.DoubleValue
5.461

@<SCITEGIC>MOL_PROPERTY
Idih
SciTegic.value.DoubleValue
0.001

@<SCITEGIC>MOL_PROPERTY
Tether
SciTegic.value.DoubleValue
0.000

@<TRIPOS>MOLECULE
guest-8_confgen4.mol2 : confsearch ligand conformer 20
          25          24           1
SMALL
USER_CHARGES
 
@<TRIPOS>ATOM
       1    C1      20.276117   19.667260   27.256724 C.2        1 MOL1         0.6168
       2    O1      20.991767   20.646160   27.336000 O.co2      1 MOL1        -0.6703
       3    O2      20.267799   18.771089   28.077424 O.co2      1 MOL1        -0.6703
       4    C2      19.350934   19.547561   26.050954 C.3        1 MOL1        -0.1963
       5    H1      19.048503   20.558330   25.751864 H          1 MOL1         0.0750
       6    H2      18.444617   19.018080   26.368319 H          1 MOL1         0.0750
       7    C3      20.010146   18.812881   24.857790 C.3        1 MOL1        -0.1860
       8    H3      20.924372   19.349624   24.571634 H          1 MOL1         0.0752
       9    H4      20.315115   17.805917   25.174271 H          1 MOL1         0.0752
      10    C4      19.053798   18.711926   23.647071 C.3        1 MOL1        -0.1858
      11    H5      18.780027   19.718534   23.304730 H          1 MOL1         0.0752
      12    H6      18.118263   18.235007   23.969474 H          1 MOL1         0.0752
      13    C5      19.636759   17.894189   22.467326 C.3        1 MOL1        -0.1858
      14    H7      19.815029   16.864123   22.804456 H          1 MOL1         0.0752
      15    H8      18.877539   17.820535   21.677679 H          1 MOL1         0.0752
      16    C6      20.952197   18.450861   21.861056 C.3        1 MOL1        -0.1858
      17    H9      21.254316   17.803185   21.026951 H          1 MOL1         0.0752
      18    H10     21.756761   18.371494   22.603783 H          1 MOL1         0.0752
      19    C7      20.878445   19.912724   21.355437 C.3        1 MOL1        -0.1834
      20    H11     20.664672   20.591430   22.191795 H          1 MOL1         0.0752
      21    H12     21.867528   20.201965   20.974705 H          1 MOL1         0.0752
      22    C8      19.835039   20.119350   20.236220 C.3        1 MOL1        -0.2849
      23    H13     18.816276   19.943515   20.603848 H          1 MOL1         0.0764
      24    H14     19.878768   21.147709   19.855045 H          1 MOL1         0.0764
      25    H15     20.020635   19.438203   19.395667 H          1 MOL1         0.0764
@<TRIPOS>BOND
    1     1     2    1
    2     1     3    2
    3     1     4    1
    4     4     5    1
    5     4     6    1
    6     4     7    1
    7     7     8    1
    8     7     9    1
    9     7    10    1
   10    10    11    1
   11    10    12    1
   12    10    13    1
   13    13    14    1
   14    13    15    1
   15    13    16    1
   16    16    17    1
   17    16    18    1
   18    16    19    1
   19    19    20    1
   20    19    21    1
   21    19    22    1
   22    22    23    1
   23    22    24    1
   24    22    25    1
@<TRIPOS>SUBSTRUCTURE
       1 MOL1            1 RESIDUE      1      MOL     
@<SCITEGIC>MOL_PROPERTY
VConf Rank
SciTegic.value.IntegerValue
20

@<SCITEGIC>MOL_PROPERTY
Conf_Id
SciTegic.value.IntegerValue
30

@<SCITEGIC>MOL_PROPERTY
Delta U+W
SciTegic.value.DoubleValue
0.843

@<SCITEGIC>MOL_PROPERTY
U+W
SciTegic.value.DoubleValue
-50.787

@<SCITEGIC>MOL_PROPERTY
Grad RMS
SciTegic.value.DoubleValue
0.000000

@<SCITEGIC>MOL_PROPERTY
U
SciTegic.value.DoubleValue
8.647

@<SCITEGIC>MOL_PROPERTY
W
SciTegic.value.DoubleValue
-59.434

@<SCITEGIC>MOL_PROPERTY
W(PB)
SciTegic.value.DoubleValue
-61.861

@<SCITEGIC>MOL_PROPERTY
W(SA)
SciTegic.value.DoubleValue
2.428

@<SCITEGIC>MOL_PROPERTY
Valence
SciTegic.value.DoubleValue
8.924

@<SCITEGIC>MOL_PROPERTY
Coulomb
SciTegic.value.DoubleValue
-1.170

@<SCITEGIC>MOL_PROPERTY
VdW
SciTegic.value.DoubleValue
0.894

@<SCITEGIC>MOL_PROPERTY
VdW6
SciTegic.value.DoubleValue
-10.224

@<SCITEGIC>MOL_PROPERTY
VdW12
SciTegic.value.DoubleValue
11.118

@<SCITEGIC>MOL_PROPERTY
Bond
SciTegic.value.DoubleValue
0.231

@<SCITEGIC>MOL_PROPERTY
Angle
SciTegic.value.DoubleValue
3.232

@<SCITEGIC>MOL_PROPERTY
Pdih
SciTegic.value.DoubleValue
5.460

@<SCITEGIC>MOL_PROPERTY
Idih
SciTegic.value.DoubleValue
0.000

@<SCITEGIC>MOL_PROPERTY
Tether
SciTegic.value.DoubleValue
0.000

@<TRIPOS>MOLECULE
guest-8_confgen4.mol2 : confsearch ligand conformer 21
          25          24           1
SMALL
USER_CHARGES
 
@<TRIPOS>ATOM
       1    C1      19.055429   23.307657   25.131564 C.2        1 MOL1         0.6168
       2    O1      19.902643   23.909609   24.500308 O.co2      1 MOL1        -0.6703
       3    O2      18.327581   23.842980   25.943835 O.co2      1 MOL1        -0.6703
       4    C2      18.873452   21.804504   24.915202 C.3        1 MOL1        -0.1963
       5    H1      17.831261   21.641027   24.616841 H          1 MOL1         0.0750
       6    H2      19.009656   21.315543   25.886938 H          1 MOL1         0.0750
       7    C3      19.825109   21.166147   23.868652 C.3        1 MOL1        -0.1860
       8    H3      19.687990   21.664998   22.899192 H          1 MOL1         0.0752
       9    H4      20.867455   21.339163   24.170457 H          1 MOL1         0.0752
      10    C4      19.574024   19.650425   23.713120 C.3        1 MOL1        -0.1858
      11    H5      18.531413   19.479886   23.411432 H          1 MOL1         0.0752
      12    H6      19.711637   19.153847   24.683485 H          1 MOL1         0.0752
      13    C5      20.521724   19.017496   22.671605 C.3        1 MOL1        -0.1858
      14    H7      20.384306   19.513860   21.701119 H          1 MOL1         0.0752
      15    H8      21.564420   19.187838   22.973054 H          1 MOL1         0.0752
      16    C6      20.271190   17.501974   22.515594 C.3        1 MOL1        -0.1858
      17    H9      19.228551   17.331403   22.214094 H          1 MOL1         0.0752
      18    H10     20.408657   17.005388   23.485954 H          1 MOL1         0.0752
      19    C7      21.218387   16.869225   21.474533 C.3        1 MOL1        -0.1834
      20    H11     21.082339   17.362243   20.501953 H          1 MOL1         0.0752
      21    H12     22.262436   17.036222   21.773801 H          1 MOL1         0.0752
      22    C8      20.965080   15.355928   21.321651 C.3        1 MOL1        -0.2849
      23    H13     19.936060   15.161199   20.992112 H          1 MOL1         0.0764
      24    H14     21.646696   14.922711   20.578139 H          1 MOL1         0.0764
      25    H15     21.125056   14.832720   22.273521 H          1 MOL1         0.0764
@<TRIPOS>BOND
    1     1     2    1
    2     1     3    2
    3     1     4    1
    4     4     5    1
    5     4     6    1
    6     4     7    1
    7     7     8    1
    8     7     9    1
    9     7    10    1
   10    10    11    1
   11    10    12    1
   12    10    13    1
   13    13    14    1
   14    13    15    1
   15    13    16    1
   16    16    17    1
   17    16    18    1
   18    16    19    1
   19    19    20    1
   20    19    21    1
   21    19    22    1
   22    22    23    1
   23    22    24    1
   24    22    25    1
@<TRIPOS>SUBSTRUCTURE
       1 MOL1            1 RESIDUE      1      MOL     
@<SCITEGIC>MOL_PROPERTY
VConf Rank
SciTegic.value.IntegerValue
21

@<SCITEGIC>MOL_PROPERTY
Conf_Id
SciTegic.value.IntegerValue
0

@<SCITEGIC>MOL_PROPERTY
Delta U+W
SciTegic.value.DoubleValue
0.000

@<SCITEGIC>MOL_PROPERTY
U+W
SciTegic.value.DoubleValue
-51.629

@<SCITEGIC>MOL_PROPERTY
Grad RMS
SciTegic.value.DoubleValue
0.000000

@<SCITEGIC>MOL_PROPERTY
U
SciTegic.value.DoubleValue
6.586

@<SCITEGIC>MOL_PROPERTY
W
SciTegic.value.DoubleValue
-58.216

@<SCITEGIC>MOL_PROPERTY
W(PB)
SciTegic.value.DoubleValue
-60.757

@<SCITEGIC>MOL_PROPERTY
W(SA)
SciTegic.value.DoubleValue
2.541

@<SCITEGIC>MOL_PROPERTY
Valence
SciTegic.value.DoubleValue
8.027

@<SCITEGIC>MOL_PROPERTY
Coulomb
SciTegic.value.DoubleValue
-2.892

@<SCITEGIC>MOL_PROPERTY
VdW
SciTegic.value.DoubleValue
1.451

@<SCITEGIC>MOL_PROPERTY
VdW6
SciTegic.value.DoubleValue
-7.931

@<SCITEGIC>MOL_PROPERTY
VdW12
SciTegic.value.DoubleValue
9.383

@<SCITEGIC>MOL_PROPERTY
Bond
SciTegic.value.DoubleValue
0.149

@<SCITEGIC>MOL_PROPERTY
Angle
SciTegic.value.DoubleValue
2.726

@<SCITEGIC>MOL_PROPERTY
Pdih
SciTegic.value.DoubleValue
5.152

@<SCITEGIC>MOL_PROPERTY
Idih
SciTegic.value.DoubleValue
0.000

@<SCITEGIC>MOL_PROPERTY
Tether
SciTegic.value.DoubleValue
0.000

@<TRIPOS>MOLECULE
guest-8_confgen4.mol2 : confsearch ligand conformer 22
          25          24           1
SMALL
USER_CHARGES
 
@<TRIPOS>ATOM
       1    C1      22.835348   18.545470   26.894465 C.2        1 MOL1         0.6168
       2    O1      22.670611   17.487128   27.468394 O.co2      1 MOL1        -0.6703
       3    O2      23.902922   19.123419   26.840770 O.co2      1 MOL1        -0.6703
       4    C2      21.641449   19.171569   26.182645 C.3        1 MOL1        -0.1963
       5    H1      21.751578   20.261743   26.227322 H          1 MOL1         0.0750
       6    H2      20.736008   18.913734   26.745053 H          1 MOL1         0.0750
       7    C3      21.507436   18.707458   24.711365 C.3        1 MOL1        -0.1860
       8    H3      22.426923   18.961100   24.165653 H          1 MOL1         0.0752
       9    H4      21.411536   17.613103   24.683377 H          1 MOL1         0.0752
      10    C4      20.292051   19.354648   24.012790 C.3        1 MOL1        -0.1858
      11    H5      20.390418   20.448524   24.043455 H          1 MOL1         0.0752
      12    H6      19.374755   19.100328   24.561488 H          1 MOL1         0.0752
      13    C5      20.160909   18.889969   22.546385 C.3        1 MOL1        -0.1858
      14    H7      21.078049   19.144244   21.997476 H          1 MOL1         0.0752
      15    H8      20.062515   17.796137   22.515498 H          1 MOL1         0.0752
      16    C6      18.945701   19.536704   21.847184 C.3        1 MOL1        -0.1858
      17    H9      19.043845   20.630562   21.877809 H          1 MOL1         0.0752
      18    H10     18.028381   19.282595   22.395863 H          1 MOL1         0.0752
      19    C7      18.814413   19.072281   20.381429 C.3        1 MOL1        -0.1834
      20    H11     19.729585   19.326498   19.828869 H          1 MOL1         0.0752
      21    H12     18.714100   17.978555   20.346917 H          1 MOL1         0.0752
      22    C8      17.599874   19.720285   19.686744 C.3        1 MOL1        -0.2849
      23    H13     17.521817   19.379200   18.646237 H          1 MOL1         0.0764
      24    H14     16.666331   19.456417   20.200814 H          1 MOL1         0.0764
      25    H15     17.689464   20.814501   19.678870 H          1 MOL1         0.0764
@<TRIPOS>BOND
    1     1     2    1
    2     1     3    2
    3     1     4    1
    4     4     5    1
    5     4     6    1
    6     4     7    1
    7     7     8    1
    8     7     9    1
    9     7    10    1
   10    10    11    1
   11    10    12    1
   12    10    13    1
   13    13    14    1
   14    13    15    1
   15    13    16    1
   16    16    17    1
   17    16    18    1
   18    16    19    1
   19    19    20    1
   20    19    21    1
   21    19    22    1
   22    22    23    1
   23    22    24    1
   24    22    25    1
@<TRIPOS>SUBSTRUCTURE
       1 MOL1            1 RESIDUE      1      MOL     
@<SCITEGIC>MOL_PROPERTY
VConf Rank
SciTegic.value.IntegerValue
22

@<SCITEGIC>MOL_PROPERTY
Conf_Id
SciTegic.value.IntegerValue
27

@<SCITEGIC>MOL_PROPERTY
Delta U+W
SciTegic.value.DoubleValue
-1.297

@<SCITEGIC>MOL_PROPERTY
U+W
SciTegic.value.DoubleValue
-52.926

@<SCITEGIC>MOL_PROPERTY
Grad RMS
SciTegic.value.DoubleValue
0.000000

@<SCITEGIC>MOL_PROPERTY
U
SciTegic.value.DoubleValue
5.617

@<SCITEGIC>MOL_PROPERTY
W
SciTegic.value.DoubleValue
-58.543

@<SCITEGIC>MOL_PROPERTY
W(PB)
SciTegic.value.DoubleValue
-61.065

@<SCITEGIC>MOL_PROPERTY
W(SA)
SciTegic.value.DoubleValue
2.522

@<SCITEGIC>MOL_PROPERTY
Valence
SciTegic.value.DoubleValue
7.531

@<SCITEGIC>MOL_PROPERTY
Coulomb
SciTegic.value.DoubleValue
-2.818

@<SCITEGIC>MOL_PROPERTY
VdW
SciTegic.value.DoubleValue
0.904

@<SCITEGIC>MOL_PROPERTY
VdW6
SciTegic.value.DoubleValue
-7.640

@<SCITEGIC>MOL_PROPERTY
VdW12
SciTegic.value.DoubleValue
8.544

@<SCITEGIC>MOL_PROPERTY
Bond
SciTegic.value.DoubleValue
0.115

@<SCITEGIC>MOL_PROPERTY
Angle
SciTegic.value.DoubleValue
2.271

@<SCITEGIC>MOL_PROPERTY
Pdih
SciTegic.value.DoubleValue
5.144

@<SCITEGIC>MOL_PROPERTY
Idih
SciTegic.value.DoubleValue
0.001

@<SCITEGIC>MOL_PROPERTY
Tether
SciTegic.value.DoubleValue
0.000

@<TRIPOS>MOLECULE
guest-8_confgen4.mol2 : confsearch ligand conformer 23
          25          24           1
SMALL
USER_CHARGES
 
@<TRIPOS>ATOM
       1    C1      19.989157   21.383250   26.644040 C.2        1 MOL1         0.6168
       2    O1      20.774860   22.310452   26.650616 O.co2      1 MOL1        -0.6703
       3    O2      18.783589   21.523437   26.581456 O.co2      1 MOL1        -0.6703
       4    C2      20.548690   19.966447   26.736538 C.3        1 MOL1        -0.1963
       5    H1      19.745912   19.293542   27.061488 H          1 MOL1         0.0750
       6    H2      21.305526   19.963987   27.529746 H          1 MOL1         0.0750
       7    C3      21.179174   19.450350   25.417039 C.3        1 MOL1        -0.1860
       8    H3      21.961930   20.148966   25.090081 H          1 MOL1         0.0752
       9    H4      21.674202   18.489100   25.610671 H          1 MOL1         0.0752
      10    C4      20.136299   19.268708   24.291345 C.3        1 MOL1        -0.1858
      11    H5      19.648761   20.230422   24.079600 H          1 MOL1         0.0752
      12    H6      19.349073   18.580228   24.627939 H          1 MOL1         0.0752
      13    C5      20.780018   18.724322   22.997939 C.3        1 MOL1        -0.1858
      14    H7      21.567056   19.413444   22.662127 H          1 MOL1         0.0752
      15    H8      21.265588   17.761140   23.206599 H          1 MOL1         0.0752
      16    C6      19.738697   18.543377   21.872430 C.3        1 MOL1        -0.1858
      17    H9      19.252966   19.506509   21.663697 H          1 MOL1         0.0752
      18    H10     18.951365   17.854559   22.208168 H          1 MOL1         0.0752
      19    C7      20.381733   17.999750   20.579238 C.3        1 MOL1        -0.1834
      20    H11     21.168663   18.687330   20.239446 H          1 MOL1         0.0752
      21    H12     20.866989   17.035319   20.783879 H          1 MOL1         0.0752
      22    C8      19.338627   17.820688   19.457868 C.3        1 MOL1        -0.2849
      23    H13     18.859485   18.777107   19.210719 H          1 MOL1         0.0764
      24    H14     19.812791   17.433749   18.546535 H          1 MOL1         0.0764
      25    H15     18.555494   17.112689   19.759254 H          1 MOL1         0.0764
@<TRIPOS>BOND
    1     1     2    1
    2     1     3    2
    3     1     4    1
    4     4     5    1
    5     4     6    1
    6     4     7    1
    7     7     8    1
    8     7     9    1
    9     7    10    1
   10    10    11    1
   11    10    12    1
   12    10    13    1
   13    13    14    1
   14    13    15    1
   15    13    16    1
   16    16    17    1
   17    16    18    1
   18    16    19    1
   19    19    20    1
   20    19    21    1
   21    19    22    1
   22    22    23    1
   23    22    24    1
   24    22    25    1
@<TRIPOS>SUBSTRUCTURE
       1 MOL1            1 RESIDUE      1      MOL     
@<SCITEGIC>MOL_PROPERTY
VConf Rank
SciTegic.value.IntegerValue
23

@<SCITEGIC>MOL_PROPERTY
Conf_Id
SciTegic.value.IntegerValue
37

@<SCITEGIC>MOL_PROPERTY
Delta U+W
SciTegic.value.DoubleValue
-0.230

@<SCITEGIC>MOL_PROPERTY
U+W
SciTegic.value.DoubleValue
-51.860

@<SCITEGIC>MOL_PROPERTY
Grad RMS
SciTegic.value.DoubleValue
0.000000

@<SCITEGIC>MOL_PROPERTY
U
SciTegic.value.DoubleValue
7.816

@<SCITEGIC>MOL_PROPERTY
W
SciTegic.value.DoubleValue
-59.675

@<SCITEGIC>MOL_PROPERTY
W(PB)
SciTegic.value.DoubleValue
-62.180

@<SCITEGIC>MOL_PROPERTY
W(SA)
SciTegic.value.DoubleValue
2.505

@<SCITEGIC>MOL_PROPERTY
Valence
SciTegic.value.DoubleValue
7.785

@<SCITEGIC>MOL_PROPERTY
Coulomb
SciTegic.value.DoubleValue
-0.713

@<SCITEGIC>MOL_PROPERTY
VdW
SciTegic.value.DoubleValue
0.744

@<SCITEGIC>MOL_PROPERTY
VdW6
SciTegic.value.DoubleValue
-8.514

@<SCITEGIC>MOL_PROPERTY
VdW12
SciTegic.value.DoubleValue
9.259

@<SCITEGIC>MOL_PROPERTY
Bond
SciTegic.value.DoubleValue
0.136

@<SCITEGIC>MOL_PROPERTY
Angle
SciTegic.value.DoubleValue
2.433

@<SCITEGIC>MOL_PROPERTY
Pdih
SciTegic.value.DoubleValue
5.216

@<SCITEGIC>MOL_PROPERTY
Idih
SciTegic.value.DoubleValue
0.000

@<SCITEGIC>MOL_PROPERTY
Tether
SciTegic.value.DoubleValue
0.000

@<TRIPOS>MOLECULE
guest-8_confgen4.mol2 : confsearch ligand conformer 24
          25          24           1
SMALL
USER_CHARGES
 
@<TRIPOS>ATOM
       1    C1      22.217970   21.216040   26.113588 C.2        1 MOL1         0.6168
       2    O1      22.797426   22.197014   25.690512 O.co2      1 MOL1        -0.6703
       3    O2      22.785364   20.207394   26.484612 O.co2      1 MOL1        -0.6703
       4    C2      20.694889   21.261700   26.197897 C.3        1 MOL1        -0.1963
       5    H1      20.419930   22.225068   26.643210 H          1 MOL1         0.0750
       6    H2      20.359279   20.482987   26.893468 H          1 MOL1         0.0750
       7    C3      19.982749   21.101097   24.829684 C.3        1 MOL1        -0.1860
       8    H3      18.907852   21.283176   24.963816 H          1 MOL1         0.0752
       9    H4      20.349648   21.870355   24.135924 H          1 MOL1         0.0752
      10    C4      20.188979   19.699186   24.213338 C.3        1 MOL1        -0.1858
      11    H5      19.833030   18.933339   24.916048 H          1 MOL1         0.0752
      12    H6      21.261564   19.516337   24.059875 H          1 MOL1         0.0752
      13    C5      19.445894   19.551044   22.868159 C.3        1 MOL1        -0.1858
      14    H7      18.372660   19.730592   23.019713 H          1 MOL1         0.0752
      15    H8      19.802589   20.317197   22.166114 H          1 MOL1         0.0752
      16    C6      19.652083   18.150721   22.251362 C.3        1 MOL1        -0.1858
      17    H9      19.295715   17.384394   22.953377 H          1 MOL1         0.0752
      18    H10     20.725329   17.970957   22.099859 H          1 MOL1         0.0752
      19    C7      18.910026   18.002372   20.906479 C.3        1 MOL1        -0.1834
      20    H11     17.835746   18.179765   21.054574 H          1 MOL1         0.0752
      21    H12     19.265457   18.766258   20.201050 H          1 MOL1         0.0752
      22    C8      19.118500   16.602752   20.293939 C.3        1 MOL1        -0.2849
      23    H13     18.742520   15.819984   20.965734 H          1 MOL1         0.0764
      24    H14     18.584435   16.514906   19.338879 H          1 MOL1         0.0764
      25    H15     20.183022   16.410878   20.105857 H          1 MOL1         0.0764
@<TRIPOS>BOND
    1     1     2    1
    2     1     3    2
    3     1     4    1
    4     4     5    1
    5     4     6    1
    6     4     7    1
    7     7     8    1
    8     7     9    1
    9     7    10    1
   10    10    11    1
   11    10    12    1
   12    10    13    1
   13    13    14    1
   14    13    15    1
   15    13    16    1
   16    16    17    1
   17    16    18    1
   18    16    19    1
   19    19    20    1
   20    19    21    1
   21    19    22    1
   22    22    23    1
   23    22    24    1
   24    22    25    1
@<TRIPOS>SUBSTRUCTURE
       1 MOL1            1 RESIDUE      1      MOL     
@<SCITEGIC>MOL_PROPERTY
VConf Rank
SciTegic.value.IntegerValue
24

@<SCITEGIC>MOL_PROPERTY
Conf_Id
SciTegic.value.IntegerValue
54

@<SCITEGIC>MOL_PROPERTY
Delta U+W
SciTegic.value.DoubleValue
-0.224

@<SCITEGIC>MOL_PROPERTY
U+W
SciTegic.value.DoubleValue
-51.854

@<SCITEGIC>MOL_PROPERTY
Grad RMS
SciTegic.value.DoubleValue
0.000000

@<SCITEGIC>MOL_PROPERTY
U
SciTegic.value.DoubleValue
7.816

@<SCITEGIC>MOL_PROPERTY
W
SciTegic.value.DoubleValue
-59.670

@<SCITEGIC>MOL_PROPERTY
W(PB)
SciTegic.value.DoubleValue
-62.157

@<SCITEGIC>MOL_PROPERTY
W(SA)
SciTegic.value.DoubleValue
2.487

@<SCITEGIC>MOL_PROPERTY
Valence
SciTegic.value.DoubleValue
7.785

@<SCITEGIC>MOL_PROPERTY
Coulomb
SciTegic.value.DoubleValue
-0.713

@<SCITEGIC>MOL_PROPERTY
VdW
SciTegic.value.DoubleValue
0.744

@<SCITEGIC>MOL_PROPERTY
VdW6
SciTegic.value.DoubleValue
-8.515

@<SCITEGIC>MOL_PROPERTY
VdW12
SciTegic.value.DoubleValue
9.259

@<SCITEGIC>MOL_PROPERTY
Bond
SciTegic.value.DoubleValue
0.136

@<SCITEGIC>MOL_PROPERTY
Angle
SciTegic.value.DoubleValue
2.433

@<SCITEGIC>MOL_PROPERTY
Pdih
SciTegic.value.DoubleValue
5.215

@<SCITEGIC>MOL_PROPERTY
Idih
SciTegic.value.DoubleValue
0.000

@<SCITEGIC>MOL_PROPERTY
Tether
SciTegic.value.DoubleValue
0.000

@<TRIPOS>MOLECULE
guest-8_confgen4.mol2 : confsearch ligand conformer 25
          25          24           1
SMALL
USER_CHARGES
 
@<TRIPOS>ATOM
       1    C1      21.712583   15.967537   25.318404 C.2        1 MOL1         0.6168
       2    O1      22.592402   15.546776   24.593194 O.co2      1 MOL1        -0.6703
       3    O2      21.872980   16.212579   26.497954 O.co2      1 MOL1        -0.6703
       4    C2      20.324607   16.183181   24.721575 C.3        1 MOL1        -0.1963
       5    H1      19.598447   15.745618   25.416701 H          1 MOL1         0.0750
       6    H2      20.252479   15.613686   23.787068 H          1 MOL1         0.0750
       7    C3      19.968491   17.671720   24.470385 C.3        1 MOL1        -0.1860
       8    H3      18.908555   17.732372   24.193506 H          1 MOL1         0.0752
       9    H4      20.085346   18.236408   25.405730 H          1 MOL1         0.0752
      10    C4      20.836719   18.310627   23.359561 C.3        1 MOL1        -0.1858
      11    H5      20.684161   17.773283   22.413641 H          1 MOL1         0.0752
      12    H6      21.897506   18.186701   23.617150 H          1 MOL1         0.0752
      13    C5      20.562651   19.819148   23.149310 C.3        1 MOL1        -0.1858
      14    H7      20.696951   20.353201   24.099746 H          1 MOL1         0.0752
      15    H8      21.325372   20.208768   22.463290 H          1 MOL1         0.0752
      16    C6      19.155665   20.118231   22.575055 C.3        1 MOL1        -0.1858
      17    H9      18.390988   19.736099   23.262891 H          1 MOL1         0.0752
      18    H10     19.020077   19.579892   21.627203 H          1 MOL1         0.0752
      19    C7      18.889503   21.626084   22.355912 C.3        1 MOL1        -0.1834
      20    H11     17.833874   21.760160   22.082202 H          1 MOL1         0.0752
      21    H12     19.036360   22.169902   23.299308 H          1 MOL1         0.0752
      22    C8      19.769811   22.251541   21.251920 C.3        1 MOL1        -0.2849
      23    H13     20.829610   22.252248   21.535167 H          1 MOL1         0.0764
      24    H14     19.665429   21.701796   20.307465 H          1 MOL1         0.0764
      25    H15     19.474802   23.293175   21.070608 H          1 MOL1         0.0764
@<TRIPOS>BOND
    1     1     2    1
    2     1     3    2
    3     1     4    1
    4     4     5    1
    5     4     6    1
    6     4     7    1
    7     7     8    1
    8     7     9    1
    9     7    10    1
   10    10    11    1
   11    10    12    1
   12    10    13    1
   13    13    14    1
   14    13    15    1
   15    13    16    1
   16    16    17    1
   17    16    18    1
   18    16    19    1
   19    19    20    1
   20    19    21    1
   21    19    22    1
   22    22    23    1
   23    22    24    1
   24    22    25    1
@<TRIPOS>SUBSTRUCTURE
       1 MOL1            1 RESIDUE      1      MOL     
@<SCITEGIC>MOL_PROPERTY
VConf Rank
SciTegic.value.IntegerValue
25

@<SCITEGIC>MOL_PROPERTY
Conf_Id
SciTegic.value.IntegerValue
101

@<SCITEGIC>MOL_PROPERTY
Delta U+W
SciTegic.value.DoubleValue
1.534

@<SCITEGIC>MOL_PROPERTY
U+W
SciTegic.value.DoubleValue
-50.095

@<SCITEGIC>MOL_PROPERTY
Grad RMS
SciTegic.value.DoubleValue
0.000000

@<SCITEGIC>MOL_PROPERTY
U
SciTegic.value.DoubleValue
9.416

@<SCITEGIC>MOL_PROPERTY
W
SciTegic.value.DoubleValue
-59.512

@<SCITEGIC>MOL_PROPERTY
W(PB)
SciTegic.value.DoubleValue
-61.988

@<SCITEGIC>MOL_PROPERTY
W(SA)
SciTegic.value.DoubleValue
2.476

@<SCITEGIC>MOL_PROPERTY
Valence
SciTegic.value.DoubleValue
8.939

@<SCITEGIC>MOL_PROPERTY
Coulomb
SciTegic.value.DoubleValue
-0.615

@<SCITEGIC>MOL_PROPERTY
VdW
SciTegic.value.DoubleValue
1.092

@<SCITEGIC>MOL_PROPERTY
VdW6
SciTegic.value.DoubleValue
-9.710

@<SCITEGIC>MOL_PROPERTY
VdW12
SciTegic.value.DoubleValue
10.802

@<SCITEGIC>MOL_PROPERTY
Bond
SciTegic.value.DoubleValue
0.216

@<SCITEGIC>MOL_PROPERTY
Angle
SciTegic.value.DoubleValue
2.979

@<SCITEGIC>MOL_PROPERTY
Pdih
SciTegic.value.DoubleValue
5.743

@<SCITEGIC>MOL_PROPERTY
Idih
SciTegic.value.DoubleValue
0.000

@<SCITEGIC>MOL_PROPERTY
Tether
SciTegic.value.DoubleValue
0.000

@<TRIPOS>MOLECULE
guest-8_confgen4.mol2 : confsearch ligand conformer 26
          25          24           1
SMALL
USER_CHARGES
 
@<TRIPOS>ATOM
       1    C1      21.990036   16.643843   20.541547 C.2        1 MOL1         0.6168
       2    O1      22.162939   17.271733   19.515586 O.co2      1 MOL1        -0.6703
       3    O2      22.617596   15.644873   20.833103 O.co2      1 MOL1        -0.6703
       4    C2      20.943716   17.150025   21.528036 C.3        1 MOL1        -0.1963
       5    H1      20.518846   16.282893   22.047560 H          1 MOL1         0.0750
       6    H2      20.135991   17.610524   20.948481 H          1 MOL1         0.0750
       7    C3      21.525556   18.156700   22.554497 C.3        1 MOL1        -0.1860
       8    H3      22.393362   17.694991   23.045583 H          1 MOL1         0.0752
       9    H4      21.903799   19.043034   22.026628 H          1 MOL1         0.0752
      10    C4      20.514029   18.588442   23.643129 C.3        1 MOL1        -0.1858
      11    H5      21.055472   19.179381   24.392877 H          1 MOL1         0.0752
      12    H6      20.129982   17.700215   24.162866 H          1 MOL1         0.0752
      13    C5      19.332684   19.422702   23.089653 C.3        1 MOL1        -0.1858
      14    H7      19.716411   20.310780   22.570916 H          1 MOL1         0.0752
      15    H8      18.794742   18.837276   22.333603 H          1 MOL1         0.0752
      16    C6      18.310840   19.844610   24.176016 C.3        1 MOL1        -0.1858
      17    H9      17.874253   18.941214   24.623168 H          1 MOL1         0.0752
      18    H10     17.479823   20.372734   23.689019 H          1 MOL1         0.0752
      19    C7      18.872807   20.739665   25.308504 C.3        1 MOL1        -0.1834
      20    H11     18.058957   20.964975   26.011304 H          1 MOL1         0.0752
      21    H12     19.627814   20.191323   25.886974 H          1 MOL1         0.0752
      22    C8      19.470576   22.069056   24.799256 C.3        1 MOL1        -0.2849
      23    H13     18.739326   22.623595   24.196979 H          1 MOL1         0.0764
      24    H14     19.766831   22.705436   25.643068 H          1 MOL1         0.0764
      25    H15     20.362917   21.895101   24.184809 H          1 MOL1         0.0764
@<TRIPOS>BOND
    1     1     2    1
    2     1     3    2
    3     1     4    1
    4     4     5    1
    5     4     6    1
    6     4     7    1
    7     7     8    1
    8     7     9    1
    9     7    10    1
   10    10    11    1
   11    10    12    1
   12    10    13    1
   13    13    14    1
   14    13    15    1
   15    13    16    1
   16    16    17    1
   17    16    18    1
   18    16    19    1
   19    19    20    1
   20    19    21    1
   21    19    22    1
   22    22    23    1
   23    22    24    1
   24    22    25    1
@<TRIPOS>SUBSTRUCTURE
       1 MOL1            1 RESIDUE      1      MOL     
@<SCITEGIC>MOL_PROPERTY
VConf Rank
SciTegic.value.IntegerValue
26

@<SCITEGIC>MOL_PROPERTY
Conf_Id
SciTegic.value.IntegerValue
75

@<SCITEGIC>MOL_PROPERTY
Delta U+W
SciTegic.value.DoubleValue
1.014

@<SCITEGIC>MOL_PROPERTY
U+W
SciTegic.value.DoubleValue
-50.615

@<SCITEGIC>MOL_PROPERTY
Grad RMS
SciTegic.value.DoubleValue
0.000000

@<SCITEGIC>MOL_PROPERTY
U
SciTegic.value.DoubleValue
8.474

@<SCITEGIC>MOL_PROPERTY
W
SciTegic.value.DoubleValue
-59.089

@<SCITEGIC>MOL_PROPERTY
W(PB)
SciTegic.value.DoubleValue
-61.530

@<SCITEGIC>MOL_PROPERTY
W(SA)
SciTegic.value.DoubleValue
2.441

@<SCITEGIC>MOL_PROPERTY
Valence
SciTegic.value.DoubleValue
9.080

@<SCITEGIC>MOL_PROPERTY
Coulomb
SciTegic.value.DoubleValue
-1.772

@<SCITEGIC>MOL_PROPERTY
VdW
SciTegic.value.DoubleValue
1.165

@<SCITEGIC>MOL_PROPERTY
VdW6
SciTegic.value.DoubleValue
-9.830

@<SCITEGIC>MOL_PROPERTY
VdW12
SciTegic.value.DoubleValue
10.996

@<SCITEGIC>MOL_PROPERTY
Bond
SciTegic.value.DoubleValue
0.240

@<SCITEGIC>MOL_PROPERTY
Angle
SciTegic.value.DoubleValue
3.225

@<SCITEGIC>MOL_PROPERTY
Pdih
SciTegic.value.DoubleValue
5.615

@<SCITEGIC>MOL_PROPERTY
Idih
SciTegic.value.DoubleValue
0.001

@<SCITEGIC>MOL_PROPERTY
Tether
SciTegic.value.DoubleValue
0.000

@<TRIPOS>MOLECULE
guest-8_confgen4.mol2 : confsearch ligand conformer 27
          25          24           1
SMALL
USER_CHARGES
 
@<TRIPOS>ATOM
       1    C1      21.929411   15.751980   21.596549 C.2        1 MOL1         0.6168
       2    O1      22.978155   15.558008   22.178926 O.co2      1 MOL1        -0.6703
       3    O2      21.297850   14.877194   21.037487 O.co2      1 MOL1        -0.6703
       4    C2      21.363738   17.167593   21.584855 C.3        1 MOL1        -0.1963
       5    H1      20.822043   17.310270   20.642109 H          1 MOL1         0.0750
       6    H2      22.205311   17.870700   21.585006 H          1 MOL1         0.0750
       7    C3      20.429462   17.451983   22.786658 C.3        1 MOL1        -0.1860
       8    H3      19.599477   16.731863   22.779727 H          1 MOL1         0.0752
       9    H4      20.983117   17.291917   23.722276 H          1 MOL1         0.0752
      10    C4      19.871289   18.891240   22.752995 C.3        1 MOL1        -0.1858
      11    H5      19.319206   19.046777   21.816072 H          1 MOL1         0.0752
      12    H6      20.705024   19.603334   22.748559 H          1 MOL1         0.0752
      13    C5      18.934101   19.168354   23.952004 C.3        1 MOL1        -0.1858
      14    H7      18.097720   18.457698   23.903533 H          1 MOL1         0.0752
      15    H8      19.453573   18.965578   24.898498 H          1 MOL1         0.0752
      16    C6      18.356489   20.606657   23.960672 C.3        1 MOL1        -0.1858
      17    H9      17.326994   20.558677   24.341077 H          1 MOL1         0.0752
      18    H10     18.277672   20.991991   22.934933 H          1 MOL1         0.0752
      19    C7      19.134011   21.610430   24.847692 C.3        1 MOL1        -0.1834
      20    H11     18.595302   22.568008   24.844715 H          1 MOL1         0.0752
      21    H12     19.131573   21.260030   25.889062 H          1 MOL1         0.0752
      22    C8      20.587756   21.860079   24.395287 C.3        1 MOL1        -0.2849
      23    H13     20.627281   22.148067   23.336768 H          1 MOL1         0.0764
      24    H14     21.039292   22.669150   24.983737 H          1 MOL1         0.0764
      25    H15     21.205331   20.964470   24.537102 H          1 MOL1         0.0764
@<TRIPOS>BOND
    1     1     2    1
    2     1     3    2
    3     1     4    1
    4     4     5    1
    5     4     6    1
    6     4     7    1
    7     7     8    1
    8     7     9    1
    9     7    10    1
   10    10    11    1
   11    10    12    1
   12    10    13    1
   13    13    14    1
   14    13    15    1
   15    13    16    1
   16    16    17    1
   17    16    18    1
   18    16    19    1
   19    19    20    1
   20    19    21    1
   21    19    22    1
   22    22    23    1
   23    22    24    1
   24    22    25    1
@<TRIPOS>SUBSTRUCTURE
       1 MOL1            1 RESIDUE      1      MOL     
@<SCITEGIC>MOL_PROPERTY
VConf Rank
SciTegic.value.IntegerValue
27

@<SCITEGIC>MOL_PROPERTY
Conf_Id
SciTegic.value.IntegerValue
125

@<SCITEGIC>MOL_PROPERTY
Delta U+W
SciTegic.value.DoubleValue
2.314

@<SCITEGIC>MOL_PROPERTY
U+W
SciTegic.value.DoubleValue
-49.315

@<SCITEGIC>MOL_PROPERTY
Grad RMS
SciTegic.value.DoubleValue
0.000000

@<SCITEGIC>MOL_PROPERTY
U
SciTegic.value.DoubleValue
9.740

@<SCITEGIC>MOL_PROPERTY
W
SciTegic.value.DoubleValue
-59.054

@<SCITEGIC>MOL_PROPERTY
W(PB)
SciTegic.value.DoubleValue
-61.488

@<SCITEGIC>MOL_PROPERTY
W(SA)
SciTegic.value.DoubleValue
2.433

@<SCITEGIC>MOL_PROPERTY
Valence
SciTegic.value.DoubleValue
10.506

@<SCITEGIC>MOL_PROPERTY
Coulomb
SciTegic.value.DoubleValue
-1.761

@<SCITEGIC>MOL_PROPERTY
VdW
SciTegic.value.DoubleValue
0.994

@<SCITEGIC>MOL_PROPERTY
VdW6
SciTegic.value.DoubleValue
-9.209

@<SCITEGIC>MOL_PROPERTY
VdW12
SciTegic.value.DoubleValue
10.203

@<SCITEGIC>MOL_PROPERTY
Bond
SciTegic.value.DoubleValue
0.193

@<SCITEGIC>MOL_PROPERTY
Angle
SciTegic.value.DoubleValue
2.979

@<SCITEGIC>MOL_PROPERTY
Pdih
SciTegic.value.DoubleValue
7.334

@<SCITEGIC>MOL_PROPERTY
Idih
SciTegic.value.DoubleValue
0.001

@<SCITEGIC>MOL_PROPERTY
Tether
SciTegic.value.DoubleValue
0.000

@<TRIPOS>MOLECULE
guest-8_confgen4.mol2 : confsearch ligand conformer 28
          25          24           1
SMALL
USER_CHARGES
 
@<TRIPOS>ATOM
       1    C1      23.395306   21.356814   24.288424 C.2        1 MOL1         0.6168
       2    O1      24.301826   20.555201   24.399472 O.co2      1 MOL1        -0.6703
       3    O2      23.496649   22.532197   24.579882 O.co2      1 MOL1        -0.6703
       4    C2      22.049151   20.855440   23.778023 C.3        1 MOL1        -0.1963
       5    H1      22.244042   20.048914   23.062306 H          1 MOL1         0.0750
       6    H2      21.569127   21.672227   23.225944 H          1 MOL1         0.0750
       7    C3      21.121280   20.362526   24.918783 C.3        1 MOL1        -0.1860
       8    H3      21.592430   19.514171   25.434186 H          1 MOL1         0.0752
       9    H4      21.024087   21.163327   25.664919 H          1 MOL1         0.0752
      10    C4      19.707167   19.961034   24.435832 C.3        1 MOL1        -0.1858
      11    H5      19.235126   20.814162   23.929550 H          1 MOL1         0.0752
      12    H6      19.088278   19.740929   25.316423 H          1 MOL1         0.0752
      13    C5      19.703494   18.731818   23.497637 C.3        1 MOL1        -0.1858
      14    H7      20.262673   18.965601   22.583694 H          1 MOL1         0.0752
      15    H8      20.219933   17.895015   23.987142 H          1 MOL1         0.0752
      16    C6      18.264889   18.303734   23.125666 C.3        1 MOL1        -0.1858
      17    H9      17.761153   19.122549   22.593989 H          1 MOL1         0.0752
      18    H10     17.692570   18.132964   24.047693 H          1 MOL1         0.0752
      19    C7      18.207868   17.017902   22.268227 C.3        1 MOL1        -0.1834
      20    H11     18.706189   16.195266   22.799501 H          1 MOL1         0.0752
      21    H12     17.157031   16.719424   22.150416 H          1 MOL1         0.0752
      22    C8      18.835942   17.187785   20.867782 C.3        1 MOL1        -0.2849
      23    H13     19.915602   17.371801   20.932286 H          1 MOL1         0.0764
      24    H14     18.689374   16.279703   20.268783 H          1 MOL1         0.0764
      25    H15     18.374765   18.025908   20.329291 H          1 MOL1         0.0764
@<TRIPOS>BOND
    1     1     2    1
    2     1     3    2
    3     1     4    1
    4     4     5    1
    5     4     6    1
    6     4     7    1
    7     7     8    1
    8     7     9    1
    9     7    10    1
   10    10    11    1
   11    10    12    1
   12    10    13    1
   13    13    14    1
   14    13    15    1
   15    13    16    1
   16    16    17    1
   17    16    18    1
   18    16    19    1
   19    19    20    1
   20    19    21    1
   21    19    22    1
   22    22    23    1
   23    22    24    1
   24    22    25    1
@<TRIPOS>SUBSTRUCTURE
       1 MOL1            1 RESIDUE      1      MOL     
@<SCITEGIC>MOL_PROPERTY
VConf Rank
SciTegic.value.IntegerValue
28

@<SCITEGIC>MOL_PROPERTY
Conf_Id
SciTegic.value.IntegerValue
4

@<SCITEGIC>MOL_PROPERTY
Delta U+W
SciTegic.value.DoubleValue
0.189

@<SCITEGIC>MOL_PROPERTY
U+W
SciTegic.value.DoubleValue
-51.441

@<SCITEGIC>MOL_PROPERTY
Grad RMS
SciTegic.value.DoubleValue
0.000000

@<SCITEGIC>MOL_PROPERTY
U
SciTegic.value.DoubleValue
7.701

@<SCITEGIC>MOL_PROPERTY
W
SciTegic.value.DoubleValue
-59.141

@<SCITEGIC>MOL_PROPERTY
W(PB)
SciTegic.value.DoubleValue
-61.609

@<SCITEGIC>MOL_PROPERTY
W(SA)
SciTegic.value.DoubleValue
2.467

@<SCITEGIC>MOL_PROPERTY
Valence
SciTegic.value.DoubleValue
8.550

@<SCITEGIC>MOL_PROPERTY
Coulomb
SciTegic.value.DoubleValue
-1.988

@<SCITEGIC>MOL_PROPERTY
VdW
SciTegic.value.DoubleValue
1.139

@<SCITEGIC>MOL_PROPERTY
VdW6
SciTegic.value.DoubleValue
-8.988

@<SCITEGIC>MOL_PROPERTY
VdW12
SciTegic.value.DoubleValue
10.127

@<SCITEGIC>MOL_PROPERTY
Bond
SciTegic.value.DoubleValue
0.191

@<SCITEGIC>MOL_PROPERTY
Angle
SciTegic.value.DoubleValue
2.738

@<SCITEGIC>MOL_PROPERTY
Pdih
SciTegic.value.DoubleValue
5.621

@<SCITEGIC>MOL_PROPERTY
Idih
SciTegic.value.DoubleValue
0.001

@<SCITEGIC>MOL_PROPERTY
Tether
SciTegic.value.DoubleValue
0.000

@<TRIPOS>MOLECULE
guest-8_confgen4.mol2 : confsearch ligand conformer 29
          25          24           1
SMALL
USER_CHARGES
 
@<TRIPOS>ATOM
       1    C1      19.490394   22.835085   25.112943 C.2        1 MOL1         0.6168
       2    O1      18.614414   22.654606   25.935610 O.co2      1 MOL1        -0.6703
       3    O2      20.125292   23.867177   25.021122 O.co2      1 MOL1        -0.6703
       4    C2      19.827781   21.695316   24.158419 C.3        1 MOL1        -0.1963
       5    H1      20.161214   22.133326   23.210091 H          1 MOL1         0.0750
       6    H2      18.901652   21.145865   23.955663 H          1 MOL1         0.0750
       7    C3      20.916267   20.744539   24.720967 C.3        1 MOL1        -0.1860
       8    H3      21.795113   21.341610   25.001296 H          1 MOL1         0.0752
       9    H4      20.551917   20.276193   25.645754 H          1 MOL1         0.0752
      10    C4      21.359151   19.650698   23.720208 C.3        1 MOL1        -0.1858
      11    H5      22.207086   19.104067   24.155078 H          1 MOL1         0.0752
      12    H6      21.732055   20.122304   22.800695 H          1 MOL1         0.0752
      13    C5      20.237223   18.645265   23.371531 C.3        1 MOL1        -0.1858
      14    H7      19.832217   18.212129   24.296154 H          1 MOL1         0.0752
      15    H8      19.413671   19.171723   22.874309 H          1 MOL1         0.0752
      16    C6      20.752784   17.512556   22.453724 C.3        1 MOL1        -0.1858
      17    H9      21.617704   17.031373   22.930399 H          1 MOL1         0.0752
      18    H10     21.115721   17.938752   21.508461 H          1 MOL1         0.0752
      19    C7      19.690146   16.428481   22.158092 C.3        1 MOL1        -0.1834
      20    H11     20.168023   15.608585   21.604348 H          1 MOL1         0.0752
      21    H12     19.328659   15.996251   23.101391 H          1 MOL1         0.0752
      22    C8      18.493610   16.952785   21.334688 C.3        1 MOL1        -0.2849
      23    H13     18.833384   17.418407   20.400419 H          1 MOL1         0.0764
      24    H14     17.816260   16.129031   21.074837 H          1 MOL1         0.0764
      25    H15     17.913325   17.694061   21.898131 H          1 MOL1         0.0764
@<TRIPOS>BOND
    1     1     2    1
    2     1     3    2
    3     1     4    1
    4     4     5    1
    5     4     6    1
    6     4     7    1
    7     7     8    1
    8     7     9    1
    9     7    10    1
   10    10    11    1
   11    10    12    1
   12    10    13    1
   13    13    14    1
   14    13    15    1
   15    13    16    1
   16    16    17    1
   17    16    18    1
   18    16    19    1
   19    19    20    1
   20    19    21    1
   21    19    22    1
   22    22    23    1
   23    22    24    1
   24    22    25    1
@<TRIPOS>SUBSTRUCTURE
       1 MOL1            1 RESIDUE      1      MOL     
@<SCITEGIC>MOL_PROPERTY
VConf Rank
SciTegic.value.IntegerValue
29

@<SCITEGIC>MOL_PROPERTY
Conf_Id
SciTegic.value.IntegerValue
17

@<SCITEGIC>MOL_PROPERTY
Delta U+W
SciTegic.value.DoubleValue
0.219

@<SCITEGIC>MOL_PROPERTY
U+W
SciTegic.value.DoubleValue
-51.411

@<SCITEGIC>MOL_PROPERTY
Grad RMS
SciTegic.value.DoubleValue
0.000000

@<SCITEGIC>MOL_PROPERTY
U
SciTegic.value.DoubleValue
7.701

@<SCITEGIC>MOL_PROPERTY
W
SciTegic.value.DoubleValue
-59.111

@<SCITEGIC>MOL_PROPERTY
W(PB)
SciTegic.value.DoubleValue
-61.599

@<SCITEGIC>MOL_PROPERTY
W(SA)
SciTegic.value.DoubleValue
2.488

@<SCITEGIC>MOL_PROPERTY
Valence
SciTegic.value.DoubleValue
8.550

@<SCITEGIC>MOL_PROPERTY
Coulomb
SciTegic.value.DoubleValue
-1.988

@<SCITEGIC>MOL_PROPERTY
VdW
SciTegic.value.DoubleValue
1.139

@<SCITEGIC>MOL_PROPERTY
VdW6
SciTegic.value.DoubleValue
-8.988

@<SCITEGIC>MOL_PROPERTY
VdW12
SciTegic.value.DoubleValue
10.127

@<SCITEGIC>MOL_PROPERTY
Bond
SciTegic.value.DoubleValue
0.191

@<SCITEGIC>MOL_PROPERTY
Angle
SciTegic.value.DoubleValue
2.738

@<SCITEGIC>MOL_PROPERTY
Pdih
SciTegic.value.DoubleValue
5.621

@<SCITEGIC>MOL_PROPERTY
Idih
SciTegic.value.DoubleValue
0.001

@<SCITEGIC>MOL_PROPERTY
Tether
SciTegic.value.DoubleValue
0.000

@<TRIPOS>MOLECULE
guest-8_confgen4.mol2 : confsearch ligand conformer 30
          25          24           1
SMALL
USER_CHARGES
 
@<TRIPOS>ATOM
       1    C1      20.856732   16.004996   24.992590 C.2        1 MOL1         0.6168
       2    O1      19.879856   15.526911   25.535001 O.co2      1 MOL1        -0.6703
       3    O2      21.856444   16.351229   25.590733 O.co2      1 MOL1        -0.6703
       4    C2      20.836670   16.162220   23.474760 C.3        1 MOL1        -0.1963
       5    H1      20.064236   15.500525   23.064541 H          1 MOL1         0.0750
       6    H2      21.799131   15.800332   23.094381 H          1 MOL1         0.0750
       7    C3      20.604989   17.619010   22.996237 C.3        1 MOL1        -0.1860
       8    H3      21.377795   18.264188   23.434624 H          1 MOL1         0.0752
       9    H4      20.735588   17.661700   21.906564 H          1 MOL1         0.0752
      10    C4      19.196871   18.145637   23.363145 C.3        1 MOL1        -0.1858
      11    H5      19.081794   18.173554   24.455528 H          1 MOL1         0.0752
      12    H6      18.443116   17.438348   22.991067 H          1 MOL1         0.0752
      13    C5      18.890055   19.544163   22.776877 C.3        1 MOL1        -0.1858
      14    H7      18.995886   19.516484   21.683770 H          1 MOL1         0.0752
      15    H8      17.837472   19.783360   22.981115 H          1 MOL1         0.0752
      16    C6      19.781884   20.665199   23.359072 C.3        1 MOL1        -0.1858
      17    H9      20.832379   20.481570   23.098940 H          1 MOL1         0.0752
      18    H10     19.716092   20.654278   24.455633 H          1 MOL1         0.0752
      19    C7      19.367475   22.055244   22.832017 C.3        1 MOL1        -0.1834
      20    H11     19.430460   22.068910   21.735065 H          1 MOL1         0.0752
      21    H12     18.319048   22.253948   23.094204 H          1 MOL1         0.0752
      22    C8      20.260050   23.171628   23.410566 C.3        1 MOL1        -0.2849
      23    H13     21.311601   23.015653   23.136165 H          1 MOL1         0.0764
      24    H14     19.951297   24.152313   23.025877 H          1 MOL1         0.0764
      25    H15     20.192282   23.200531   24.505990 H          1 MOL1         0.0764
@<TRIPOS>BOND
    1     1     2    1
    2     1     3    2
    3     1     4    1
    4     4     5    1
    5     4     6    1
    6     4     7    1
    7     7     8    1
    8     7     9    1
    9     7    10    1
   10    10    11    1
   11    10    12    1
   12    10    13    1
   13    13    14    1
   14    13    15    1
   15    13    16    1
   16    16    17    1
   17    16    18    1
   18    16    19    1
   19    19    20    1
   20    19    21    1
   21    19    22    1
   22    22    23    1
   23    22    24    1
   24    22    25    1
@<TRIPOS>SUBSTRUCTURE
       1 MOL1            1 RESIDUE      1      MOL     
@<SCITEGIC>MOL_PROPERTY
VConf Rank
SciTegic.value.IntegerValue
30

@<SCITEGIC>MOL_PROPERTY
Conf_Id
SciTegic.value.IntegerValue
142

@<SCITEGIC>MOL_PROPERTY
Delta U+W
SciTegic.value.DoubleValue
0.593

@<SCITEGIC>MOL_PROPERTY
U+W
SciTegic.value.DoubleValue
-51.037

@<SCITEGIC>MOL_PROPERTY
Grad RMS
SciTegic.value.DoubleValue
0.000000

@<SCITEGIC>MOL_PROPERTY
U
SciTegic.value.DoubleValue
8.903

@<SCITEGIC>MOL_PROPERTY
W
SciTegic.value.DoubleValue
-59.940

@<SCITEGIC>MOL_PROPERTY
W(PB)
SciTegic.value.DoubleValue
-62.418

@<SCITEGIC>MOL_PROPERTY
W(SA)
SciTegic.value.DoubleValue
2.478

@<SCITEGIC>MOL_PROPERTY
Valence
SciTegic.value.DoubleValue
8.305

@<SCITEGIC>MOL_PROPERTY
Coulomb
SciTegic.value.DoubleValue
-0.223

@<SCITEGIC>MOL_PROPERTY
VdW
SciTegic.value.DoubleValue
0.821

@<SCITEGIC>MOL_PROPERTY
VdW6
SciTegic.value.DoubleValue
-9.236

@<SCITEGIC>MOL_PROPERTY
VdW12
SciTegic.value.DoubleValue
10.057

@<SCITEGIC>MOL_PROPERTY
Bond
SciTegic.value.DoubleValue
0.173

@<SCITEGIC>MOL_PROPERTY
Angle
SciTegic.value.DoubleValue
2.663

@<SCITEGIC>MOL_PROPERTY
Pdih
SciTegic.value.DoubleValue
5.469

@<SCITEGIC>MOL_PROPERTY
Idih
SciTegic.value.DoubleValue
0.001

@<SCITEGIC>MOL_PROPERTY
Tether
SciTegic.value.DoubleValue
0.000

@<TRIPOS>MOLECULE
guest-8_confgen4.mol2 : confsearch ligand conformer 31
          25          24           1
SMALL
USER_CHARGES
 
@<TRIPOS>ATOM
       1    C1      20.208941   22.456070   22.137774 C.2        1 MOL1         0.6168
       2    O1      19.694886   23.084727   21.233287 O.co2      1 MOL1        -0.6703
       3    O2      20.315230   22.876908   23.272963 O.co2      1 MOL1        -0.6703
       4    C2      20.775467   21.074832   21.821281 C.3        1 MOL1        -0.1963
       5    H1      21.433800   20.768454   22.642274 H          1 MOL1         0.0750
       6    H2      21.412027   21.178483   20.934960 H          1 MOL1         0.0750
       7    C3      19.694404   19.992146   21.554402 C.3        1 MOL1        -0.1860
       8    H3      19.097401   20.298018   20.684225 H          1 MOL1         0.0752
       9    H4      20.185727   19.053722   21.266634 H          1 MOL1         0.0752
      10    C4      18.736632   19.735562   22.746661 C.3        1 MOL1        -0.1858
      11    H5      18.011169   18.963546   22.456329 H          1 MOL1         0.0752
      12    H6      18.149573   20.644802   22.935685 H          1 MOL1         0.0752
      13    C5      19.423804   19.306927   24.067416 C.3        1 MOL1        -0.1858
      14    H7      20.069957   20.116669   24.432054 H          1 MOL1         0.0752
      15    H8      18.647111   19.171909   24.832302 H          1 MOL1         0.0752
      16    C6      20.239985   17.999560   23.943699 C.3        1 MOL1        -0.1858
      17    H9      21.066468   18.141224   23.235206 H          1 MOL1         0.0752
      18    H10     19.600290   17.204474   23.537124 H          1 MOL1         0.0752
      19    C7      20.814006   17.554575   25.305288 C.3        1 MOL1        -0.1834
      20    H11     21.452206   18.349737   25.715036 H          1 MOL1         0.0752
      21    H12     19.994559   17.401966   26.021242 H          1 MOL1         0.0752
      22    C8      21.632734   16.254008   25.179178 C.3        1 MOL1        -0.2849
      23    H13     22.479098   16.387760   24.492779 H          1 MOL1         0.0764
      24    H14     22.032849   15.952432   26.155905 H          1 MOL1         0.0764
      25    H15     21.010017   15.433252   24.799788 H          1 MOL1         0.0764
@<TRIPOS>BOND
    1     1     2    1
    2     1     3    2
    3     1     4    1
    4     4     5    1
    5     4     6    1
    6     4     7    1
    7     7     8    1
    8     7     9    1
    9     7    10    1
   10    10    11    1
   11    10    12    1
   12    10    13    1
   13    13    14    1
   14    13    15    1
   15    13    16    1
   16    16    17    1
   17    16    18    1
   18    16    19    1
   19    19    20    1
   20    19    21    1
   21    19    22    1
   22    22    23    1
   23    22    24    1
   24    22    25    1
@<TRIPOS>SUBSTRUCTURE
       1 MOL1            1 RESIDUE      1      MOL     
@<SCITEGIC>MOL_PROPERTY
VConf Rank
SciTegic.value.IntegerValue
31

@<SCITEGIC>MOL_PROPERTY
Conf_Id
SciTegic.value.IntegerValue
135

@<SCITEGIC>MOL_PROPERTY
Delta U+W
SciTegic.value.DoubleValue
1.314

@<SCITEGIC>MOL_PROPERTY
U+W
SciTegic.value.DoubleValue
-50.316

@<SCITEGIC>MOL_PROPERTY
Grad RMS
SciTegic.value.DoubleValue
0.000000

@<SCITEGIC>MOL_PROPERTY
U
SciTegic.value.DoubleValue
9.773

@<SCITEGIC>MOL_PROPERTY
W
SciTegic.value.DoubleValue
-60.088

@<SCITEGIC>MOL_PROPERTY
W(PB)
SciTegic.value.DoubleValue
-62.535

@<SCITEGIC>MOL_PROPERTY
W(SA)
SciTegic.value.DoubleValue
2.447

@<SCITEGIC>MOL_PROPERTY
Valence
SciTegic.value.DoubleValue
8.741

@<SCITEGIC>MOL_PROPERTY
Coulomb
SciTegic.value.DoubleValue
0.479

@<SCITEGIC>MOL_PROPERTY
VdW
SciTegic.value.DoubleValue
0.552

@<SCITEGIC>MOL_PROPERTY
VdW6
SciTegic.value.DoubleValue
-10.627

@<SCITEGIC>MOL_PROPERTY
VdW12
SciTegic.value.DoubleValue
11.179

@<SCITEGIC>MOL_PROPERTY
Bond
SciTegic.value.DoubleValue
0.227

@<SCITEGIC>MOL_PROPERTY
Angle
SciTegic.value.DoubleValue
3.155

@<SCITEGIC>MOL_PROPERTY
Pdih
SciTegic.value.DoubleValue
5.358

@<SCITEGIC>MOL_PROPERTY
Idih
SciTegic.value.DoubleValue
0.001

@<SCITEGIC>MOL_PROPERTY
Tether
SciTegic.value.DoubleValue
0.000

@<TRIPOS>MOLECULE
guest-8_confgen4.mol2 : confsearch ligand conformer 32
          25          24           1
SMALL
USER_CHARGES
 
@<TRIPOS>ATOM
       1    C1      17.734891   18.788004   19.790193 C.2        1 MOL1         0.6168
       2    O1      16.788267   18.039336   19.932114 O.co2      1 MOL1        -0.6703
       3    O2      17.809454   19.618601   18.906270 O.co2      1 MOL1        -0.6703
       4    C2      18.882250   18.695686   20.789807 C.3        1 MOL1        -0.1963
       5    H1      19.809230   18.962754   20.268530 H          1 MOL1         0.0750
       6    H2      18.971703   17.647855   21.096759 H          1 MOL1         0.0750
       7    C3      18.677966   19.614422   22.022698 C.3        1 MOL1        -0.1860
       8    H3      18.495032   20.638682   21.669327 H          1 MOL1         0.0752
       9    H4      17.772841   19.307736   22.564891 H          1 MOL1         0.0752
      10    C4      19.886235   19.634916   22.989446 C.3        1 MOL1        -0.1858
      11    H5      19.708723   20.422031   23.733037 H          1 MOL1         0.0752
      12    H6      20.794540   19.917288   22.440059 H          1 MOL1         0.0752
      13    C5      20.112003   18.291249   23.722965 C.3        1 MOL1        -0.1858
      14    H7      19.220950   18.046160   24.316726 H          1 MOL1         0.0752
      15    H8      20.223349   17.485343   22.987037 H          1 MOL1         0.0752
      16    C6      21.361970   18.270001   24.638715 C.3        1 MOL1        -0.1858
      17    H9      22.269987   18.421184   24.039086 H          1 MOL1         0.0752
      18    H10     21.446957   17.257921   25.057455 H          1 MOL1         0.0752
      19    C7      21.322441   19.276323   25.815981 C.3        1 MOL1        -0.1834
      20    H11     20.282714   19.498663   26.093050 H          1 MOL1         0.0752
      21    H12     21.778622   18.804637   26.697295 H          1 MOL1         0.0752
      22    C8      22.090807   20.584407   25.523070 C.3        1 MOL1        -0.2849
      23    H13     21.680015   21.113689   24.655759 H          1 MOL1         0.0764
      24    H14     22.038686   21.261754   26.385214 H          1 MOL1         0.0764
      25    H15     23.150081   20.377736   25.322303 H          1 MOL1         0.0764
@<TRIPOS>BOND
    1     1     2    1
    2     1     3    2
    3     1     4    1
    4     4     5    1
    5     4     6    1
    6     4     7    1
    7     7     8    1
    8     7     9    1
    9     7    10    1
   10    10    11    1
   11    10    12    1
   12    10    13    1
   13    13    14    1
   14    13    15    1
   15    13    16    1
   16    16    17    1
   17    16    18    1
   18    16    19    1
   19    19    20    1
   20    19    21    1
   21    19    22    1
   22    22    23    1
   23    22    24    1
   24    22    25    1
@<TRIPOS>SUBSTRUCTURE
       1 MOL1            1 RESIDUE      1      MOL     
@<SCITEGIC>MOL_PROPERTY
VConf Rank
SciTegic.value.IntegerValue
32

@<SCITEGIC>MOL_PROPERTY
Conf_Id
SciTegic.value.IntegerValue
19

@<SCITEGIC>MOL_PROPERTY
Delta U+W
SciTegic.value.DoubleValue
3.222

@<SCITEGIC>MOL_PROPERTY
U+W
SciTegic.value.DoubleValue
-48.407

@<SCITEGIC>MOL_PROPERTY
Grad RMS
SciTegic.value.DoubleValue
0.000000

@<SCITEGIC>MOL_PROPERTY
U
SciTegic.value.DoubleValue
10.617

@<SCITEGIC>MOL_PROPERTY
W
SciTegic.value.DoubleValue
-59.025

@<SCITEGIC>MOL_PROPERTY
W(PB)
SciTegic.value.DoubleValue
-61.462

@<SCITEGIC>MOL_PROPERTY
W(SA)
SciTegic.value.DoubleValue
2.437

@<SCITEGIC>MOL_PROPERTY
Valence
SciTegic.value.DoubleValue
11.188

@<SCITEGIC>MOL_PROPERTY
Coulomb
SciTegic.value.DoubleValue
-1.778

@<SCITEGIC>MOL_PROPERTY
VdW
SciTegic.value.DoubleValue
1.208

@<SCITEGIC>MOL_PROPERTY
VdW6
SciTegic.value.DoubleValue
-9.786

@<SCITEGIC>MOL_PROPERTY
VdW12
SciTegic.value.DoubleValue
10.993

@<SCITEGIC>MOL_PROPERTY
Bond
SciTegic.value.DoubleValue
0.241

@<SCITEGIC>MOL_PROPERTY
Angle
SciTegic.value.DoubleValue
3.294

@<SCITEGIC>MOL_PROPERTY
Pdih
SciTegic.value.DoubleValue
7.653

@<SCITEGIC>MOL_PROPERTY
Idih
SciTegic.value.DoubleValue
0.001

@<SCITEGIC>MOL_PROPERTY
Tether
SciTegic.value.DoubleValue
0.000

@<TRIPOS>MOLECULE
guest-8_confgen4.mol2 : confsearch ligand conformer 33
          25          24           1
SMALL
USER_CHARGES
 
@<TRIPOS>ATOM
       1    C1      17.425608   20.034270   20.106835 C.2        1 MOL1         0.6168
       2    O1      17.907661   19.865408   19.004178 O.co2      1 MOL1        -0.6703
       3    O2      16.440250   20.714785   20.313570 O.co2      1 MOL1        -0.6703
       4    C2      18.108280   19.374946   21.299912 C.3        1 MOL1        -0.1963
       5    H1      18.532118   18.424846   20.956627 H          1 MOL1         0.0750
       6    H2      17.338221   19.138324   22.043798 H          1 MOL1         0.0750
       7    C3      19.205783   20.270256   21.932156 C.3        1 MOL1        -0.1860
       8    H3      19.996181   20.461589   21.193274 H          1 MOL1         0.0752
       9    H4      18.764391   21.247221   22.173317 H          1 MOL1         0.0752
      10    C4      19.825225   19.677646   23.220582 C.3        1 MOL1        -0.1858
      11    H5      19.030669   19.463724   23.948249 H          1 MOL1         0.0752
      12    H6      20.466855   20.446206   23.669597 H          1 MOL1         0.0752
      13    C5      20.666196   18.402968   22.970729 C.3        1 MOL1        -0.1858
      14    H7      20.051198   17.651537   22.460232 H          1 MOL1         0.0752
      15    H8      21.493453   18.640323   22.288157 H          1 MOL1         0.0752
      16    C6      21.232473   17.753370   24.258683 C.3        1 MOL1        -0.1858
      17    H9      21.759278   16.836309   23.961450 H          1 MOL1         0.0752
      18    H10     20.409000   17.426316   24.908170 H          1 MOL1         0.0752
      19    C7      22.222601   18.641312   25.053296 C.3        1 MOL1        -0.1834
      20    H11     23.020473   18.003272   25.457779 H          1 MOL1         0.0752
      21    H12     22.715930   19.357640   24.381927 H          1 MOL1         0.0752
      22    C8      21.559241   19.383268   26.235125 C.3        1 MOL1        -0.2849
      23    H13     21.131828   18.670544   26.952357 H          1 MOL1         0.0764
      24    H14     22.298780   19.993834   26.769070 H          1 MOL1         0.0764
      25    H15     20.754954   20.048058   25.900020 H          1 MOL1         0.0764
@<TRIPOS>BOND
    1     1     2    1
    2     1     3    2
    3     1     4    1
    4     4     5    1
    5     4     6    1
    6     4     7    1
    7     7     8    1
    8     7     9    1
    9     7    10    1
   10    10    11    1
   11    10    12    1
   12    10    13    1
   13    13    14    1
   14    13    15    1
   15    13    16    1
   16    16    17    1
   17    16    18    1
   18    16    19    1
   19    19    20    1
   20    19    21    1
   21    19    22    1
   22    22    23    1
   23    22    24    1
   24    22    25    1
@<TRIPOS>SUBSTRUCTURE
       1 MOL1            1 RESIDUE      1      MOL     
@<SCITEGIC>MOL_PROPERTY
VConf Rank
SciTegic.value.IntegerValue
33

@<SCITEGIC>MOL_PROPERTY
Conf_Id
SciTegic.value.IntegerValue
20

@<SCITEGIC>MOL_PROPERTY
Delta U+W
SciTegic.value.DoubleValue
3.224

@<SCITEGIC>MOL_PROPERTY
U+W
SciTegic.value.DoubleValue
-48.406

@<SCITEGIC>MOL_PROPERTY
Grad RMS
SciTegic.value.DoubleValue
0.000000

@<SCITEGIC>MOL_PROPERTY
U
SciTegic.value.DoubleValue
10.617

@<SCITEGIC>MOL_PROPERTY
W
SciTegic.value.DoubleValue
-59.023

@<SCITEGIC>MOL_PROPERTY
W(PB)
SciTegic.value.DoubleValue
-61.467

@<SCITEGIC>MOL_PROPERTY
W(SA)
SciTegic.value.DoubleValue
2.444

@<SCITEGIC>MOL_PROPERTY
Valence
SciTegic.value.DoubleValue
11.188

@<SCITEGIC>MOL_PROPERTY
Coulomb
SciTegic.value.DoubleValue
-1.778

@<SCITEGIC>MOL_PROPERTY
VdW
SciTegic.value.DoubleValue
1.208

@<SCITEGIC>MOL_PROPERTY
VdW6
SciTegic.value.DoubleValue
-9.786

@<SCITEGIC>MOL_PROPERTY
VdW12
SciTegic.value.DoubleValue
10.993

@<SCITEGIC>MOL_PROPERTY
Bond
SciTegic.value.DoubleValue
0.241

@<SCITEGIC>MOL_PROPERTY
Angle
SciTegic.value.DoubleValue
3.294

@<SCITEGIC>MOL_PROPERTY
Pdih
SciTegic.value.DoubleValue
7.653

@<SCITEGIC>MOL_PROPERTY
Idih
SciTegic.value.DoubleValue
0.001

@<SCITEGIC>MOL_PROPERTY
Tether
SciTegic.value.DoubleValue
0.000

@<TRIPOS>MOLECULE
guest-8_confgen4.mol2 : confsearch ligand conformer 34
          25          24           1
SMALL
USER_CHARGES
 
@<TRIPOS>ATOM
       1    C1      21.277783   18.583037   26.368576 C.2        1 MOL1         0.6168
       2    O1      20.486189   18.914710   27.229400 O.co2      1 MOL1        -0.6703
       3    O2      22.256256   19.238705   26.068729 O.co2      1 MOL1        -0.6703
       4    C2      21.070238   17.239767   25.671481 C.3        1 MOL1        -0.1963
       5    H1      21.162399   16.472100   26.448437 H          1 MOL1         0.0750
       6    H2      21.893552   17.073059   24.966392 H          1 MOL1         0.0750
       7    C3      19.702394   17.069955   24.952262 C.3        1 MOL1        -0.1860
       8    H3      19.519557   15.994896   24.820932 H          1 MOL1         0.0752
       9    H4      18.892004   17.437423   25.597109 H          1 MOL1         0.0752
      10    C4      19.614728   17.737065   23.557140 C.3        1 MOL1        -0.1858
      11    H5      18.671815   17.424938   23.087595 H          1 MOL1         0.0752
      12    H6      20.420208   17.356749   22.914181 H          1 MOL1         0.0752
      13    C5      19.664185   19.281382   23.592783 C.3        1 MOL1        -0.1858
      14    H7      18.927413   19.657493   24.315799 H          1 MOL1         0.0752
      15    H8      20.651407   19.614824   23.936603 H          1 MOL1         0.0752
      16    C6      19.385070   19.894062   22.203075 C.3        1 MOL1        -0.1858
      17    H9      18.394658   19.573643   21.851817 H          1 MOL1         0.0752
      18    H10     20.119747   19.513102   21.480475 H          1 MOL1         0.0752
      19    C7      19.445496   21.435715   22.235179 C.3        1 MOL1        -0.1834
      20    H11     18.711112   21.820024   22.956598 H          1 MOL1         0.0752
      21    H12     20.435607   21.760083   22.584563 H          1 MOL1         0.0752
      22    C8      19.166976   22.044623   20.846177 C.3        1 MOL1        -0.2849
      23    H13     18.169154   21.761596   20.486153 H          1 MOL1         0.0764
      24    H14     19.214040   23.140581   20.887698 H          1 MOL1         0.0764
      25    H15     19.906823   21.701188   20.111294 H          1 MOL1         0.0764
@<TRIPOS>BOND
    1     1     2    1
    2     1     3    2
    3     1     4    1
    4     4     5    1
    5     4     6    1
    6     4     7    1
    7     7     8    1
    8     7     9    1
    9     7    10    1
   10    10    11    1
   11    10    12    1
   12    10    13    1
   13    13    14    1
   14    13    15    1
   15    13    16    1
   16    16    17    1
   17    16    18    1
   18    16    19    1
   19    19    20    1
   20    19    21    1
   21    19    22    1
   22    22    23    1
   23    22    24    1
   24    22    25    1
@<TRIPOS>SUBSTRUCTURE
       1 MOL1            1 RESIDUE      1      MOL     
@<SCITEGIC>MOL_PROPERTY
VConf Rank
SciTegic.value.IntegerValue
34

@<SCITEGIC>MOL_PROPERTY
Conf_Id
SciTegic.value.IntegerValue
24

@<SCITEGIC>MOL_PROPERTY
Delta U+W
SciTegic.value.DoubleValue
1.784

@<SCITEGIC>MOL_PROPERTY
U+W
SciTegic.value.DoubleValue
-49.846

@<SCITEGIC>MOL_PROPERTY
Grad RMS
SciTegic.value.DoubleValue
0.000000

@<SCITEGIC>MOL_PROPERTY
U
SciTegic.value.DoubleValue
10.904

@<SCITEGIC>MOL_PROPERTY
W
SciTegic.value.DoubleValue
-60.749

@<SCITEGIC>MOL_PROPERTY
W(PB)
SciTegic.value.DoubleValue
-63.220

@<SCITEGIC>MOL_PROPERTY
W(SA)
SciTegic.value.DoubleValue
2.471

@<SCITEGIC>MOL_PROPERTY
Valence
SciTegic.value.DoubleValue
9.445

@<SCITEGIC>MOL_PROPERTY
Coulomb
SciTegic.value.DoubleValue
0.780

@<SCITEGIC>MOL_PROPERTY
VdW
SciTegic.value.DoubleValue
0.679

@<SCITEGIC>MOL_PROPERTY
VdW6
SciTegic.value.DoubleValue
-10.008

@<SCITEGIC>MOL_PROPERTY
VdW12
SciTegic.value.DoubleValue
10.687

@<SCITEGIC>MOL_PROPERTY
Bond
SciTegic.value.DoubleValue
0.201

@<SCITEGIC>MOL_PROPERTY
Angle
SciTegic.value.DoubleValue
3.198

@<SCITEGIC>MOL_PROPERTY
Pdih
SciTegic.value.DoubleValue
6.039

@<SCITEGIC>MOL_PROPERTY
Idih
SciTegic.value.DoubleValue
0.006

@<SCITEGIC>MOL_PROPERTY
Tether
SciTegic.value.DoubleValue
0.000

@<TRIPOS>MOLECULE
guest-8_confgen4.mol2 : confsearch ligand conformer 35
          25          24           1
SMALL
USER_CHARGES
 
@<TRIPOS>ATOM
       1    C1      18.431059   20.711432   25.661027 C.2        1 MOL1         0.6168
       2    O1      19.064533   21.728348   25.866541 O.co2      1 MOL1        -0.6703
       3    O2      17.458204   20.662730   24.934117 O.co2      1 MOL1        -0.6703
       4    C2      18.836908   19.441354   26.406397 C.3        1 MOL1        -0.1963
       5    H1      18.137315   18.637293   26.147858 H          1 MOL1         0.0750
       6    H2      18.693642   19.650947   27.472705 H          1 MOL1         0.0750
       7    C3      20.302056   18.975758   26.174737 C.3        1 MOL1        -0.1860
       8    H3      20.982202   19.836994   26.231908 H          1 MOL1         0.0752
       9    H4      20.582811   18.313919   27.005143 H          1 MOL1         0.0752
      10    C4      20.536395   18.200894   24.854223 C.3        1 MOL1        -0.1858
      11    H5      19.862034   17.334849   24.809066 H          1 MOL1         0.0752
      12    H6      21.557582   17.796115   24.871974 H          1 MOL1         0.0752
      13    C5      20.364781   19.059535   23.580681 C.3        1 MOL1        -0.1858
      14    H7      19.316119   19.364951   23.475624 H          1 MOL1         0.0752
      15    H8      20.960172   19.978327   23.672206 H          1 MOL1         0.0752
      16    C6      20.791541   18.290459   22.311442 C.3        1 MOL1        -0.1858
      17    H9      20.198560   17.369698   22.224249 H          1 MOL1         0.0752
      18    H10     21.843425   17.986514   22.401569 H          1 MOL1         0.0752
      19    C7      20.609751   19.142947   21.038026 C.3        1 MOL1        -0.1834
      20    H11     19.558108   19.447448   20.943524 H          1 MOL1         0.0752
      21    H12     21.202273   20.064552   21.121809 H          1 MOL1         0.0752
      22    C8      21.036248   18.372372   19.772332 C.3        1 MOL1        -0.2849
      23    H13     20.437158   17.460926   19.646908 H          1 MOL1         0.0764
      24    H14     20.900258   18.993162   18.877239 H          1 MOL1         0.0764
      25    H15     22.093874   18.082779   19.826511 H          1 MOL1         0.0764
@<TRIPOS>BOND
    1     1     2    1
    2     1     3    2
    3     1     4    1
    4     4     5    1
    5     4     6    1
    6     4     7    1
    7     7     8    1
    8     7     9    1
    9     7    10    1
   10    10    11    1
   11    10    12    1
   12    10    13    1
   13    13    14    1
   14    13    15    1
   15    13    16    1
   16    16    17    1
   17    16    18    1
   18    16    19    1
   19    19    20    1
   20    19    21    1
   21    19    22    1
   22    22    23    1
   23    22    24    1
   24    22    25    1
@<TRIPOS>SUBSTRUCTURE
       1 MOL1            1 RESIDUE      1      MOL     
@<SCITEGIC>MOL_PROPERTY
VConf Rank
SciTegic.value.IntegerValue
35

@<SCITEGIC>MOL_PROPERTY
Conf_Id
SciTegic.value.IntegerValue
9

@<SCITEGIC>MOL_PROPERTY
Delta U+W
SciTegic.value.DoubleValue
1.764

@<SCITEGIC>MOL_PROPERTY
U+W
SciTegic.value.DoubleValue
-49.865

@<SCITEGIC>MOL_PROPERTY
Grad RMS
SciTegic.value.DoubleValue
0.000000

@<SCITEGIC>MOL_PROPERTY
U
SciTegic.value.DoubleValue
10.902

@<SCITEGIC>MOL_PROPERTY
W
SciTegic.value.DoubleValue
-60.768

@<SCITEGIC>MOL_PROPERTY
W(PB)
SciTegic.value.DoubleValue
-63.223

@<SCITEGIC>MOL_PROPERTY
W(SA)
SciTegic.value.DoubleValue
2.456

@<SCITEGIC>MOL_PROPERTY
Valence
SciTegic.value.DoubleValue
9.445

@<SCITEGIC>MOL_PROPERTY
Coulomb
SciTegic.value.DoubleValue
0.778

@<SCITEGIC>MOL_PROPERTY
VdW
SciTegic.value.DoubleValue
0.679

@<SCITEGIC>MOL_PROPERTY
VdW6
SciTegic.value.DoubleValue
-10.007

@<SCITEGIC>MOL_PROPERTY
VdW12
SciTegic.value.DoubleValue
10.687

@<SCITEGIC>MOL_PROPERTY
Bond
SciTegic.value.DoubleValue
0.201

@<SCITEGIC>MOL_PROPERTY
Angle
SciTegic.value.DoubleValue
3.198

@<SCITEGIC>MOL_PROPERTY
Pdih
SciTegic.value.DoubleValue
6.040

@<SCITEGIC>MOL_PROPERTY
Idih
SciTegic.value.DoubleValue
0.006

@<SCITEGIC>MOL_PROPERTY
Tether
SciTegic.value.DoubleValue
0.000

@<TRIPOS>MOLECULE
guest-8_confgen4.mol2 : confsearch ligand conformer 36
          25          24           1
SMALL
USER_CHARGES
 
@<TRIPOS>ATOM
       1    C1      21.889416   21.877509   21.767748 C.2        1 MOL1         0.6168
       2    O1      21.802379   22.579875   22.755529 O.co2      1 MOL1        -0.6703
       3    O2      22.670002   22.086043   20.859978 O.co2      1 MOL1        -0.6703
       4    C2      20.983543   20.655315   21.671035 C.3        1 MOL1        -0.1963
       5    H1      20.746018   20.493692   20.612868 H          1 MOL1         0.0750
       6    H2      20.042843   20.895365   22.175932 H          1 MOL1         0.0750
       7    C3      21.631687   19.379706   22.271349 C.3        1 MOL1        -0.1860
       8    H3      22.563887   19.184899   21.723178 H          1 MOL1         0.0752
       9    H4      21.923285   19.558948   23.315503 H          1 MOL1         0.0752
      10    C4      20.728771   18.123651   22.174613 C.3        1 MOL1        -0.1858
      11    H5      21.374302   17.252094   21.999692 H          1 MOL1         0.0752
      12    H6      20.074237   18.191161   21.294916 H          1 MOL1         0.0752
      13    C5      19.888498   17.832258   23.443388 C.3        1 MOL1        -0.1858
      14    H7      19.357582   16.882226   23.294664 H          1 MOL1         0.0752
      15    H8      20.565733   17.678182   24.293705 H          1 MOL1         0.0752
      16    C6      18.858715   18.933417   23.790041 C.3        1 MOL1        -0.1858
      17    H9      18.287727   19.188762   22.887174 H          1 MOL1         0.0752
      18    H10     19.382422   19.845535   24.104717 H          1 MOL1         0.0752
      19    C7      17.865892   18.515041   24.899454 C.3        1 MOL1        -0.1834
      20    H11     17.112974   19.306666   25.016112 H          1 MOL1         0.0752
      21    H12     17.321431   17.612450   24.589415 H          1 MOL1         0.0752
      22    C8      18.545380   18.268504   26.263947 C.3        1 MOL1        -0.2849
      23    H13     19.117189   19.149735   26.582712 H          1 MOL1         0.0764
      24    H14     17.793397   18.056189   27.034852 H          1 MOL1         0.0764
      25    H15     19.229042   17.411387   26.221182 H          1 MOL1         0.0764
@<TRIPOS>BOND
    1     1     2    1
    2     1     3    2
    3     1     4    1
    4     4     5    1
    5     4     6    1
    6     4     7    1
    7     7     8    1
    8     7     9    1
    9     7    10    1
   10    10    11    1
   11    10    12    1
   12    10    13    1
   13    13    14    1
   14    13    15    1
   15    13    16    1
   16    16    17    1
   17    16    18    1
   18    16    19    1
   19    19    20    1
   20    19    21    1
   21    19    22    1
   22    22    23    1
   23    22    24    1
   24    22    25    1
@<TRIPOS>SUBSTRUCTURE
       1 MOL1            1 RESIDUE      1      MOL     
@<SCITEGIC>MOL_PROPERTY
VConf Rank
SciTegic.value.IntegerValue
36

@<SCITEGIC>MOL_PROPERTY
Conf_Id
SciTegic.value.IntegerValue
89

@<SCITEGIC>MOL_PROPERTY
Delta U+W
SciTegic.value.DoubleValue
2.903

@<SCITEGIC>MOL_PROPERTY
U+W
SciTegic.value.DoubleValue
-48.726

@<SCITEGIC>MOL_PROPERTY
Grad RMS
SciTegic.value.DoubleValue
0.000000

@<SCITEGIC>MOL_PROPERTY
U
SciTegic.value.DoubleValue
10.996

@<SCITEGIC>MOL_PROPERTY
W
SciTegic.value.DoubleValue
-59.723

@<SCITEGIC>MOL_PROPERTY
W(PB)
SciTegic.value.DoubleValue
-62.151

@<SCITEGIC>MOL_PROPERTY
W(SA)
SciTegic.value.DoubleValue
2.428

@<SCITEGIC>MOL_PROPERTY
Valence
SciTegic.value.DoubleValue
10.985

@<SCITEGIC>MOL_PROPERTY
Coulomb
SciTegic.value.DoubleValue
-0.995

@<SCITEGIC>MOL_PROPERTY
VdW
SciTegic.value.DoubleValue
1.006

@<SCITEGIC>MOL_PROPERTY
VdW6
SciTegic.value.DoubleValue
-10.062

@<SCITEGIC>MOL_PROPERTY
VdW12
SciTegic.value.DoubleValue
11.069

@<SCITEGIC>MOL_PROPERTY
Bond
SciTegic.value.DoubleValue
0.238

@<SCITEGIC>MOL_PROPERTY
Angle
SciTegic.value.DoubleValue
3.202

@<SCITEGIC>MOL_PROPERTY
Pdih
SciTegic.value.DoubleValue
7.544

@<SCITEGIC>MOL_PROPERTY
Idih
SciTegic.value.DoubleValue
0.001

@<SCITEGIC>MOL_PROPERTY
Tether
SciTegic.value.DoubleValue
0.000

@<TRIPOS>MOLECULE
guest-8_confgen4.mol2 : confsearch ligand conformer 37
          25          24           1
SMALL
USER_CHARGES
 
@<TRIPOS>ATOM
       1    C1      19.096113   16.204635   25.230368 C.2        1 MOL1         0.6168
       2    O1      20.041040   15.484165   24.974835 O.co2      1 MOL1        -0.6703
       3    O2      18.832598   16.592284   26.351928 O.co2      1 MOL1        -0.6703
       4    C2      18.154904   16.588888   24.090314 C.3        1 MOL1        -0.1963
       5    H1      17.185716   16.134173   24.325657 H          1 MOL1         0.0750
       6    H2      18.505418   16.118018   23.163928 H          1 MOL1         0.0750
       7    C3      17.958101   18.116543   23.877901 C.3        1 MOL1        -0.1860
       8    H3      17.015425   18.262947   23.333500 H          1 MOL1         0.0752
       9    H4      17.826840   18.616561   24.847605 H          1 MOL1         0.0752
      10    C4      19.080826   18.812836   23.068829 C.3        1 MOL1        -0.1858
      11    H5      18.744452   19.832526   22.843871 H          1 MOL1         0.0752
      12    H6      19.206082   18.308287   22.101205 H          1 MOL1         0.0752
      13    C5      20.441974   18.873568   23.803655 C.3        1 MOL1        -0.1858
      14    H7      20.310427   19.322472   24.797612 H          1 MOL1         0.0752
      15    H8      20.809376   17.853409   23.968361 H          1 MOL1         0.0752
      16    C6      21.531960   19.646791   23.022993 C.3        1 MOL1        -0.1858
      17    H9      21.639577   19.217432   22.017559 H          1 MOL1         0.0752
      18    H10     22.494381   19.493337   23.530043 H          1 MOL1         0.0752
      19    C7      21.261404   21.165076   22.917881 C.3        1 MOL1        -0.1834
      20    H11     20.345346   21.349257   22.341993 H          1 MOL1         0.0752
      21    H12     21.099028   21.582673   23.921093 H          1 MOL1         0.0752
      22    C8      22.434250   21.902414   22.240488 C.3        1 MOL1        -0.2849
      23    H13     22.601828   21.522658   21.224088 H          1 MOL1         0.0764
      24    H14     22.226176   22.977985   22.170469 H          1 MOL1         0.0764
      25    H15     23.362655   21.773659   22.812177 H          1 MOL1         0.0764
@<TRIPOS>BOND
    1     1     2    1
    2     1     3    2
    3     1     4    1
    4     4     5    1
    5     4     6    1
    6     4     7    1
    7     7     8    1
    8     7     9    1
    9     7    10    1
   10    10    11    1
   11    10    12    1
   12    10    13    1
   13    13    14    1
   14    13    15    1
   15    13    16    1
   16    16    17    1
   17    16    18    1
   18    16    19    1
   19    19    20    1
   20    19    21    1
   21    19    22    1
   22    22    23    1
   23    22    24    1
   24    22    25    1
@<TRIPOS>SUBSTRUCTURE
       1 MOL1            1 RESIDUE      1      MOL     
@<SCITEGIC>MOL_PROPERTY
VConf Rank
SciTegic.value.IntegerValue
37

@<SCITEGIC>MOL_PROPERTY
Conf_Id
SciTegic.value.IntegerValue
114

@<SCITEGIC>MOL_PROPERTY
Delta U+W
SciTegic.value.DoubleValue
2.758

@<SCITEGIC>MOL_PROPERTY
U+W
SciTegic.value.DoubleValue
-48.871

@<SCITEGIC>MOL_PROPERTY
Grad RMS
SciTegic.value.DoubleValue
0.000000

@<SCITEGIC>MOL_PROPERTY
U
SciTegic.value.DoubleValue
11.422

@<SCITEGIC>MOL_PROPERTY
W
SciTegic.value.DoubleValue
-60.293

@<SCITEGIC>MOL_PROPERTY
W(PB)
SciTegic.value.DoubleValue
-62.719

@<SCITEGIC>MOL_PROPERTY
W(SA)
SciTegic.value.DoubleValue
2.425

@<SCITEGIC>MOL_PROPERTY
Valence
SciTegic.value.DoubleValue
10.135

@<SCITEGIC>MOL_PROPERTY
Coulomb
SciTegic.value.DoubleValue
0.369

@<SCITEGIC>MOL_PROPERTY
VdW
SciTegic.value.DoubleValue
0.918

@<SCITEGIC>MOL_PROPERTY
VdW6
SciTegic.value.DoubleValue
-10.482

@<SCITEGIC>MOL_PROPERTY
VdW12
SciTegic.value.DoubleValue
11.400

@<SCITEGIC>MOL_PROPERTY
Bond
SciTegic.value.DoubleValue
0.245

@<SCITEGIC>MOL_PROPERTY
Angle
SciTegic.value.DoubleValue
3.539

@<SCITEGIC>MOL_PROPERTY
Pdih
SciTegic.value.DoubleValue
6.346

@<SCITEGIC>MOL_PROPERTY
Idih
SciTegic.value.DoubleValue
0.006

@<SCITEGIC>MOL_PROPERTY
Tether
SciTegic.value.DoubleValue
0.000

@<TRIPOS>MOLECULE
guest-8_confgen4.mol2 : confsearch ligand conformer 38
          25          24           1
SMALL
USER_CHARGES
 
@<TRIPOS>ATOM
       1    C1      23.309437   18.261360   25.474827 C.2        1 MOL1         0.6168
       2    O1      22.903718   18.073410   26.604928 O.co2      1 MOL1        -0.6703
       3    O2      23.875823   17.413362   24.813613 O.co2      1 MOL1        -0.6703
       4    C2      23.116500   19.643729   24.857753 C.3        1 MOL1        -0.1963
       5    H1      24.064242   19.927671   24.385377 H          1 MOL1         0.0750
       6    H2      22.935278   20.364715   25.664049 H          1 MOL1         0.0750
       7    C3      21.974745   19.711414   23.810475 C.3        1 MOL1        -0.1860
       8    H3      21.991588   20.697803   23.327773 H          1 MOL1         0.0752
       9    H4      22.169636   18.969564   23.024979 H          1 MOL1         0.0752
      10    C4      20.580594   19.473757   24.439060 C.3        1 MOL1        -0.1858
      11    H5      20.448301   20.165419   25.282236 H          1 MOL1         0.0752
      12    H6      20.528185   18.460226   24.860142 H          1 MOL1         0.0752
      13    C5      19.410756   19.681147   23.447520 C.3        1 MOL1        -0.1858
      14    H7      18.473164   19.636038   24.015913 H          1 MOL1         0.0752
      15    H8      19.466476   20.690641   23.018170 H          1 MOL1         0.0752
      16    C6      19.372989   18.630389   22.310408 C.3        1 MOL1        -0.1858
      17    H9      19.320920   17.620907   22.740427 H          1 MOL1         0.0752
      18    H10     20.308171   18.677357   21.738314 H          1 MOL1         0.0752
      19    C7      18.198824   18.833986   21.324344 C.3        1 MOL1        -0.1834
      20    H11     18.241090   19.847012   20.900928 H          1 MOL1         0.0752
      21    H12     18.323915   18.140443   20.481378 H          1 MOL1         0.0752
      22    C8      16.812702   18.593320   21.961250 C.3        1 MOL1        -0.2849
      23    H13     16.024793   18.655606   21.199527 H          1 MOL1         0.0764
      24    H14     16.759239   17.598231   22.421743 H          1 MOL1         0.0764
      25    H15     16.588729   19.342011   22.731123 H          1 MOL1         0.0764
@<TRIPOS>BOND
    1     1     2    1
    2     1     3    2
    3     1     4    1
    4     4     5    1
    5     4     6    1
    6     4     7    1
    7     7     8    1
    8     7     9    1
    9     7    10    1
   10    10    11    1
   11    10    12    1
   12    10    13    1
   13    13    14    1
   14    13    15    1
   15    13    16    1
   16    16    17    1
   17    16    18    1
   18    16    19    1
   19    19    20    1
   20    19    21    1
   21    19    22    1
   22    22    23    1
   23    22    24    1
   24    22    25    1
@<TRIPOS>SUBSTRUCTURE
       1 MOL1            1 RESIDUE      1      MOL     
@<SCITEGIC>MOL_PROPERTY
VConf Rank
SciTegic.value.IntegerValue
38

@<SCITEGIC>MOL_PROPERTY
Conf_Id
SciTegic.value.IntegerValue
87

@<SCITEGIC>MOL_PROPERTY
Delta U+W
SciTegic.value.DoubleValue
1.453

@<SCITEGIC>MOL_PROPERTY
U+W
SciTegic.value.DoubleValue
-50.176

@<SCITEGIC>MOL_PROPERTY
Grad RMS
SciTegic.value.DoubleValue
0.000000

@<SCITEGIC>MOL_PROPERTY
U
SciTegic.value.DoubleValue
9.763

@<SCITEGIC>MOL_PROPERTY
W
SciTegic.value.DoubleValue
-59.940

@<SCITEGIC>MOL_PROPERTY
W(PB)
SciTegic.value.DoubleValue
-62.392

@<SCITEGIC>MOL_PROPERTY
W(SA)
SciTegic.value.DoubleValue
2.452

@<SCITEGIC>MOL_PROPERTY
Valence
SciTegic.value.DoubleValue
8.883

@<SCITEGIC>MOL_PROPERTY
Coulomb
SciTegic.value.DoubleValue
-0.122

@<SCITEGIC>MOL_PROPERTY
VdW
SciTegic.value.DoubleValue
1.003

@<SCITEGIC>MOL_PROPERTY
VdW6
SciTegic.value.DoubleValue
-9.782

@<SCITEGIC>MOL_PROPERTY
VdW12
SciTegic.value.DoubleValue
10.785

@<SCITEGIC>MOL_PROPERTY
Bond
SciTegic.value.DoubleValue
0.212

@<SCITEGIC>MOL_PROPERTY
Angle
SciTegic.value.DoubleValue
2.940

@<SCITEGIC>MOL_PROPERTY
Pdih
SciTegic.value.DoubleValue
5.730

@<SCITEGIC>MOL_PROPERTY
Idih
SciTegic.value.DoubleValue
0.001

@<SCITEGIC>MOL_PROPERTY
Tether
SciTegic.value.DoubleValue
0.000

@<TRIPOS>MOLECULE
guest-8_confgen4.mol2 : confsearch ligand conformer 39
          25          24           1
SMALL
USER_CHARGES
 
@<TRIPOS>ATOM
       1    C1      17.929826   18.485930   26.616774 C.2        1 MOL1         0.6168
       2    O1      16.911582   19.102471   26.372354 O.co2      1 MOL1        -0.6703
       3    O2      17.960040   17.477180   27.293718 O.co2      1 MOL1        -0.6703
       4    C2      19.239552   18.995889   26.026245 C.3        1 MOL1        -0.1963
       5    H1      20.046438   18.755199   26.728730 H          1 MOL1         0.0750
       6    H2      19.181169   20.089011   25.961054 H          1 MOL1         0.0750
       7    C3      19.545553   18.393866   24.632731 C.3        1 MOL1        -0.1860
       8    H3      19.592602   17.299032   24.711887 H          1 MOL1         0.0752
       9    H4      18.715822   18.630835   23.953630 H          1 MOL1         0.0752
      10    C4      20.874367   18.932644   24.054284 C.3        1 MOL1        -0.1858
      11    H5      21.679906   18.748353   24.778000 H          1 MOL1         0.0752
      12    H6      20.813932   20.022613   23.937153 H          1 MOL1         0.0752
      13    C5      21.270355   18.278685   22.706742 C.3        1 MOL1        -0.1858
      14    H7      22.248081   18.670092   22.396530 H          1 MOL1         0.0752
      15    H8      21.418717   17.202039   22.865783 H          1 MOL1         0.0752
      16    C6      20.252547   18.472408   21.551598 C.3        1 MOL1        -0.1858
      17    H9      19.323957   17.938404   21.792069 H          1 MOL1         0.0752
      18    H10     20.649347   17.985336   20.650598 H          1 MOL1         0.0752
      19    C7      19.911569   19.944572   21.213071 C.3        1 MOL1        -0.1834
      20    H11     19.168409   19.954838   20.404052 H          1 MOL1         0.0752
      21    H12     19.430456   20.428405   22.073460 H          1 MOL1         0.0752
      22    C8      21.139695   20.769086   20.770440 C.3        1 MOL1        -0.2849
      23    H13     21.646119   20.293837   19.920376 H          1 MOL1         0.0764
      24    H14     20.834922   21.777587   20.462596 H          1 MOL1         0.0764
      25    H15     21.864046   20.875060   21.587771 H          1 MOL1         0.0764
@<TRIPOS>BOND
    1     1     2    1
    2     1     3    2
    3     1     4    1
    4     4     5    1
    5     4     6    1
    6     4     7    1
    7     7     8    1
    8     7     9    1
    9     7    10    1
   10    10    11    1
   11    10    12    1
   12    10    13    1
   13    13    14    1
   14    13    15    1
   15    13    16    1
   16    16    17    1
   17    16    18    1
   18    16    19    1
   19    19    20    1
   20    19    21    1
   21    19    22    1
   22    22    23    1
   23    22    24    1
   24    22    25    1
@<TRIPOS>SUBSTRUCTURE
       1 MOL1            1 RESIDUE      1      MOL     
@<SCITEGIC>MOL_PROPERTY
VConf Rank
SciTegic.value.IntegerValue
39

@<SCITEGIC>MOL_PROPERTY
Conf_Id
SciTegic.value.IntegerValue
29

@<SCITEGIC>MOL_PROPERTY
Delta U+W
SciTegic.value.DoubleValue
0.850

@<SCITEGIC>MOL_PROPERTY
U+W
SciTegic.value.DoubleValue
-50.780

@<SCITEGIC>MOL_PROPERTY
Grad RMS
SciTegic.value.DoubleValue
0.000000

@<SCITEGIC>MOL_PROPERTY
U
SciTegic.value.DoubleValue
8.646

@<SCITEGIC>MOL_PROPERTY
W
SciTegic.value.DoubleValue
-59.426

@<SCITEGIC>MOL_PROPERTY
W(PB)
SciTegic.value.DoubleValue
-61.868

@<SCITEGIC>MOL_PROPERTY
W(SA)
SciTegic.value.DoubleValue
2.442

@<SCITEGIC>MOL_PROPERTY
Valence
SciTegic.value.DoubleValue
8.924

@<SCITEGIC>MOL_PROPERTY
Coulomb
SciTegic.value.DoubleValue
-1.171

@<SCITEGIC>MOL_PROPERTY
VdW
SciTegic.value.DoubleValue
0.894

@<SCITEGIC>MOL_PROPERTY
VdW6
SciTegic.value.DoubleValue
-10.223

@<SCITEGIC>MOL_PROPERTY
VdW12
SciTegic.value.DoubleValue
11.117

@<SCITEGIC>MOL_PROPERTY
Bond
SciTegic.value.DoubleValue
0.231

@<SCITEGIC>MOL_PROPERTY
Angle
SciTegic.value.DoubleValue
3.232

@<SCITEGIC>MOL_PROPERTY
Pdih
SciTegic.value.DoubleValue
5.461

@<SCITEGIC>MOL_PROPERTY
Idih
SciTegic.value.DoubleValue
0.001

@<SCITEGIC>MOL_PROPERTY
Tether
SciTegic.value.DoubleValue
0.000

@<TRIPOS>MOLECULE
guest-8_confgen4.mol2 : confsearch ligand conformer 40
          25          24           1
SMALL
USER_CHARGES
 
@<TRIPOS>ATOM
       1    C1      17.575882   22.311440   23.445814 C.2        1 MOL1         0.6168
       2    O1      17.487340   22.518650   24.639928 O.co2      1 MOL1        -0.6703
       3    O2      16.679360   22.532552   22.655815 O.co2      1 MOL1        -0.6703
       4    C2      18.877204   21.723746   22.911634 C.3        1 MOL1        -0.1963
       5    H1      19.699537   22.093252   23.535981 H          1 MOL1         0.0750
       6    H2      19.037164   22.114379   21.899557 H          1 MOL1         0.0750
       7    C3      18.875037   20.175317   22.893761 C.3        1 MOL1        -0.1860
       8    H3      18.693614   19.808761   23.912833 H          1 MOL1         0.0752
       9    H4      18.041854   19.819923   22.271955 H          1 MOL1         0.0752
      10    C4      20.207825   19.605979   22.355088 C.3        1 MOL1        -0.1858
      11    H5      21.036751   19.927745   22.999102 H          1 MOL1         0.0752
      12    H6      20.406447   20.037568   21.364683 H          1 MOL1         0.0752
      13    C5      20.210671   18.062246   22.223876 C.3        1 MOL1        -0.1858
      14    H7      19.436787   17.766807   21.502564 H          1 MOL1         0.0752
      15    H8      21.164468   17.745818   21.781692 H          1 MOL1         0.0752
      16    C6      19.977380   17.284243   23.546037 C.3        1 MOL1        -0.1858
      17    H9      20.020604   16.208014   23.330740 H          1 MOL1         0.0752
      18    H10     18.956943   17.473674   23.903935 H          1 MOL1         0.0752
      19    C7      20.976295   17.605091   24.685053 C.3        1 MOL1        -0.1834
      20    H11     20.887810   18.659319   24.979346 H          1 MOL1         0.0752
      21    H12     20.697769   17.018031   25.570879 H          1 MOL1         0.0752
      22    C8      22.442133   17.287087   24.318678 C.3        1 MOL1        -0.2849
      23    H13     22.797391   17.929573   23.503235 H          1 MOL1         0.0764
      24    H14     23.098690   17.451781   25.182702 H          1 MOL1         0.0764
      25    H15     22.550464   16.240656   24.005337 H          1 MOL1         0.0764
@<TRIPOS>BOND
    1     1     2    1
    2     1     3    2
    3     1     4    1
    4     4     5    1
    5     4     6    1
    6     4     7    1
    7     7     8    1
    8     7     9    1
    9     7    10    1
   10    10    11    1
   11    10    12    1
   12    10    13    1
   13    13    14    1
   14    13    15    1
   15    13    16    1
   16    16    17    1
   17    16    18    1
   18    16    19    1
   19    19    20    1
   20    19    21    1
   21    19    22    1
   22    22    23    1
   23    22    24    1
   24    22    25    1
@<TRIPOS>SUBSTRUCTURE
       1 MOL1            1 RESIDUE      1      MOL     
@<SCITEGIC>MOL_PROPERTY
VConf Rank
SciTegic.value.IntegerValue
40

@<SCITEGIC>MOL_PROPERTY
Conf_Id
SciTegic.value.IntegerValue
30

@<SCITEGIC>MOL_PROPERTY
Delta U+W
SciTegic.value.DoubleValue
0.843

@<SCITEGIC>MOL_PROPERTY
U+W
SciTegic.value.DoubleValue
-50.787

@<SCITEGIC>MOL_PROPERTY
Grad RMS
SciTegic.value.DoubleValue
0.000000

@<SCITEGIC>MOL_PROPERTY
U
SciTegic.value.DoubleValue
8.647

@<SCITEGIC>MOL_PROPERTY
W
SciTegic.value.DoubleValue
-59.434

@<SCITEGIC>MOL_PROPERTY
W(PB)
SciTegic.value.DoubleValue
-61.861

@<SCITEGIC>MOL_PROPERTY
W(SA)
SciTegic.value.DoubleValue
2.428

@<SCITEGIC>MOL_PROPERTY
Valence
SciTegic.value.DoubleValue
8.924

@<SCITEGIC>MOL_PROPERTY
Coulomb
SciTegic.value.DoubleValue
-1.170

@<SCITEGIC>MOL_PROPERTY
VdW
SciTegic.value.DoubleValue
0.894

@<SCITEGIC>MOL_PROPERTY
VdW6
SciTegic.value.DoubleValue
-10.224

@<SCITEGIC>MOL_PROPERTY
VdW12
SciTegic.value.DoubleValue
11.118

@<SCITEGIC>MOL_PROPERTY
Bond
SciTegic.value.DoubleValue
0.231

@<SCITEGIC>MOL_PROPERTY
Angle
SciTegic.value.DoubleValue
3.232

@<SCITEGIC>MOL_PROPERTY
Pdih
SciTegic.value.DoubleValue
5.460

@<SCITEGIC>MOL_PROPERTY
Idih
SciTegic.value.DoubleValue
0.000

@<SCITEGIC>MOL_PROPERTY
Tether
SciTegic.value.DoubleValue
0.000

@<TRIPOS>MOLECULE
guest-8_confgen4.mol2 : confsearch ligand conformer 41
          25          24           1
SMALL
USER_CHARGES
 
@<TRIPOS>ATOM
       1    C1      16.866868   20.965592   20.188908 C.2        1 MOL1         0.6168
       2    O1      16.140568   21.343427   21.087982 O.co2      1 MOL1        -0.6703
       3    O2      16.606943   21.127410   19.013165 O.co2      1 MOL1        -0.6703
       4    C2      18.176538   20.249204   20.521997 C.3        1 MOL1        -0.1963
       5    H1      18.988733   20.819651   20.056338 H          1 MOL1         0.0750
       6    H2      18.148171   19.270321   20.029157 H          1 MOL1         0.0750
       7    C3      18.464776   20.066277   22.035890 C.3        1 MOL1        -0.1860
       8    H3      18.485441   21.050319   22.524500 H          1 MOL1         0.0752
       9    H4      17.644154   19.499540   22.497295 H          1 MOL1         0.0752
      10    C4      19.803021   19.335974   22.281662 C.3        1 MOL1        -0.1858
      11    H5      20.621883   19.904305   21.819492 H          1 MOL1         0.0752
      12    H6      19.780062   18.352549   21.792289 H          1 MOL1         0.0752
      13    C5      20.087740   19.155107   23.788217 C.3        1 MOL1        -0.1858
      14    H7      20.110791   20.138383   24.277852 H          1 MOL1         0.0752
      15    H8      19.269057   18.586763   24.250653 H          1 MOL1         0.0752
      16    C6      21.425680   18.424972   24.034660 C.3        1 MOL1        -0.1858
      17    H9      22.244521   18.993179   23.572346 H          1 MOL1         0.0752
      18    H10     21.402811   17.441614   23.545195 H          1 MOL1         0.0752
      19    C7      21.710398   18.244166   25.540518 C.3        1 MOL1        -0.1834
      20    H11     21.735890   19.226035   26.033236 H          1 MOL1         0.0752
      21    H12     20.894195   17.674479   26.006088 H          1 MOL1         0.0752
      22    C8      23.047196   17.514743   25.782420 C.3        1 MOL1        -0.2849
      23    H13     23.885816   18.079175   25.354015 H          1 MOL1         0.0764
      24    H14     23.233515   17.394869   26.857596 H          1 MOL1         0.0764
      25    H15     23.037782   16.515938   25.326683 H          1 MOL1         0.0764
@<TRIPOS>BOND
    1     1     2    1
    2     1     3    2
    3     1     4    1
    4     4     5    1
    5     4     6    1
    6     4     7    1
    7     7     8    1
    8     7     9    1
    9     7    10    1
   10    10    11    1
   11    10    12    1
   12    10    13    1
   13    13    14    1
   14    13    15    1
   15    13    16    1
   16    16    17    1
   17    16    18    1
   18    16    19    1
   19    19    20    1
   20    19    21    1
   21    19    22    1
   22    22    23    1
   23    22    24    1
   24    22    25    1
@<TRIPOS>SUBSTRUCTURE
       1 MOL1            1 RESIDUE      1      MOL     
@<SCITEGIC>MOL_PROPERTY
VConf Rank
SciTegic.value.IntegerValue
41

@<SCITEGIC>MOL_PROPERTY
Conf_Id
SciTegic.value.IntegerValue
0

@<SCITEGIC>MOL_PROPERTY
Delta U+W
SciTegic.value.DoubleValue
0.000

@<SCITEGIC>MOL_PROPERTY
U+W
SciTegic.value.DoubleValue
-51.629

@<SCITEGIC>MOL_PROPERTY
Grad RMS
SciTegic.value.DoubleValue
0.000000

@<SCITEGIC>MOL_PROPERTY
U
SciTegic.value.DoubleValue
6.586

@<SCITEGIC>MOL_PROPERTY
W
SciTegic.value.DoubleValue
-58.216

@<SCITEGIC>MOL_PROPERTY
W(PB)
SciTegic.value.DoubleValue
-60.757

@<SCITEGIC>MOL_PROPERTY
W(SA)
SciTegic.value.DoubleValue
2.541

@<SCITEGIC>MOL_PROPERTY
Valence
SciTegic.value.DoubleValue
8.027

@<SCITEGIC>MOL_PROPERTY
Coulomb
SciTegic.value.DoubleValue
-2.892

@<SCITEGIC>MOL_PROPERTY
VdW
SciTegic.value.DoubleValue
1.451

@<SCITEGIC>MOL_PROPERTY
VdW6
SciTegic.value.DoubleValue
-7.931

@<SCITEGIC>MOL_PROPERTY
VdW12
SciTegic.value.DoubleValue
9.383

@<SCITEGIC>MOL_PROPERTY
Bond
SciTegic.value.DoubleValue
0.149

@<SCITEGIC>MOL_PROPERTY
Angle
SciTegic.value.DoubleValue
2.726

@<SCITEGIC>MOL_PROPERTY
Pdih
SciTegic.value.DoubleValue
5.152

@<SCITEGIC>MOL_PROPERTY
Idih
SciTegic.value.DoubleValue
0.000

@<SCITEGIC>MOL_PROPERTY
Tether
SciTegic.value.DoubleValue
0.000

@<TRIPOS>MOLECULE
guest-8_confgen4.mol2 : confsearch ligand conformer 42
          25          24           1
SMALL
USER_CHARGES
 
@<TRIPOS>ATOM
       1    C1      19.362518   20.191707   27.631272 C.2        1 MOL1         0.6168
       2    O1      18.624310   21.140470   27.808805 O.co2      1 MOL1        -0.6703
       3    O2      19.432442   19.242258   28.386440 O.co2      1 MOL1        -0.6703
       4    C2      20.232601   20.181220   26.379503 C.3        1 MOL1        -0.1963
       5    H1      21.164221   19.653534   26.616645 H          1 MOL1         0.0750
       6    H2      20.498771   21.217987   26.141021 H          1 MOL1         0.0750
       7    C3      19.534760   19.515975   25.167690 C.3        1 MOL1        -0.1860
       8    H3      19.263091   18.483313   25.427302 H          1 MOL1         0.0752
       9    H4      18.597577   20.047645   24.951800 H          1 MOL1         0.0752
      10    C4      20.435236   19.517818   23.913433 C.3        1 MOL1        -0.1858
      11    H5      21.371622   18.986587   24.132880 H          1 MOL1         0.0752
      12    H6      20.706114   20.551378   23.657390 H          1 MOL1         0.0752
      13    C5      19.736865   18.854232   22.707033 C.3        1 MOL1        -0.1858
      14    H7      19.465961   17.820650   22.962812 H          1 MOL1         0.0752
      15    H8      18.800478   19.385315   22.487412 H          1 MOL1         0.0752
      16    C6      20.636722   18.855763   21.452388 C.3        1 MOL1        -0.1858
      17    H9      21.573173   18.324652   21.671653 H          1 MOL1         0.0752
      18    H10     20.907793   19.889231   21.196341 H          1 MOL1         0.0752
      19    C7      19.938787   18.192575   20.246391 C.3        1 MOL1        -0.1834
      20    H11     19.667778   17.157855   20.498181 H          1 MOL1         0.0752
      21    H12     19.002427   18.722434   20.022854 H          1 MOL1         0.0752
      22    C8      20.840545   18.196061   18.995622 C.3        1 MOL1        -0.2849
      23    H13     20.328905   17.721099   18.148436 H          1 MOL1         0.0764
      24    H14     21.101485   19.221383   18.702329 H          1 MOL1         0.0764
      25    H15     21.771838   17.645030   19.181240 H          1 MOL1         0.0764
@<TRIPOS>BOND
    1     1     2    1
    2     1     3    2
    3     1     4    1
    4     4     5    1
    5     4     6    1
    6     4     7    1
    7     7     8    1
    8     7     9    1
    9     7    10    1
   10    10    11    1
   11    10    12    1
   12    10    13    1
   13    13    14    1
   14    13    15    1
   15    13    16    1
   16    16    17    1
   17    16    18    1
   18    16    19    1
   19    19    20    1
   20    19    21    1
   21    19    22    1
   22    22    23    1
   23    22    24    1
   24    22    25    1
@<TRIPOS>SUBSTRUCTURE
       1 MOL1            1 RESIDUE      1      MOL     
@<SCITEGIC>MOL_PROPERTY
VConf Rank
SciTegic.value.IntegerValue
42

@<SCITEGIC>MOL_PROPERTY
Conf_Id
SciTegic.value.IntegerValue
27

@<SCITEGIC>MOL_PROPERTY
Delta U+W
SciTegic.value.DoubleValue
-1.297

@<SCITEGIC>MOL_PROPERTY
U+W
SciTegic.value.DoubleValue
-52.926

@<SCITEGIC>MOL_PROPERTY
Grad RMS
SciTegic.value.DoubleValue
0.000000

@<SCITEGIC>MOL_PROPERTY
U
SciTegic.value.DoubleValue
5.617

@<SCITEGIC>MOL_PROPERTY
W
SciTegic.value.DoubleValue
-58.543

@<SCITEGIC>MOL_PROPERTY
W(PB)
SciTegic.value.DoubleValue
-61.065

@<SCITEGIC>MOL_PROPERTY
W(SA)
SciTegic.value.DoubleValue
2.522

@<SCITEGIC>MOL_PROPERTY
Valence
SciTegic.value.DoubleValue
7.531

@<SCITEGIC>MOL_PROPERTY
Coulomb
SciTegic.value.DoubleValue
-2.818

@<SCITEGIC>MOL_PROPERTY
VdW
SciTegic.value.DoubleValue
0.904

@<SCITEGIC>MOL_PROPERTY
VdW6
SciTegic.value.DoubleValue
-7.640

@<SCITEGIC>MOL_PROPERTY
VdW12
SciTegic.value.DoubleValue
8.544

@<SCITEGIC>MOL_PROPERTY
Bond
SciTegic.value.DoubleValue
0.115

@<SCITEGIC>MOL_PROPERTY
Angle
SciTegic.value.DoubleValue
2.271

@<SCITEGIC>MOL_PROPERTY
Pdih
SciTegic.value.DoubleValue
5.144

@<SCITEGIC>MOL_PROPERTY
Idih
SciTegic.value.DoubleValue
0.001

@<SCITEGIC>MOL_PROPERTY
Tether
SciTegic.value.DoubleValue
0.000

@<TRIPOS>MOLECULE
guest-8_confgen4.mol2 : confsearch ligand conformer 43
          25          24           1
SMALL
USER_CHARGES
 
@<TRIPOS>ATOM
       1    C1      16.961275   19.699506   21.060216 C.2        1 MOL1         0.6168
       2    O1      16.740012   20.872094   20.829658 O.co2      1 MOL1        -0.6703
       3    O2      17.284386   18.895604   20.207981 O.co2      1 MOL1        -0.6703
       4    C2      16.807910   19.208179   22.496893 C.3        1 MOL1        -0.1963
       5    H1      16.699086   18.116924   22.483945 H          1 MOL1         0.0750
       6    H2      15.867069   19.616453   22.884339 H          1 MOL1         0.0750
       7    C3      17.975104   19.619178   23.431602 C.3        1 MOL1        -0.1860
       8    H3      18.089227   20.712008   23.412373 H          1 MOL1         0.0752
       9    H4      17.717906   19.346343   24.464055 H          1 MOL1         0.0752
      10    C4      19.311371   18.946522   23.044700 C.3        1 MOL1        -0.1858
      11    H5      19.584524   19.228882   22.018502 H          1 MOL1         0.0752
      12    H6      19.188419   17.854803   23.052251 H          1 MOL1         0.0752
      13    C5      20.451429   19.344425   24.006766 C.3        1 MOL1        -0.1858
      14    H7      20.573633   20.436252   23.998517 H          1 MOL1         0.0752
      15    H8      20.181781   19.060279   25.033211 H          1 MOL1         0.0752
      16    C6      21.787140   18.673338   23.620272 C.3        1 MOL1        -0.1858
      17    H9      22.056896   18.957346   22.593773 H          1 MOL1         0.0752
      18    H10     21.665060   17.581497   23.628110 H          1 MOL1         0.0752
      19    C7      22.927108   19.071164   24.581301 C.3        1 MOL1        -0.1834
      20    H11     23.053279   20.162731   24.574608 H          1 MOL1         0.0752
      21    H12     22.661499   18.786796   25.608952 H          1 MOL1         0.0752
      22    C8      24.259104   18.399098   24.191789 C.3        1 MOL1        -0.2849
      23    H13     24.565101   18.691481   23.178737 H          1 MOL1         0.0764
      24    H14     25.057950   18.692800   24.885089 H          1 MOL1         0.0764
      25    H15     24.170377   17.305170   24.220814 H          1 MOL1         0.0764
@<TRIPOS>BOND
    1     1     2    1
    2     1     3    2
    3     1     4    1
    4     4     5    1
    5     4     6    1
    6     4     7    1
    7     7     8    1
    8     7     9    1
    9     7    10    1
   10    10    11    1
   11    10    12    1
   12    10    13    1
   13    13    14    1
   14    13    15    1
   15    13    16    1
   16    16    17    1
   17    16    18    1
   18    16    19    1
   19    19    20    1
   20    19    21    1
   21    19    22    1
   22    22    23    1
   23    22    24    1
   24    22    25    1
@<TRIPOS>SUBSTRUCTURE
       1 MOL1            1 RESIDUE      1      MOL     
@<SCITEGIC>MOL_PROPERTY
VConf Rank
SciTegic.value.IntegerValue
43

@<SCITEGIC>MOL_PROPERTY
Conf_Id
SciTegic.value.IntegerValue
37

@<SCITEGIC>MOL_PROPERTY
Delta U+W
SciTegic.value.DoubleValue
-0.230

@<SCITEGIC>MOL_PROPERTY
U+W
SciTegic.value.DoubleValue
-51.860

@<SCITEGIC>MOL_PROPERTY
Grad RMS
SciTegic.value.DoubleValue
0.000000

@<SCITEGIC>MOL_PROPERTY
U
SciTegic.value.DoubleValue
7.816

@<SCITEGIC>MOL_PROPERTY
W
SciTegic.value.DoubleValue
-59.675

@<SCITEGIC>MOL_PROPERTY
W(PB)
SciTegic.value.DoubleValue
-62.180

@<SCITEGIC>MOL_PROPERTY
W(SA)
SciTegic.value.DoubleValue
2.505

@<SCITEGIC>MOL_PROPERTY
Valence
SciTegic.value.DoubleValue
7.785

@<SCITEGIC>MOL_PROPERTY
Coulomb
SciTegic.value.DoubleValue
-0.713

@<SCITEGIC>MOL_PROPERTY
VdW
SciTegic.value.DoubleValue
0.744

@<SCITEGIC>MOL_PROPERTY
VdW6
SciTegic.value.DoubleValue
-8.514

@<SCITEGIC>MOL_PROPERTY
VdW12
SciTegic.value.DoubleValue
9.259

@<SCITEGIC>MOL_PROPERTY
Bond
SciTegic.value.DoubleValue
0.136

@<SCITEGIC>MOL_PROPERTY
Angle
SciTegic.value.DoubleValue
2.433

@<SCITEGIC>MOL_PROPERTY
Pdih
SciTegic.value.DoubleValue
5.216

@<SCITEGIC>MOL_PROPERTY
Idih
SciTegic.value.DoubleValue
0.000

@<SCITEGIC>MOL_PROPERTY
Tether
SciTegic.value.DoubleValue
0.000

@<TRIPOS>MOLECULE
guest-8_confgen4.mol2 : confsearch ligand conformer 44
          25          24           1
SMALL
USER_CHARGES
 
@<TRIPOS>ATOM
       1    C1      19.563438   16.122114   25.725332 C.2        1 MOL1         0.6168
       2    O1      20.613246   15.569857   25.989887 O.co2      1 MOL1        -0.6703
       3    O2      18.686810   15.614581   25.053844 O.co2      1 MOL1        -0.6703
       4    C2      19.328554   17.523669   26.281608 C.3        1 MOL1        -0.1963
       5    H1      19.625138   17.511457   27.337009 H          1 MOL1         0.0750
       6    H2      18.252554   17.734478   26.256535 H          1 MOL1         0.0750
       7    C3      20.110109   18.636736   25.536491 C.3        1 MOL1        -0.1860
       8    H3      19.992370   19.582057   26.083350 H          1 MOL1         0.0752
       9    H4      21.182590   18.397233   25.546203 H          1 MOL1         0.0752
      10    C4      19.629556   18.827306   24.080291 C.3        1 MOL1        -0.1858
      11    H5      18.554411   19.053277   24.075207 H          1 MOL1         0.0752
      12    H6      19.760398   17.890207   23.521587 H          1 MOL1         0.0752
      13    C5      20.398800   19.960693   23.368023 C.3        1 MOL1        -0.1858
      14    H7      20.267003   20.899449   23.923364 H          1 MOL1         0.0752
      15    H8      21.473773   19.733773   23.373510 H          1 MOL1         0.0752
      16    C6      19.919647   20.151219   21.912699 C.3        1 MOL1        -0.1858
      17    H9      18.844621   20.377864   21.906968 H          1 MOL1         0.0752
      18    H10     20.051262   19.212465   21.357231 H          1 MOL1         0.0752
      19    C7      20.688676   21.283575   21.200149 C.3        1 MOL1        -0.1834
      20    H11     20.557767   22.224679   21.752113 H          1 MOL1         0.0752
      21    H12     21.764378   21.059201   21.202291 H          1 MOL1         0.0752
      22    C8      20.207238   21.470545   19.747268 C.3        1 MOL1        -0.2849
      23    H13     19.140190   21.727227   19.716994 H          1 MOL1         0.0764
      24    H14     20.764300   22.278923   19.256055 H          1 MOL1         0.0764
      25    H15     20.355826   20.552928   19.163059 H          1 MOL1         0.0764
@<TRIPOS>BOND
    1     1     2    1
    2     1     3    2
    3     1     4    1
    4     4     5    1
    5     4     6    1
    6     4     7    1
    7     7     8    1
    8     7     9    1
    9     7    10    1
   10    10    11    1
   11    10    12    1
   12    10    13    1
   13    13    14    1
   14    13    15    1
   15    13    16    1
   16    16    17    1
   17    16    18    1
   18    16    19    1
   19    19    20    1
   20    19    21    1
   21    19    22    1
   22    22    23    1
   23    22    24    1
   24    22    25    1
@<TRIPOS>SUBSTRUCTURE
       1 MOL1            1 RESIDUE      1      MOL     
@<SCITEGIC>MOL_PROPERTY
VConf Rank
SciTegic.value.IntegerValue
44

@<SCITEGIC>MOL_PROPERTY
Conf_Id
SciTegic.value.IntegerValue
54

@<SCITEGIC>MOL_PROPERTY
Delta U+W
SciTegic.value.DoubleValue
-0.224

@<SCITEGIC>MOL_PROPERTY
U+W
SciTegic.value.DoubleValue
-51.854

@<SCITEGIC>MOL_PROPERTY
Grad RMS
SciTegic.value.DoubleValue
0.000000

@<SCITEGIC>MOL_PROPERTY
U
SciTegic.value.DoubleValue
7.816

@<SCITEGIC>MOL_PROPERTY
W
SciTegic.value.DoubleValue
-59.670

@<SCITEGIC>MOL_PROPERTY
W(PB)
SciTegic.value.DoubleValue
-62.157

@<SCITEGIC>MOL_PROPERTY
W(SA)
SciTegic.value.DoubleValue
2.487

@<SCITEGIC>MOL_PROPERTY
Valence
SciTegic.value.DoubleValue
7.785

@<SCITEGIC>MOL_PROPERTY
Coulomb
SciTegic.value.DoubleValue
-0.713

@<SCITEGIC>MOL_PROPERTY
VdW
SciTegic.value.DoubleValue
0.744

@<SCITEGIC>MOL_PROPERTY
VdW6
SciTegic.value.DoubleValue
-8.515

@<SCITEGIC>MOL_PROPERTY
VdW12
SciTegic.value.DoubleValue
9.259

@<SCITEGIC>MOL_PROPERTY
Bond
SciTegic.value.DoubleValue
0.136

@<SCITEGIC>MOL_PROPERTY
Angle
SciTegic.value.DoubleValue
2.433

@<SCITEGIC>MOL_PROPERTY
Pdih
SciTegic.value.DoubleValue
5.215

@<SCITEGIC>MOL_PROPERTY
Idih
SciTegic.value.DoubleValue
0.000

@<SCITEGIC>MOL_PROPERTY
Tether
SciTegic.value.DoubleValue
0.000

@<TRIPOS>MOLECULE
guest-8_confgen4.mol2 : confsearch ligand conformer 45
          25          24           1
SMALL
USER_CHARGES
 
@<TRIPOS>ATOM
       1    C1      19.694787   15.153100   22.604106 C.2        1 MOL1         0.6168
       2    O1      18.624899   15.055684   22.035865 O.co2      1 MOL1        -0.6703
       3    O2      20.721851   14.647891   22.195435 O.co2      1 MOL1        -0.6703
       4    C2      19.750157   15.936807   23.912511 C.3        1 MOL1        -0.1963
       5    H1      20.320123   15.334918   24.630034 H          1 MOL1         0.0750
       6    H2      18.732285   16.026182   24.310982 H          1 MOL1         0.0750
       7    C3      20.399434   17.339386   23.782605 C.3        1 MOL1        -0.1860
       8    H3      20.534656   17.753145   24.789741 H          1 MOL1         0.0752
       9    H4      21.401702   17.236912   23.344019 H          1 MOL1         0.0752
      10    C4      19.549266   18.310348   22.927971 C.3        1 MOL1        -0.1858
      11    H5      18.563155   18.447695   23.392188 H          1 MOL1         0.0752
      12    H6      19.366626   17.856786   21.944150 H          1 MOL1         0.0752
      13    C5      20.216166   19.689553   22.708900 C.3        1 MOL1        -0.1858
      14    H7      21.209960   19.550594   22.262088 H          1 MOL1         0.0752
      15    H8      19.618321   20.240766   21.972072 H          1 MOL1         0.0752
      16    C6      20.337303   20.530885   24.003626 C.3        1 MOL1        -0.1858
      17    H9      20.940959   19.985012   24.739491 H          1 MOL1         0.0752
      18    H10     19.343864   20.665202   24.452684 H          1 MOL1         0.0752
      19    C7      20.994219   21.913053   23.778764 C.3        1 MOL1        -0.1834
      20    H11     21.167269   22.382868   24.756809 H          1 MOL1         0.0752
      21    H12     21.983283   21.783433   23.318058 H          1 MOL1         0.0752
      22    C8      20.139124   22.867011   22.916374 C.3        1 MOL1        -0.2849
      23    H13     20.039687   22.498720   21.887843 H          1 MOL1         0.0764
      24    H14     19.133060   22.984154   23.339721 H          1 MOL1         0.0764
      25    H15     20.603211   23.860629   22.868910 H          1 MOL1         0.0764
@<TRIPOS>BOND
    1     1     2    1
    2     1     3    2
    3     1     4    1
    4     4     5    1
    5     4     6    1
    6     4     7    1
    7     7     8    1
    8     7     9    1
    9     7    10    1
   10    10    11    1
   11    10    12    1
   12    10    13    1
   13    13    14    1
   14    13    15    1
   15    13    16    1
   16    16    17    1
   17    16    18    1
   18    16    19    1
   19    19    20    1
   20    19    21    1
   21    19    22    1
   22    22    23    1
   23    22    24    1
   24    22    25    1
@<TRIPOS>SUBSTRUCTURE
       1 MOL1            1 RESIDUE      1      MOL     
@<SCITEGIC>MOL_PROPERTY
VConf Rank
SciTegic.value.IntegerValue
45

@<SCITEGIC>MOL_PROPERTY
Conf_Id
SciTegic.value.IntegerValue
101

@<SCITEGIC>MOL_PROPERTY
Delta U+W
SciTegic.value.DoubleValue
1.534

@<SCITEGIC>MOL_PROPERTY
U+W
SciTegic.value.DoubleValue
-50.095

@<SCITEGIC>MOL_PROPERTY
Grad RMS
SciTegic.value.DoubleValue
0.000000

@<SCITEGIC>MOL_PROPERTY
U
SciTegic.value.DoubleValue
9.416

@<SCITEGIC>MOL_PROPERTY
W
SciTegic.value.DoubleValue
-59.512

@<SCITEGIC>MOL_PROPERTY
W(PB)
SciTegic.value.DoubleValue
-61.988

@<SCITEGIC>MOL_PROPERTY
W(SA)
SciTegic.value.DoubleValue
2.476

@<SCITEGIC>MOL_PROPERTY
Valence
SciTegic.value.DoubleValue
8.939

@<SCITEGIC>MOL_PROPERTY
Coulomb
SciTegic.value.DoubleValue
-0.615

@<SCITEGIC>MOL_PROPERTY
VdW
SciTegic.value.DoubleValue
1.092

@<SCITEGIC>MOL_PROPERTY
VdW6
SciTegic.value.DoubleValue
-9.710

@<SCITEGIC>MOL_PROPERTY
VdW12
SciTegic.value.DoubleValue
10.802

@<SCITEGIC>MOL_PROPERTY
Bond
SciTegic.value.DoubleValue
0.216

@<SCITEGIC>MOL_PROPERTY
Angle
SciTegic.value.DoubleValue
2.979

@<SCITEGIC>MOL_PROPERTY
Pdih
SciTegic.value.DoubleValue
5.743

@<SCITEGIC>MOL_PROPERTY
Idih
SciTegic.value.DoubleValue
0.000

@<SCITEGIC>MOL_PROPERTY
Tether
SciTegic.value.DoubleValue
0.000

@<TRIPOS>MOLECULE
guest-8_confgen4.mol2 : confsearch ligand conformer 46
          25          24           1
SMALL
USER_CHARGES
 
@<TRIPOS>ATOM
       1    C1      19.294456   23.085143   24.608844 C.2        1 MOL1         0.6168
       2    O1      18.108365   23.145539   24.866289 O.co2      1 MOL1        -0.6703
       3    O2      20.119853   23.858400   25.053335 O.co2      1 MOL1        -0.6703
       4    C2      19.777042   21.963719   23.695780 C.3        1 MOL1        -0.1963
       5    H1      20.644382   22.331669   23.134823 H          1 MOL1         0.0750
       6    H2      18.981825   21.760808   22.969958 H          1 MOL1         0.0750
       7    C3      20.150715   20.675720   24.474872 C.3        1 MOL1        -0.1860
       8    H3      20.876562   20.937081   25.257345 H          1 MOL1         0.0752
       9    H4      19.262570   20.288672   24.993229 H          1 MOL1         0.0752
      10    C4      20.761694   19.566738   23.585170 C.3        1 MOL1        -0.1858
      11    H5      21.120346   18.764587   24.242751 H          1 MOL1         0.0752
      12    H6      21.643549   19.958762   23.060561 H          1 MOL1         0.0752
      13    C5      19.761048   18.978977   22.559914 C.3        1 MOL1        -0.1858
      14    H7      18.880091   18.586486   23.084206 H          1 MOL1         0.0752
      15    H8      19.394414   19.780532   21.906610 H          1 MOL1         0.0752
      16    C6      20.374565   17.877644   21.658239 C.3        1 MOL1        -0.1858
      17    H9      21.199306   18.312533   21.077420 H          1 MOL1         0.0752
      18    H10     19.619604   17.565228   20.924004 H          1 MOL1         0.0752
      19    C7      20.895540   16.621724   22.400337 C.3        1 MOL1        -0.1834
      20    H11     21.306181   15.923408   21.658197 H          1 MOL1         0.0752
      21    H12     21.732601   16.889168   23.058476 H          1 MOL1         0.0752
      22    C8      19.803908   15.894466   23.214815 C.3        1 MOL1        -0.2849
      23    H13     18.945283   15.638609   22.580560 H          1 MOL1         0.0764
      24    H14     20.199018   14.963707   23.641831 H          1 MOL1         0.0764
      25    H15     19.446384   16.515801   24.045597 H          1 MOL1         0.0764
@<TRIPOS>BOND
    1     1     2    1
    2     1     3    2
    3     1     4    1
    4     4     5    1
    5     4     6    1
    6     4     7    1
    7     7     8    1
    8     7     9    1
    9     7    10    1
   10    10    11    1
   11    10    12    1
   12    10    13    1
   13    13    14    1
   14    13    15    1
   15    13    16    1
   16    16    17    1
   17    16    18    1
   18    16    19    1
   19    19    20    1
   20    19    21    1
   21    19    22    1
   22    22    23    1
   23    22    24    1
   24    22    25    1
@<TRIPOS>SUBSTRUCTURE
       1 MOL1            1 RESIDUE      1      MOL     
@<SCITEGIC>MOL_PROPERTY
VConf Rank
SciTegic.value.IntegerValue
46

@<SCITEGIC>MOL_PROPERTY
Conf_Id
SciTegic.value.IntegerValue
75

@<SCITEGIC>MOL_PROPERTY
Delta U+W
SciTegic.value.DoubleValue
1.014

@<SCITEGIC>MOL_PROPERTY
U+W
SciTegic.value.DoubleValue
-50.615

@<SCITEGIC>MOL_PROPERTY
Grad RMS
SciTegic.value.DoubleValue
0.000000

@<SCITEGIC>MOL_PROPERTY
U
SciTegic.value.DoubleValue
8.474

@<SCITEGIC>MOL_PROPERTY
W
SciTegic.value.DoubleValue
-59.089

@<SCITEGIC>MOL_PROPERTY
W(PB)
SciTegic.value.DoubleValue
-61.530

@<SCITEGIC>MOL_PROPERTY
W(SA)
SciTegic.value.DoubleValue
2.441

@<SCITEGIC>MOL_PROPERTY
Valence
SciTegic.value.DoubleValue
9.080

@<SCITEGIC>MOL_PROPERTY
Coulomb
SciTegic.value.DoubleValue
-1.772

@<SCITEGIC>MOL_PROPERTY
VdW
SciTegic.value.DoubleValue
1.165

@<SCITEGIC>MOL_PROPERTY
VdW6
SciTegic.value.DoubleValue
-9.830

@<SCITEGIC>MOL_PROPERTY
VdW12
SciTegic.value.DoubleValue
10.996

@<SCITEGIC>MOL_PROPERTY
Bond
SciTegic.value.DoubleValue
0.240

@<SCITEGIC>MOL_PROPERTY
Angle
SciTegic.value.DoubleValue
3.225

@<SCITEGIC>MOL_PROPERTY
Pdih
SciTegic.value.DoubleValue
5.615

@<SCITEGIC>MOL_PROPERTY
Idih
SciTegic.value.DoubleValue
0.001

@<SCITEGIC>MOL_PROPERTY
Tether
SciTegic.value.DoubleValue
0.000

@<TRIPOS>MOLECULE
guest-8_confgen4.mol2 : confsearch ligand conformer 47
          25          24           1
SMALL
USER_CHARGES
 
@<TRIPOS>ATOM
       1    C1      24.095325   19.261385   24.659804 C.2        1 MOL1         0.6168
       2    O1      24.164699   18.588501   25.669292 O.co2      1 MOL1        -0.6703
       3    O2      25.038205   19.466502   23.921175 O.co2      1 MOL1        -0.6703
       4    C2      22.745336   19.864144   24.287928 C.3        1 MOL1        -0.1963
       5    H1      22.926917   20.817108   23.776608 H          1 MOL1         0.0750
       6    H2      22.206563   20.091334   25.215676 H          1 MOL1         0.0750
       7    C3      21.895792   18.929823   23.391602 C.3        1 MOL1        -0.1860
       8    H3      22.454120   18.701450   22.473119 H          1 MOL1         0.0752
       9    H4      21.734292   17.975825   23.912507 H          1 MOL1         0.0752
      10    C4      20.533964   19.561608   23.030462 C.3        1 MOL1        -0.1858
      11    H5      20.700290   20.514924   22.510521 H          1 MOL1         0.0752
      12    H6      19.987914   19.797017   23.951671 H          1 MOL1         0.0752
      13    C5      19.691802   18.627153   22.130300 C.3        1 MOL1        -0.1858
      14    H7      20.257330   18.440984   21.207026 H          1 MOL1         0.0752
      15    H8      19.560712   17.648366   22.611559 H          1 MOL1         0.0752
      16    C6      18.311634   19.220900   21.749474 C.3        1 MOL1        -0.1858
      17    H9      18.080526   18.914341   20.720164 H          1 MOL1         0.0752
      18    H10     18.361000   20.318175   21.729805 H          1 MOL1         0.0752
      19    C7      17.138110   18.757255   22.647682 C.3        1 MOL1        -0.1834
      20    H11     16.204308   19.169738   22.241428 H          1 MOL1         0.0752
      21    H12     17.041039   17.664257   22.591371 H          1 MOL1         0.0752
      22    C8      17.265268   19.184172   24.124823 C.3        1 MOL1        -0.2849
      23    H13     17.430354   20.266071   24.209691 H          1 MOL1         0.0764
      24    H14     16.348905   18.936884   24.676076 H          1 MOL1         0.0764
      25    H15     18.096774   18.664133   24.616537 H          1 MOL1         0.0764
@<TRIPOS>BOND
    1     1     2    1
    2     1     3    2
    3     1     4    1
    4     4     5    1
    5     4     6    1
    6     4     7    1
    7     7     8    1
    8     7     9    1
    9     7    10    1
   10    10    11    1
   11    10    12    1
   12    10    13    1
   13    13    14    1
   14    13    15    1
   15    13    16    1
   16    16    17    1
   17    16    18    1
   18    16    19    1
   19    19    20    1
   20    19    21    1
   21    19    22    1
   22    22    23    1
   23    22    24    1
   24    22    25    1
@<TRIPOS>SUBSTRUCTURE
       1 MOL1            1 RESIDUE      1      MOL     
@<SCITEGIC>MOL_PROPERTY
VConf Rank
SciTegic.value.IntegerValue
47

@<SCITEGIC>MOL_PROPERTY
Conf_Id
SciTegic.value.IntegerValue
125

@<SCITEGIC>MOL_PROPERTY
Delta U+W
SciTegic.value.DoubleValue
2.314

@<SCITEGIC>MOL_PROPERTY
U+W
SciTegic.value.DoubleValue
-49.315

@<SCITEGIC>MOL_PROPERTY
Grad RMS
SciTegic.value.DoubleValue
0.000000

@<SCITEGIC>MOL_PROPERTY
U
SciTegic.value.DoubleValue
9.740

@<SCITEGIC>MOL_PROPERTY
W
SciTegic.value.DoubleValue
-59.054

@<SCITEGIC>MOL_PROPERTY
W(PB)
SciTegic.value.DoubleValue
-61.488

@<SCITEGIC>MOL_PROPERTY
W(SA)
SciTegic.value.DoubleValue
2.433

@<SCITEGIC>MOL_PROPERTY
Valence
SciTegic.value.DoubleValue
10.506

@<SCITEGIC>MOL_PROPERTY
Coulomb
SciTegic.value.DoubleValue
-1.761

@<SCITEGIC>MOL_PROPERTY
VdW
SciTegic.value.DoubleValue
0.994

@<SCITEGIC>MOL_PROPERTY
VdW6
SciTegic.value.DoubleValue
-9.209

@<SCITEGIC>MOL_PROPERTY
VdW12
SciTegic.value.DoubleValue
10.203

@<SCITEGIC>MOL_PROPERTY
Bond
SciTegic.value.DoubleValue
0.193

@<SCITEGIC>MOL_PROPERTY
Angle
SciTegic.value.DoubleValue
2.979

@<SCITEGIC>MOL_PROPERTY
Pdih
SciTegic.value.DoubleValue
7.334

@<SCITEGIC>MOL_PROPERTY
Idih
SciTegic.value.DoubleValue
0.001

@<SCITEGIC>MOL_PROPERTY
Tether
SciTegic.value.DoubleValue
0.000

@<TRIPOS>MOLECULE
guest-8_confgen4.mol2 : confsearch ligand conformer 48
          25          24           1
SMALL
USER_CHARGES
 
@<TRIPOS>ATOM
       1    C1      22.685314   22.119004   24.389441 C.2        1 MOL1         0.6168
       2    O1      23.333171   21.662540   25.310645 O.co2      1 MOL1        -0.6703
       3    O2      22.748005   23.278799   24.032109 O.co2      1 MOL1        -0.6703
       4    C2      21.722648   21.191322   23.656844 C.3        1 MOL1        -0.1963
       5    H1      22.162282   20.187608   23.657645 H          1 MOL1         0.0750
       6    H2      21.662250   21.519892   22.612455 H          1 MOL1         0.0750
       7    C3      20.308841   21.170102   24.293978 C.3        1 MOL1        -0.1860
       8    H3      20.376452   20.794884   25.324497 H          1 MOL1         0.0752
       9    H4      19.938085   22.202159   24.363572 H          1 MOL1         0.0752
      10    C4      19.284000   20.328164   23.497112 C.3        1 MOL1        -0.1858
      11    H5      19.211607   20.711802   22.470198 H          1 MOL1         0.0752
      12    H6      18.292987   20.465684   23.950865 H          1 MOL1         0.0752
      13    C5      19.618939   18.818833   23.466602 C.3        1 MOL1        -0.1858
      14    H7      20.576157   18.665265   22.953984 H          1 MOL1         0.0752
      15    H8      19.739621   18.448879   24.493799 H          1 MOL1         0.0752
      16    C6      18.515563   18.005085   22.751352 C.3        1 MOL1        -0.1858
      17    H9      18.424823   18.341149   21.709375 H          1 MOL1         0.0752
      18    H10     17.549369   18.213643   23.230744 H          1 MOL1         0.0752
      19    C7      18.758887   16.478125   22.783041 C.3        1 MOL1        -0.1834
      20    H11     18.844761   16.137623   23.824189 H          1 MOL1         0.0752
      21    H12     17.878531   15.972383   22.363011 H          1 MOL1         0.0752
      22    C8      20.008900   16.040946   21.988732 C.3        1 MOL1        -0.2849
      23    H13     20.928872   16.428486   22.443869 H          1 MOL1         0.0764
      24    H14     20.085639   14.946189   21.966058 H          1 MOL1         0.0764
      25    H15     19.960250   16.397843   20.951734 H          1 MOL1         0.0764
@<TRIPOS>BOND
    1     1     2    1
    2     1     3    2
    3     1     4    1
    4     4     5    1
    5     4     6    1
    6     4     7    1
    7     7     8    1
    8     7     9    1
    9     7    10    1
   10    10    11    1
   11    10    12    1
   12    10    13    1
   13    13    14    1
   14    13    15    1
   15    13    16    1
   16    16    17    1
   17    16    18    1
   18    16    19    1
   19    19    20    1
   20    19    21    1
   21    19    22    1
   22    22    23    1
   23    22    24    1
   24    22    25    1
@<TRIPOS>SUBSTRUCTURE
       1 MOL1            1 RESIDUE      1      MOL     
@<SCITEGIC>MOL_PROPERTY
VConf Rank
SciTegic.value.IntegerValue
48

@<SCITEGIC>MOL_PROPERTY
Conf_Id
SciTegic.value.IntegerValue
4

@<SCITEGIC>MOL_PROPERTY
Delta U+W
SciTegic.value.DoubleValue
0.189

@<SCITEGIC>MOL_PROPERTY
U+W
SciTegic.value.DoubleValue
-51.441

@<SCITEGIC>MOL_PROPERTY
Grad RMS
SciTegic.value.DoubleValue
0.000000

@<SCITEGIC>MOL_PROPERTY
U
SciTegic.value.DoubleValue
7.701

@<SCITEGIC>MOL_PROPERTY
W
SciTegic.value.DoubleValue
-59.141

@<SCITEGIC>MOL_PROPERTY
W(PB)
SciTegic.value.DoubleValue
-61.609

@<SCITEGIC>MOL_PROPERTY
W(SA)
SciTegic.value.DoubleValue
2.467

@<SCITEGIC>MOL_PROPERTY
Valence
SciTegic.value.DoubleValue
8.550

@<SCITEGIC>MOL_PROPERTY
Coulomb
SciTegic.value.DoubleValue
-1.988

@<SCITEGIC>MOL_PROPERTY
VdW
SciTegic.value.DoubleValue
1.139

@<SCITEGIC>MOL_PROPERTY
VdW6
SciTegic.value.DoubleValue
-8.988

@<SCITEGIC>MOL_PROPERTY
VdW12
SciTegic.value.DoubleValue
10.127

@<SCITEGIC>MOL_PROPERTY
Bond
SciTegic.value.DoubleValue
0.191

@<SCITEGIC>MOL_PROPERTY
Angle
SciTegic.value.DoubleValue
2.738

@<SCITEGIC>MOL_PROPERTY
Pdih
SciTegic.value.DoubleValue
5.621

@<SCITEGIC>MOL_PROPERTY
Idih
SciTegic.value.DoubleValue
0.001

@<SCITEGIC>MOL_PROPERTY
Tether
SciTegic.value.DoubleValue
0.000

@<TRIPOS>MOLECULE
guest-8_confgen4.mol2 : confsearch ligand conformer 49
          25          24           1
SMALL
USER_CHARGES
 
@<TRIPOS>ATOM
       1    C1      18.510155   22.454440   25.266970 C.2        1 MOL1         0.6168
       2    O1      18.124057   23.208315   24.395594 O.co2      1 MOL1        -0.6703
       3    O2      18.306613   22.634264   26.451442 O.co2      1 MOL1        -0.6703
       4    C2      19.271742   21.201464   24.849767 C.3        1 MOL1        -0.1963
       5    H1      19.988170   20.958806   25.643621 H          1 MOL1         0.0750
       6    H2      19.850687   21.447240   23.952472 H          1 MOL1         0.0750
       7    C3      18.337312   19.992537   24.584106 C.3        1 MOL1        -0.1860
       8    H3      17.705792   19.833994   25.469259 H          1 MOL1         0.0752
       9    H4      17.655814   20.230709   23.755755 H          1 MOL1         0.0752
      10    C4      19.096592   18.680086   24.275689 C.3        1 MOL1        -0.1858
      11    H5      18.366670   17.860988   24.219100 H          1 MOL1         0.0752
      12    H6      19.769688   18.439512   25.109977 H          1 MOL1         0.0752
      13    C5      19.900748   18.730225   22.955835 C.3        1 MOL1        -0.1858
      14    H7      19.235154   19.019631   22.131340 H          1 MOL1         0.0752
      15    H8      20.678042   19.500411   23.028317 H          1 MOL1         0.0752
      16    C6      20.555613   17.366401   22.635933 C.3        1 MOL1        -0.1858
      17    H9      19.778906   16.589546   22.627782 H          1 MOL1         0.0752
      18    H10     21.257455   17.096206   23.436744 H          1 MOL1         0.0752
      19    C7      21.289146   17.340312   21.274660 C.3        1 MOL1        -0.1834
      20    H11     21.619398   16.312131   21.072167 H          1 MOL1         0.0752
      21    H12     20.588657   17.605042   20.470582 H          1 MOL1         0.0752
      22    C8      22.516819   18.275584   21.222955 C.3        1 MOL1        -0.2849
      23    H13     23.217110   18.050257   22.037774 H          1 MOL1         0.0764
      24    H14     23.052953   18.152866   20.273009 H          1 MOL1         0.0764
      25    H15     22.221768   19.329219   21.303483 H          1 MOL1         0.0764
@<TRIPOS>BOND
    1     1     2    1
    2     1     3    2
    3     1     4    1
    4     4     5    1
    5     4     6    1
    6     4     7    1
    7     7     8    1
    8     7     9    1
    9     7    10    1
   10    10    11    1
   11    10    12    1
   12    10    13    1
   13    13    14    1
   14    13    15    1
   15    13    16    1
   16    16    17    1
   17    16    18    1
   18    16    19    1
   19    19    20    1
   20    19    21    1
   21    19    22    1
   22    22    23    1
   23    22    24    1
   24    22    25    1
@<TRIPOS>SUBSTRUCTURE
       1 MOL1            1 RESIDUE      1      MOL     
@<SCITEGIC>MOL_PROPERTY
VConf Rank
SciTegic.value.IntegerValue
49

@<SCITEGIC>MOL_PROPERTY
Conf_Id
SciTegic.value.IntegerValue
17

@<SCITEGIC>MOL_PROPERTY
Delta U+W
SciTegic.value.DoubleValue
0.219

@<SCITEGIC>MOL_PROPERTY
U+W
SciTegic.value.DoubleValue
-51.411

@<SCITEGIC>MOL_PROPERTY
Grad RMS
SciTegic.value.DoubleValue
0.000000

@<SCITEGIC>MOL_PROPERTY
U
SciTegic.value.DoubleValue
7.701

@<SCITEGIC>MOL_PROPERTY
W
SciTegic.value.DoubleValue
-59.111

@<SCITEGIC>MOL_PROPERTY
W(PB)
SciTegic.value.DoubleValue
-61.599

@<SCITEGIC>MOL_PROPERTY
W(SA)
SciTegic.value.DoubleValue
2.488

@<SCITEGIC>MOL_PROPERTY
Valence
SciTegic.value.DoubleValue
8.550

@<SCITEGIC>MOL_PROPERTY
Coulomb
SciTegic.value.DoubleValue
-1.988

@<SCITEGIC>MOL_PROPERTY
VdW
SciTegic.value.DoubleValue
1.139

@<SCITEGIC>MOL_PROPERTY
VdW6
SciTegic.value.DoubleValue
-8.988

@<SCITEGIC>MOL_PROPERTY
VdW12
SciTegic.value.DoubleValue
10.127

@<SCITEGIC>MOL_PROPERTY
Bond
SciTegic.value.DoubleValue
0.191

@<SCITEGIC>MOL_PROPERTY
Angle
SciTegic.value.DoubleValue
2.738

@<SCITEGIC>MOL_PROPERTY
Pdih
SciTegic.value.DoubleValue
5.621

@<SCITEGIC>MOL_PROPERTY
Idih
SciTegic.value.DoubleValue
0.001

@<SCITEGIC>MOL_PROPERTY
Tether
SciTegic.value.DoubleValue
0.000

@<TRIPOS>MOLECULE
guest-8_confgen4.mol2 : confsearch ligand conformer 50
          25          24           1
SMALL
USER_CHARGES
 
@<TRIPOS>ATOM
       1    C1      22.268610   22.260437   24.128184 C.2        1 MOL1         0.6168
       2    O1      23.118402   22.359029   23.264938 O.co2      1 MOL1        -0.6703
       3    O2      22.516755   22.008086   25.290862 O.co2      1 MOL1        -0.6703
       4    C2      20.810721   22.484556   23.736696 C.3        1 MOL1        -0.1963
       5    H1      20.783592   23.038258   22.790413 H          1 MOL1         0.0750
       6    H2      20.362580   23.134428   24.497497 H          1 MOL1         0.0750
       7    C3      19.983243   21.178361   23.618233 C.3        1 MOL1        -0.1860
       8    H3      20.041435   20.633321   24.569659 H          1 MOL1         0.0752
       9    H4      18.927155   21.437707   23.464339 H          1 MOL1         0.0752
      10    C4      20.462878   20.277310   22.455130 C.3        1 MOL1        -0.1858
      11    H5      21.497462   19.954182   22.635535 H          1 MOL1         0.0752
      12    H6      20.480878   20.868687   21.529497 H          1 MOL1         0.0752
      13    C5      19.567683   19.036067   22.227831 C.3        1 MOL1        -0.1858
      14    H7      18.534275   19.357093   22.038467 H          1 MOL1         0.0752
      15    H8      19.906414   18.525529   21.315981 H          1 MOL1         0.0752
      16    C6      19.595052   18.033200   23.404496 C.3        1 MOL1        -0.1858
      17    H9      19.188246   18.504762   24.308413 H          1 MOL1         0.0752
      18    H10     20.634737   17.756622   23.626877 H          1 MOL1         0.0752
      19    C7      18.779944   16.761300   23.088876 C.3        1 MOL1        -0.1834
      20    H11     17.739668   17.034763   22.864147 H          1 MOL1         0.0752
      21    H12     19.183793   16.275476   22.189818 H          1 MOL1         0.0752
      22    C8      18.805127   15.763890   24.264572 C.3        1 MOL1        -0.2849
      23    H13     18.376643   16.213158   25.170079 H          1 MOL1         0.0764
      24    H14     18.221484   14.866099   24.022934 H          1 MOL1         0.0764
      25    H15     19.832426   15.449609   24.490989 H          1 MOL1         0.0764
@<TRIPOS>BOND
    1     1     2    1
    2     1     3    2
    3     1     4    1
    4     4     5    1
    5     4     6    1
    6     4     7    1
    7     7     8    1
    8     7     9    1
    9     7    10    1
   10    10    11    1
   11    10    12    1
   12    10    13    1
   13    13    14    1
   14    13    15    1
   15    13    16    1
   16    16    17    1
   17    16    18    1
   18    16    19    1
   19    19    20    1
   20    19    21    1
   21    19    22    1
   22    22    23    1
   23    22    24    1
   24    22    25    1
@<TRIPOS>SUBSTRUCTURE
       1 MOL1            1 RESIDUE      1      MOL     
@<SCITEGIC>MOL_PROPERTY
VConf Rank
SciTegic.value.IntegerValue
50

@<SCITEGIC>MOL_PROPERTY
Conf_Id
SciTegic.value.IntegerValue
142

@<SCITEGIC>MOL_PROPERTY
Delta U+W
SciTegic.value.DoubleValue
0.593

@<SCITEGIC>MOL_PROPERTY
U+W
SciTegic.value.DoubleValue
-51.037

@<SCITEGIC>MOL_PROPERTY
Grad RMS
SciTegic.value.DoubleValue
0.000000

@<SCITEGIC>MOL_PROPERTY
U
SciTegic.value.DoubleValue
8.903

@<SCITEGIC>MOL_PROPERTY
W
SciTegic.value.DoubleValue
-59.940

@<SCITEGIC>MOL_PROPERTY
W(PB)
SciTegic.value.DoubleValue
-62.418

@<SCITEGIC>MOL_PROPERTY
W(SA)
SciTegic.value.DoubleValue
2.478

@<SCITEGIC>MOL_PROPERTY
Valence
SciTegic.value.DoubleValue
8.305

@<SCITEGIC>MOL_PROPERTY
Coulomb
SciTegic.value.DoubleValue
-0.223

@<SCITEGIC>MOL_PROPERTY
VdW
SciTegic.value.DoubleValue
0.821

@<SCITEGIC>MOL_PROPERTY
VdW6
SciTegic.value.DoubleValue
-9.236

@<SCITEGIC>MOL_PROPERTY
VdW12
SciTegic.value.DoubleValue
10.057

@<SCITEGIC>MOL_PROPERTY
Bond
SciTegic.value.DoubleValue
0.173

@<SCITEGIC>MOL_PROPERTY
Angle
SciTegic.value.DoubleValue
2.663

@<SCITEGIC>MOL_PROPERTY
Pdih
SciTegic.value.DoubleValue
5.469

@<SCITEGIC>MOL_PROPERTY
Idih
SciTegic.value.DoubleValue
0.001

@<SCITEGIC>MOL_PROPERTY
Tether
SciTegic.value.DoubleValue
0.000

@<TRIPOS>MOLECULE
guest-8_confgen4.mol2 : confsearch ligand conformer 51
          25          24           1
SMALL
USER_CHARGES
 
@<TRIPOS>ATOM
       1    C1      17.289823   17.546176   22.420232 C.2        1 MOL1         0.6168
       2    O1      16.120097   17.483624   22.744865 O.co2      1 MOL1        -0.6703
       3    O2      17.663995   17.618380   21.266179 O.co2      1 MOL1        -0.6703
       4    C2      18.344543   17.503686   23.522365 C.3        1 MOL1        -0.1963
       5    H1      19.318811   17.289276   23.068350 H          1 MOL1         0.0750
       6    H2      18.107988   16.649774   24.167652 H          1 MOL1         0.0750
       7    C3      18.414719   18.794760   24.382792 C.3        1 MOL1        -0.1860
       8    H3      17.444347   18.941570   24.876756 H          1 MOL1         0.0752
       9    H4      19.144244   18.651918   25.190404 H          1 MOL1         0.0752
      10    C4      18.763645   20.078025   23.585217 C.3        1 MOL1        -0.1858
      11    H5      18.782069   20.929925   24.278416 H          1 MOL1         0.0752
      12    H6      17.954149   20.287081   22.872408 H          1 MOL1         0.0752
      13    C5      20.104871   20.032100   22.811053 C.3        1 MOL1        -0.1858
      14    H7      20.061733   19.256142   22.035049 H          1 MOL1         0.0752
      15    H8      20.229011   20.985191   22.279319 H          1 MOL1         0.0752
      16    C6      21.334838   19.798976   23.718522 C.3        1 MOL1        -0.1858
      17    H9      21.260856   18.816274   24.202185 H          1 MOL1         0.0752
      18    H10     21.348512   20.551325   24.518809 H          1 MOL1         0.0752
      19    C7      22.653879   19.870038   22.920702 C.3        1 MOL1        -0.1834
      20    H11     22.641129   19.119887   22.117841 H          1 MOL1         0.0752
      21    H12     22.742830   20.853085   22.437918 H          1 MOL1         0.0752
      22    C8      23.879138   19.631319   23.825934 C.3        1 MOL1        -0.2849
      23    H13     23.832206   18.640829   24.297201 H          1 MOL1         0.0764
      24    H14     24.807541   19.685519   23.242697 H          1 MOL1         0.0764
      25    H15     23.933366   20.386882   24.620627 H          1 MOL1         0.0764
@<TRIPOS>BOND
    1     1     2    1
    2     1     3    2
    3     1     4    1
    4     4     5    1
    5     4     6    1
    6     4     7    1
    7     7     8    1
    8     7     9    1
    9     7    10    1
   10    10    11    1
   11    10    12    1
   12    10    13    1
   13    13    14    1
   14    13    15    1
   15    13    16    1
   16    16    17    1
   17    16    18    1
   18    16    19    1
   19    19    20    1
   20    19    21    1
   21    19    22    1
   22    22    23    1
   23    22    24    1
   24    22    25    1
@<TRIPOS>SUBSTRUCTURE
       1 MOL1            1 RESIDUE      1      MOL     
@<SCITEGIC>MOL_PROPERTY
VConf Rank
SciTegic.value.IntegerValue
51

@<SCITEGIC>MOL_PROPERTY
Conf_Id
SciTegic.value.IntegerValue
135

@<SCITEGIC>MOL_PROPERTY
Delta U+W
SciTegic.value.DoubleValue
1.314

@<SCITEGIC>MOL_PROPERTY
U+W
SciTegic.value.DoubleValue
-50.316

@<SCITEGIC>MOL_PROPERTY
Grad RMS
SciTegic.value.DoubleValue
0.000000

@<SCITEGIC>MOL_PROPERTY
U
SciTegic.value.DoubleValue
9.773

@<SCITEGIC>MOL_PROPERTY
W
SciTegic.value.DoubleValue
-60.088

@<SCITEGIC>MOL_PROPERTY
W(PB)
SciTegic.value.DoubleValue
-62.535

@<SCITEGIC>MOL_PROPERTY
W(SA)
SciTegic.value.DoubleValue
2.447

@<SCITEGIC>MOL_PROPERTY
Valence
SciTegic.value.DoubleValue
8.741

@<SCITEGIC>MOL_PROPERTY
Coulomb
SciTegic.value.DoubleValue
0.479

@<SCITEGIC>MOL_PROPERTY
VdW
SciTegic.value.DoubleValue
0.552

@<SCITEGIC>MOL_PROPERTY
VdW6
SciTegic.value.DoubleValue
-10.627

@<SCITEGIC>MOL_PROPERTY
VdW12
SciTegic.value.DoubleValue
11.179

@<SCITEGIC>MOL_PROPERTY
Bond
SciTegic.value.DoubleValue
0.227

@<SCITEGIC>MOL_PROPERTY
Angle
SciTegic.value.DoubleValue
3.155

@<SCITEGIC>MOL_PROPERTY
Pdih
SciTegic.value.DoubleValue
5.358

@<SCITEGIC>MOL_PROPERTY
Idih
SciTegic.value.DoubleValue
0.001

@<SCITEGIC>MOL_PROPERTY
Tether
SciTegic.value.DoubleValue
0.000

@<TRIPOS>MOLECULE
guest-8_confgen4.mol2 : confsearch ligand conformer 52
          25          24           1
SMALL
USER_CHARGES
 
@<TRIPOS>ATOM
       1    C1      17.625858   19.713279   19.880975 C.2        1 MOL1         0.6168
       2    O1      18.171850   19.430000   18.832936 O.co2      1 MOL1        -0.6703
       3    O2      16.419758   19.774226   20.016547 O.co2      1 MOL1        -0.6703
       4    C2      18.501723   19.985045   21.098836 C.3        1 MOL1        -0.1963
       5    H1      17.986562   20.718103   21.730962 H          1 MOL1         0.0750
       6    H2      19.426626   20.453423   20.744790 H          1 MOL1         0.0750
       7    C3      18.811763   18.701240   21.912192 C.3        1 MOL1        -0.1860
       8    H3      17.862258   18.209238   22.164819 H          1 MOL1         0.0752
       9    H4      19.369924   17.993030   21.284358 H          1 MOL1         0.0752
      10    C4      19.592147   18.968464   23.221591 C.3        1 MOL1        -0.1858
      11    H5      19.622804   18.031635   23.792030 H          1 MOL1         0.0752
      12    H6      19.044757   19.695803   23.836344 H          1 MOL1         0.0752
      13    C5      21.039688   19.462448   22.986932 C.3        1 MOL1        -0.1858
      14    H7      21.596844   18.702640   22.422250 H          1 MOL1         0.0752
      15    H8      21.023434   20.362366   22.359749 H          1 MOL1         0.0752
      16    C6      21.811574   19.806488   24.285892 C.3        1 MOL1        -0.1858
      17    H9      21.312742   20.631683   24.812320 H          1 MOL1         0.0752
      18    H10     22.796661   20.193571   23.991541 H          1 MOL1         0.0752
      19    C7      22.031463   18.611581   25.247166 C.3        1 MOL1        -0.1834
      20    H11     22.034916   17.666614   24.686577 H          1 MOL1         0.0752
      21    H12     23.029269   18.702125   25.698260 H          1 MOL1         0.0752
      22    C8      20.994036   18.552951   26.390657 C.3        1 MOL1        -0.2849
      23    H13     19.971401   18.453192   26.009364 H          1 MOL1         0.0764
      24    H14     21.192982   17.695309   27.046156 H          1 MOL1         0.0764
      25    H15     21.038676   19.461923   27.004546 H          1 MOL1         0.0764
@<TRIPOS>BOND
    1     1     2    1
    2     1     3    2
    3     1     4    1
    4     4     5    1
    5     4     6    1
    6     4     7    1
    7     7     8    1
    8     7     9    1
    9     7    10    1
   10    10    11    1
   11    10    12    1
   12    10    13    1
   13    13    14    1
   14    13    15    1
   15    13    16    1
   16    16    17    1
   17    16    18    1
   18    16    19    1
   19    19    20    1
   20    19    21    1
   21    19    22    1
   22    22    23    1
   23    22    24    1
   24    22    25    1
@<TRIPOS>SUBSTRUCTURE
       1 MOL1            1 RESIDUE      1      MOL     
@<SCITEGIC>MOL_PROPERTY
VConf Rank
SciTegic.value.IntegerValue
52

@<SCITEGIC>MOL_PROPERTY
Conf_Id
SciTegic.value.IntegerValue
19

@<SCITEGIC>MOL_PROPERTY
Delta U+W
SciTegic.value.DoubleValue
3.222

@<SCITEGIC>MOL_PROPERTY
U+W
SciTegic.value.DoubleValue
-48.407

@<SCITEGIC>MOL_PROPERTY
Grad RMS
SciTegic.value.DoubleValue
0.000000

@<SCITEGIC>MOL_PROPERTY
U
SciTegic.value.DoubleValue
10.617

@<SCITEGIC>MOL_PROPERTY
W
SciTegic.value.DoubleValue
-59.025

@<SCITEGIC>MOL_PROPERTY
W(PB)
SciTegic.value.DoubleValue
-61.462

@<SCITEGIC>MOL_PROPERTY
W(SA)
SciTegic.value.DoubleValue
2.437

@<SCITEGIC>MOL_PROPERTY
Valence
SciTegic.value.DoubleValue
11.188

@<SCITEGIC>MOL_PROPERTY
Coulomb
SciTegic.value.DoubleValue
-1.778

@<SCITEGIC>MOL_PROPERTY
VdW
SciTegic.value.DoubleValue
1.208

@<SCITEGIC>MOL_PROPERTY
VdW6
SciTegic.value.DoubleValue
-9.786

@<SCITEGIC>MOL_PROPERTY
VdW12
SciTegic.value.DoubleValue
10.993

@<SCITEGIC>MOL_PROPERTY
Bond
SciTegic.value.DoubleValue
0.241

@<SCITEGIC>MOL_PROPERTY
Angle
SciTegic.value.DoubleValue
3.294

@<SCITEGIC>MOL_PROPERTY
Pdih
SciTegic.value.DoubleValue
7.653

@<SCITEGIC>MOL_PROPERTY
Idih
SciTegic.value.DoubleValue
0.001

@<SCITEGIC>MOL_PROPERTY
Tether
SciTegic.value.DoubleValue
0.000

@<TRIPOS>MOLECULE
guest-8_confgen4.mol2 : confsearch ligand conformer 53
          25          24           1
SMALL
USER_CHARGES
 
@<TRIPOS>ATOM
       1    C1      16.893049   18.866330   25.978195 C.2        1 MOL1         0.6168
       2    O1      16.295902   19.909835   26.154984 O.co2      1 MOL1        -0.6703
       3    O2      16.847421   17.926221   26.746884 O.co2      1 MOL1        -0.6703
       4    C2      17.766249   18.737970   24.735123 C.3        1 MOL1        -0.1963
       5    H1      17.289814   19.313372   23.933815 H          1 MOL1         0.0750
       6    H2      17.764639   17.685914   24.426057 H          1 MOL1         0.0750
       7    C3      19.220130   19.223934   24.971553 C.3        1 MOL1        -0.1860
       8    H3      19.214013   20.290963   25.233651 H          1 MOL1         0.0752
       9    H4      19.629053   18.693523   25.842698 H          1 MOL1         0.0752
      10    C4      20.158855   18.986227   23.764397 C.3        1 MOL1        -0.1858
      11    H5      20.144006   17.923170   23.488228 H          1 MOL1         0.0752
      12    H6      21.183022   19.215652   24.084452 H          1 MOL1         0.0752
      13    C5      19.810336   19.854390   22.531802 C.3        1 MOL1        -0.1858
      14    H7      18.765606   19.682084   22.244872 H          1 MOL1         0.0752
      15    H8      19.885258   20.916593   22.801446 H          1 MOL1         0.0752
      16    C6      20.693080   19.575854   21.288960 C.3        1 MOL1        -0.1858
      17    H9      20.319095   20.206310   20.470712 H          1 MOL1         0.0752
      18    H10     20.553599   18.539091   20.953440 H          1 MOL1         0.0752
      19    C7      22.200079   19.879800   21.480723 C.3        1 MOL1        -0.1834
      20    H11     22.593984   20.307578   20.548442 H          1 MOL1         0.0752
      21    H12     22.338804   20.649916   22.252027 H          1 MOL1         0.0752
      22    C8      23.034563   18.624513   21.820070 C.3        1 MOL1        -0.2849
      23    H13     22.964355   17.880579   21.015884 H          1 MOL1         0.0764
      24    H14     24.093080   18.888276   21.941625 H          1 MOL1         0.0764
      25    H15     22.698656   18.149880   22.749052 H          1 MOL1         0.0764
@<TRIPOS>BOND
    1     1     2    1
    2     1     3    2
    3     1     4    1
    4     4     5    1
    5     4     6    1
    6     4     7    1
    7     7     8    1
    8     7     9    1
    9     7    10    1
   10    10    11    1
   11    10    12    1
   12    10    13    1
   13    13    14    1
   14    13    15    1
   15    13    16    1
   16    16    17    1
   17    16    18    1
   18    16    19    1
   19    19    20    1
   20    19    21    1
   21    19    22    1
   22    22    23    1
   23    22    24    1
   24    22    25    1
@<TRIPOS>SUBSTRUCTURE
       1 MOL1            1 RESIDUE      1      MOL     
@<SCITEGIC>MOL_PROPERTY
VConf Rank
SciTegic.value.IntegerValue
53

@<SCITEGIC>MOL_PROPERTY
Conf_Id
SciTegic.value.IntegerValue
20

@<SCITEGIC>MOL_PROPERTY
Delta U+W
SciTegic.value.DoubleValue
3.224

@<SCITEGIC>MOL_PROPERTY
U+W
SciTegic.value.DoubleValue
-48.406

@<SCITEGIC>MOL_PROPERTY
Grad RMS
SciTegic.value.DoubleValue
0.000000

@<SCITEGIC>MOL_PROPERTY
U
SciTegic.value.DoubleValue
10.617

@<SCITEGIC>MOL_PROPERTY
W
SciTegic.value.DoubleValue
-59.023

@<SCITEGIC>MOL_PROPERTY
W(PB)
SciTegic.value.DoubleValue
-61.467

@<SCITEGIC>MOL_PROPERTY
W(SA)
SciTegic.value.DoubleValue
2.444

@<SCITEGIC>MOL_PROPERTY
Valence
SciTegic.value.DoubleValue
11.188

@<SCITEGIC>MOL_PROPERTY
Coulomb
SciTegic.value.DoubleValue
-1.778

@<SCITEGIC>MOL_PROPERTY
VdW
SciTegic.value.DoubleValue
1.208

@<SCITEGIC>MOL_PROPERTY
VdW6
SciTegic.value.DoubleValue
-9.786

@<SCITEGIC>MOL_PROPERTY
VdW12
SciTegic.value.DoubleValue
10.993

@<SCITEGIC>MOL_PROPERTY
Bond
SciTegic.value.DoubleValue
0.241

@<SCITEGIC>MOL_PROPERTY
Angle
SciTegic.value.DoubleValue
3.294

@<SCITEGIC>MOL_PROPERTY
Pdih
SciTegic.value.DoubleValue
7.653

@<SCITEGIC>MOL_PROPERTY
Idih
SciTegic.value.DoubleValue
0.001

@<SCITEGIC>MOL_PROPERTY
Tether
SciTegic.value.DoubleValue
0.000

@<TRIPOS>MOLECULE
guest-8_confgen4.mol2 : confsearch ligand conformer 54
          25          24           1
SMALL
USER_CHARGES
 
@<TRIPOS>ATOM
       1    C1      20.009844   19.388021   20.368683 C.2        1 MOL1         0.6168
       2    O1      21.167762   19.173950   20.066945 O.co2      1 MOL1        -0.6703
       3    O2      19.510548   20.496136   20.368160 O.co2      1 MOL1        -0.6703
       4    C2      19.115311   18.195675   20.702617 C.3        1 MOL1        -0.1963
       5    H1      19.060385   17.587412   19.792415 H          1 MOL1         0.0750
       6    H2      18.098870   18.556921   20.900448 H          1 MOL1         0.0750
       7    C3      19.608527   17.304786   21.877421 C.3        1 MOL1        -0.1860
       8    H3      19.122819   16.323874   21.786155 H          1 MOL1         0.0752
       9    H4      20.686934   17.118009   21.778693 H          1 MOL1         0.0752
      10    C4      19.292543   17.857900   23.289265 C.3        1 MOL1        -0.1858
      11    H5      19.547078   17.082707   24.024976 H          1 MOL1         0.0752
      12    H6      18.211993   18.031260   23.385137 H          1 MOL1         0.0752
      13    C5      20.059580   19.151473   23.645569 C.3        1 MOL1        -0.1858
      14    H7      21.131413   19.010656   23.449635 H          1 MOL1         0.0752
      15    H8      19.720714   19.974468   23.003812 H          1 MOL1         0.0752
      16    C6      19.851447   19.550491   25.122740 C.3        1 MOL1        -0.1858
      17    H9      20.195316   18.736657   25.775729 H          1 MOL1         0.0752
      18    H10     18.778821   19.686119   25.317957 H          1 MOL1         0.0752
      19    C7      20.607719   20.848279   25.476540 C.3        1 MOL1        -0.1834
      20    H11     21.681234   20.715613   25.283093 H          1 MOL1         0.0752
      21    H12     20.265100   21.665257   24.826336 H          1 MOL1         0.0752
      22    C8      20.397622   21.244514   26.951845 C.3        1 MOL1        -0.2849
      23    H13     20.761093   20.457476   27.625515 H          1 MOL1         0.0764
      24    H14     20.941990   22.168704   27.185513 H          1 MOL1         0.0764
      25    H15     19.334145   21.414366   27.165250 H          1 MOL1         0.0764
@<TRIPOS>BOND
    1     1     2    1
    2     1     3    2
    3     1     4    1
    4     4     5    1
    5     4     6    1
    6     4     7    1
    7     7     8    1
    8     7     9    1
    9     7    10    1
   10    10    11    1
   11    10    12    1
   12    10    13    1
   13    13    14    1
   14    13    15    1
   15    13    16    1
   16    16    17    1
   17    16    18    1
   18    16    19    1
   19    19    20    1
   20    19    21    1
   21    19    22    1
   22    22    23    1
   23    22    24    1
   24    22    25    1
@<TRIPOS>SUBSTRUCTURE
       1 MOL1            1 RESIDUE      1      MOL     
@<SCITEGIC>MOL_PROPERTY
VConf Rank
SciTegic.value.IntegerValue
54

@<SCITEGIC>MOL_PROPERTY
Conf_Id
SciTegic.value.IntegerValue
24

@<SCITEGIC>MOL_PROPERTY
Delta U+W
SciTegic.value.DoubleValue
1.784

@<SCITEGIC>MOL_PROPERTY
U+W
SciTegic.value.DoubleValue
-49.846

@<SCITEGIC>MOL_PROPERTY
Grad RMS
SciTegic.value.DoubleValue
0.000000

@<SCITEGIC>MOL_PROPERTY
U
SciTegic.value.DoubleValue
10.904

@<SCITEGIC>MOL_PROPERTY
W
SciTegic.value.DoubleValue
-60.749

@<SCITEGIC>MOL_PROPERTY
W(PB)
SciTegic.value.DoubleValue
-63.220

@<SCITEGIC>MOL_PROPERTY
W(SA)
SciTegic.value.DoubleValue
2.471

@<SCITEGIC>MOL_PROPERTY
Valence
SciTegic.value.DoubleValue
9.445

@<SCITEGIC>MOL_PROPERTY
Coulomb
SciTegic.value.DoubleValue
0.780

@<SCITEGIC>MOL_PROPERTY
VdW
SciTegic.value.DoubleValue
0.679

@<SCITEGIC>MOL_PROPERTY
VdW6
SciTegic.value.DoubleValue
-10.008

@<SCITEGIC>MOL_PROPERTY
VdW12
SciTegic.value.DoubleValue
10.687

@<SCITEGIC>MOL_PROPERTY
Bond
SciTegic.value.DoubleValue
0.201

@<SCITEGIC>MOL_PROPERTY
Angle
SciTegic.value.DoubleValue
3.198

@<SCITEGIC>MOL_PROPERTY
Pdih
SciTegic.value.DoubleValue
6.039

@<SCITEGIC>MOL_PROPERTY
Idih
SciTegic.value.DoubleValue
0.006

@<SCITEGIC>MOL_PROPERTY
Tether
SciTegic.value.DoubleValue
0.000

@<TRIPOS>MOLECULE
guest-8_confgen4.mol2 : confsearch ligand conformer 55
          25          24           1
SMALL
USER_CHARGES
 
@<TRIPOS>ATOM
       1    C1      18.946353   20.035215   20.793153 C.2        1 MOL1         0.6168
       2    O1      18.021450   20.770581   21.078518 O.co2      1 MOL1        -0.6703
       3    O2      20.039222   20.436607   20.444242 O.co2      1 MOL1        -0.6703
       4    C2      18.704859   18.526963   20.808835 C.3        1 MOL1        -0.1963
       5    H1      19.618047   18.016260   20.480114 H          1 MOL1         0.0750
       6    H2      17.942953   18.329108   20.046063 H          1 MOL1         0.0750
       7    C3      18.222603   17.946475   22.168087 C.3        1 MOL1        -0.1860
       8    H3      17.440243   18.590133   22.593777 H          1 MOL1         0.0752
       9    H4      17.742984   16.977977   21.972115 H          1 MOL1         0.0752
      10    C4      19.344728   17.714672   23.210291 C.3        1 MOL1        -0.1858
      11    H5      20.117211   17.061032   22.782669 H          1 MOL1         0.0752
      12    H6      18.914100   17.168044   24.060432 H          1 MOL1         0.0752
      13    C5      19.996302   19.014402   23.734485 C.3        1 MOL1        -0.1858
      14    H7      20.545406   19.509336   22.923602 H          1 MOL1         0.0752
      15    H8      19.214399   19.711305   24.066148 H          1 MOL1         0.0752
      16    C6      20.969594   18.735473   24.900449 C.3        1 MOL1        -0.1858
      17    H9      21.747847   18.034703   24.568372 H          1 MOL1         0.0752
      18    H10     20.428657   18.247098   25.722545 H          1 MOL1         0.0752
      19    C7      21.629417   20.031298   25.417019 C.3        1 MOL1        -0.1834
      20    H11     22.173099   20.521827   24.597631 H          1 MOL1         0.0752
      21    H12     20.853506   20.734229   25.750645 H          1 MOL1         0.0752
      22    C8      22.600955   19.749684   26.580839 C.3        1 MOL1        -0.2849
      23    H13     23.406058   19.073168   26.265387 H          1 MOL1         0.0764
      24    H14     23.060605   20.681472   26.935177 H          1 MOL1         0.0764
      25    H15     22.076407   19.287242   27.427225 H          1 MOL1         0.0764
@<TRIPOS>BOND
    1     1     2    1
    2     1     3    2
    3     1     4    1
    4     4     5    1
    5     4     6    1
    6     4     7    1
    7     7     8    1
    8     7     9    1
    9     7    10    1
   10    10    11    1
   11    10    12    1
   12    10    13    1
   13    13    14    1
   14    13    15    1
   15    13    16    1
   16    16    17    1
   17    16    18    1
   18    16    19    1
   19    19    20    1
   20    19    21    1
   21    19    22    1
   22    22    23    1
   23    22    24    1
   24    22    25    1
@<TRIPOS>SUBSTRUCTURE
       1 MOL1            1 RESIDUE      1      MOL     
@<SCITEGIC>MOL_PROPERTY
VConf Rank
SciTegic.value.IntegerValue
55

@<SCITEGIC>MOL_PROPERTY
Conf_Id
SciTegic.value.IntegerValue
9

@<SCITEGIC>MOL_PROPERTY
Delta U+W
SciTegic.value.DoubleValue
1.764

@<SCITEGIC>MOL_PROPERTY
U+W
SciTegic.value.DoubleValue
-49.865

@<SCITEGIC>MOL_PROPERTY
Grad RMS
SciTegic.value.DoubleValue
0.000000

@<SCITEGIC>MOL_PROPERTY
U
SciTegic.value.DoubleValue
10.902

@<SCITEGIC>MOL_PROPERTY
W
SciTegic.value.DoubleValue
-60.768

@<SCITEGIC>MOL_PROPERTY
W(PB)
SciTegic.value.DoubleValue
-63.223

@<SCITEGIC>MOL_PROPERTY
W(SA)
SciTegic.value.DoubleValue
2.456

@<SCITEGIC>MOL_PROPERTY
Valence
SciTegic.value.DoubleValue
9.445

@<SCITEGIC>MOL_PROPERTY
Coulomb
SciTegic.value.DoubleValue
0.778

@<SCITEGIC>MOL_PROPERTY
VdW
SciTegic.value.DoubleValue
0.679

@<SCITEGIC>MOL_PROPERTY
VdW6
SciTegic.value.DoubleValue
-10.007

@<SCITEGIC>MOL_PROPERTY
VdW12
SciTegic.value.DoubleValue
10.687

@<SCITEGIC>MOL_PROPERTY
Bond
SciTegic.value.DoubleValue
0.201

@<SCITEGIC>MOL_PROPERTY
Angle
SciTegic.value.DoubleValue
3.198

@<SCITEGIC>MOL_PROPERTY
Pdih
SciTegic.value.DoubleValue
6.040

@<SCITEGIC>MOL_PROPERTY
Idih
SciTegic.value.DoubleValue
0.006

@<SCITEGIC>MOL_PROPERTY
Tether
SciTegic.value.DoubleValue
0.000

@<TRIPOS>MOLECULE
guest-8_confgen4.mol2 : confsearch ligand conformer 56
          25          24           1
SMALL
USER_CHARGES
 
@<TRIPOS>ATOM
       1    C1      17.467676   16.458323   23.532572 C.2        1 MOL1         0.6168
       2    O1      17.277311   16.645279   24.718073 O.co2      1 MOL1        -0.6703
       3    O2      16.719069   15.814953   22.823692 O.co2      1 MOL1        -0.6703
       4    C2      18.703370   17.082426   22.894393 C.3        1 MOL1        -0.1963
       5    H1      19.044396   16.414515   22.094485 H          1 MOL1         0.0750
       6    H2      19.494715   17.105172   23.649853 H          1 MOL1         0.0750
       7    C3      18.432538   18.499889   22.324222 C.3        1 MOL1        -0.1860
       8    H3      17.638392   18.414031   21.569637 H          1 MOL1         0.0752
       9    H4      18.035635   19.155157   23.111945 H          1 MOL1         0.0752
      10    C4      19.675604   19.148004   21.663143 C.3        1 MOL1        -0.1858
      11    H5      19.334374   19.743047   20.805003 H          1 MOL1         0.0752
      12    H6      20.333366   18.373285   21.246012 H          1 MOL1         0.0752
      13    C5      20.483284   20.090667   22.590397 C.3        1 MOL1        -0.1858
      14    H7      21.283566   20.554475   21.997962 H          1 MOL1         0.0752
      15    H8      19.831795   20.908921   22.924235 H          1 MOL1         0.0752
      16    C6      21.110359   19.389465   23.818511 C.3        1 MOL1        -0.1858
      17    H9      21.633580   18.482614   23.486460 H          1 MOL1         0.0752
      18    H10     20.317929   19.066626   24.506317 H          1 MOL1         0.0752
      19    C7      22.111398   20.282565   24.587814 C.3        1 MOL1        -0.1834
      20    H11     22.582516   19.683719   25.379392 H          1 MOL1         0.0752
      21    H12     22.920424   20.598428   23.914804 H          1 MOL1         0.0752
      22    C8      21.453317   21.524487   25.227256 C.3        1 MOL1        -0.2849
      23    H13     20.624143   21.234293   25.885589 H          1 MOL1         0.0764
      24    H14     22.184427   22.079865   25.828824 H          1 MOL1         0.0764
      25    H15     21.063168   22.208405   24.463114 H          1 MOL1         0.0764
@<TRIPOS>BOND
    1     1     2    1
    2     1     3    2
    3     1     4    1
    4     4     5    1
    5     4     6    1
    6     4     7    1
    7     7     8    1
    8     7     9    1
    9     7    10    1
   10    10    11    1
   11    10    12    1
   12    10    13    1
   13    13    14    1
   14    13    15    1
   15    13    16    1
   16    16    17    1
   17    16    18    1
   18    16    19    1
   19    19    20    1
   20    19    21    1
   21    19    22    1
   22    22    23    1
   23    22    24    1
   24    22    25    1
@<TRIPOS>SUBSTRUCTURE
       1 MOL1            1 RESIDUE      1      MOL     
@<SCITEGIC>MOL_PROPERTY
VConf Rank
SciTegic.value.IntegerValue
56

@<SCITEGIC>MOL_PROPERTY
Conf_Id
SciTegic.value.IntegerValue
89

@<SCITEGIC>MOL_PROPERTY
Delta U+W
SciTegic.value.DoubleValue
2.903

@<SCITEGIC>MOL_PROPERTY
U+W
SciTegic.value.DoubleValue
-48.726

@<SCITEGIC>MOL_PROPERTY
Grad RMS
SciTegic.value.DoubleValue
0.000000

@<SCITEGIC>MOL_PROPERTY
U
SciTegic.value.DoubleValue
10.996

@<SCITEGIC>MOL_PROPERTY
W
SciTegic.value.DoubleValue
-59.723

@<SCITEGIC>MOL_PROPERTY
W(PB)
SciTegic.value.DoubleValue
-62.151

@<SCITEGIC>MOL_PROPERTY
W(SA)
SciTegic.value.DoubleValue
2.428

@<SCITEGIC>MOL_PROPERTY
Valence
SciTegic.value.DoubleValue
10.985

@<SCITEGIC>MOL_PROPERTY
Coulomb
SciTegic.value.DoubleValue
-0.995

@<SCITEGIC>MOL_PROPERTY
VdW
SciTegic.value.DoubleValue
1.006

@<SCITEGIC>MOL_PROPERTY
VdW6
SciTegic.value.DoubleValue
-10.062

@<SCITEGIC>MOL_PROPERTY
VdW12
SciTegic.value.DoubleValue
11.069

@<SCITEGIC>MOL_PROPERTY
Bond
SciTegic.value.DoubleValue
0.238

@<SCITEGIC>MOL_PROPERTY
Angle
SciTegic.value.DoubleValue
3.202

@<SCITEGIC>MOL_PROPERTY
Pdih
SciTegic.value.DoubleValue
7.544

@<SCITEGIC>MOL_PROPERTY
Idih
SciTegic.value.DoubleValue
0.001

@<SCITEGIC>MOL_PROPERTY
Tether
SciTegic.value.DoubleValue
0.000

@<TRIPOS>MOLECULE
guest-8_confgen4.mol2 : confsearch ligand conformer 57
          25          24           1
SMALL
USER_CHARGES
 
@<TRIPOS>ATOM
       1    C1      22.045082   20.903092   21.311861 C.2        1 MOL1         0.6168
       2    O1      21.690298   20.405484   20.261254 O.co2      1 MOL1        -0.6703
       3    O2      21.838739   22.064011   21.607322 O.co2      1 MOL1        -0.6703
       4    C2      22.848603   20.039476   22.282309 C.3        1 MOL1        -0.1963
       5    H1      23.843361   20.495175   22.347660 H          1 MOL1         0.0750
       6    H2      22.987941   19.044237   21.843156 H          1 MOL1         0.0750
       7    C3      22.252985   19.918933   23.713494 C.3        1 MOL1        -0.1860
       8    H3      23.064738   19.627085   24.393439 H          1 MOL1         0.0752
       9    H4      21.908175   20.902862   24.060716 H          1 MOL1         0.0752
      10    C4      21.117727   18.875357   23.862059 C.3        1 MOL1        -0.1858
      11    H5      20.906429   18.764785   24.932874 H          1 MOL1         0.0752
      12    H6      21.469476   17.894813   23.513690 H          1 MOL1         0.0752
      13    C5      19.813126   19.253669   23.119577 C.3        1 MOL1        -0.1858
      14    H7      19.490552   20.259936   23.419815 H          1 MOL1         0.0752
      15    H8      20.010865   19.298212   22.041731 H          1 MOL1         0.0752
      16    C6      18.659064   18.247534   23.345870 C.3        1 MOL1        -0.1858
      17    H9      18.993488   17.236511   23.076019 H          1 MOL1         0.0752
      18    H10     17.842024   18.498162   22.655555 H          1 MOL1         0.0752
      19    C7      18.108267   18.248892   24.790190 C.3        1 MOL1        -0.1834
      20    H11     18.884388   17.920891   25.493598 H          1 MOL1         0.0752
      21    H12     17.825812   19.270962   25.077903 H          1 MOL1         0.0752
      22    C8      16.883971   17.321550   24.928864 C.3        1 MOL1        -0.2849
      23    H13     17.144889   16.286332   24.672714 H          1 MOL1         0.0764
      24    H14     16.506496   17.330857   25.959629 H          1 MOL1         0.0764
      25    H15     16.069402   17.643778   24.267056 H          1 MOL1         0.0764
@<TRIPOS>BOND
    1     1     2    1
    2     1     3    2
    3     1     4    1
    4     4     5    1
    5     4     6    1
    6     4     7    1
    7     7     8    1
    8     7     9    1
    9     7    10    1
   10    10    11    1
   11    10    12    1
   12    10    13    1
   13    13    14    1
   14    13    15    1
   15    13    16    1
   16    16    17    1
   17    16    18    1
   18    16    19    1
   19    19    20    1
   20    19    21    1
   21    19    22    1
   22    22    23    1
   23    22    24    1
   24    22    25    1
@<TRIPOS>SUBSTRUCTURE
       1 MOL1            1 RESIDUE      1      MOL     
@<SCITEGIC>MOL_PROPERTY
VConf Rank
SciTegic.value.IntegerValue
57

@<SCITEGIC>MOL_PROPERTY
Conf_Id
SciTegic.value.IntegerValue
114

@<SCITEGIC>MOL_PROPERTY
Delta U+W
SciTegic.value.DoubleValue
2.758

@<SCITEGIC>MOL_PROPERTY
U+W
SciTegic.value.DoubleValue
-48.871

@<SCITEGIC>MOL_PROPERTY
Grad RMS
SciTegic.value.DoubleValue
0.000000

@<SCITEGIC>MOL_PROPERTY
U
SciTegic.value.DoubleValue
11.422

@<SCITEGIC>MOL_PROPERTY
W
SciTegic.value.DoubleValue
-60.293

@<SCITEGIC>MOL_PROPERTY
W(PB)
SciTegic.value.DoubleValue
-62.719

@<SCITEGIC>MOL_PROPERTY
W(SA)
SciTegic.value.DoubleValue
2.425

@<SCITEGIC>MOL_PROPERTY
Valence
SciTegic.value.DoubleValue
10.135

@<SCITEGIC>MOL_PROPERTY
Coulomb
SciTegic.value.DoubleValue
0.369

@<SCITEGIC>MOL_PROPERTY
VdW
SciTegic.value.DoubleValue
0.918

@<SCITEGIC>MOL_PROPERTY
VdW6
SciTegic.value.DoubleValue
-10.482

@<SCITEGIC>MOL_PROPERTY
VdW12
SciTegic.value.DoubleValue
11.400

@<SCITEGIC>MOL_PROPERTY
Bond
SciTegic.value.DoubleValue
0.245

@<SCITEGIC>MOL_PROPERTY
Angle
SciTegic.value.DoubleValue
3.539

@<SCITEGIC>MOL_PROPERTY
Pdih
SciTegic.value.DoubleValue
6.346

@<SCITEGIC>MOL_PROPERTY
Idih
SciTegic.value.DoubleValue
0.006

@<SCITEGIC>MOL_PROPERTY
Tether
SciTegic.value.DoubleValue
0.000

@<TRIPOS>MOLECULE
guest-8_confgen4.mol2 : confsearch ligand conformer 58
          25          24           1
SMALL
USER_CHARGES
 
@<TRIPOS>ATOM
       1    C1      18.516772   19.045116   26.823710 C.2        1 MOL1         0.6168
       2    O1      17.526564   18.352955   26.691562 O.co2      1 MOL1        -0.6703
       3    O2      19.427036   18.779074   27.583802 O.co2      1 MOL1        -0.6703
       4    C2      18.615192   20.330137   26.006407 C.3        1 MOL1        -0.1963
       5    H1      18.950732   21.124810   26.683080 H          1 MOL1         0.0750
       6    H2      17.609830   20.606446   25.666296 H          1 MOL1         0.0750
       7    C3      19.583200   20.234932   24.798569 C.3        1 MOL1        -0.1860
       8    H3      19.691808   21.231184   24.349196 H          1 MOL1         0.0752
       9    H4      20.576216   19.940150   25.162368 H          1 MOL1         0.0752
      10    C4      19.089021   19.239518   23.721446 C.3        1 MOL1        -0.1858
      11    H5      18.058881   19.500084   23.442590 H          1 MOL1         0.0752
      12    H6      19.047937   18.224777   24.140865 H          1 MOL1         0.0752
      13    C5      19.956356   19.232882   22.439896 C.3        1 MOL1        -0.1858
      14    H7      19.447516   18.614159   21.689930 H          1 MOL1         0.0752
      15    H8      20.006567   20.248250   22.023929 H          1 MOL1         0.0752
      16    C6      21.388605   18.689505   22.667814 C.3        1 MOL1        -0.1858
      17    H9      21.337731   17.675488   23.087174 H          1 MOL1         0.0752
      18    H10     21.900287   19.309954   23.414331 H          1 MOL1         0.0752
      19    C7      22.252166   18.676068   21.384647 C.3        1 MOL1        -0.1834
      20    H11     22.295702   19.686806   20.955925 H          1 MOL1         0.0752
      21    H12     23.282827   18.410776   21.657772 H          1 MOL1         0.0752
      22    C8      21.751166   17.678873   20.317170 C.3        1 MOL1        -0.2849
      23    H13     22.450313   17.638799   19.471894 H          1 MOL1         0.0764
      24    H14     21.666725   16.666737   20.733779 H          1 MOL1         0.0764
      25    H15     20.770663   17.972042   19.922107 H          1 MOL1         0.0764
@<TRIPOS>BOND
    1     1     2    1
    2     1     3    2
    3     1     4    1
    4     4     5    1
    5     4     6    1
    6     4     7    1
    7     7     8    1
    8     7     9    1
    9     7    10    1
   10    10    11    1
   11    10    12    1
   12    10    13    1
   13    13    14    1
   14    13    15    1
   15    13    16    1
   16    16    17    1
   17    16    18    1
   18    16    19    1
   19    19    20    1
   20    19    21    1
   21    19    22    1
   22    22    23    1
   23    22    24    1
   24    22    25    1
@<TRIPOS>SUBSTRUCTURE
       1 MOL1            1 RESIDUE      1      MOL     
@<SCITEGIC>MOL_PROPERTY
VConf Rank
SciTegic.value.IntegerValue
58

@<SCITEGIC>MOL_PROPERTY
Conf_Id
SciTegic.value.IntegerValue
87

@<SCITEGIC>MOL_PROPERTY
Delta U+W
SciTegic.value.DoubleValue
1.453

@<SCITEGIC>MOL_PROPERTY
U+W
SciTegic.value.DoubleValue
-50.176

@<SCITEGIC>MOL_PROPERTY
Grad RMS
SciTegic.value.DoubleValue
0.000000

@<SCITEGIC>MOL_PROPERTY
U
SciTegic.value.DoubleValue
9.763

@<SCITEGIC>MOL_PROPERTY
W
SciTegic.value.DoubleValue
-59.940

@<SCITEGIC>MOL_PROPERTY
W(PB)
SciTegic.value.DoubleValue
-62.392

@<SCITEGIC>MOL_PROPERTY
W(SA)
SciTegic.value.DoubleValue
2.452

@<SCITEGIC>MOL_PROPERTY
Valence
SciTegic.value.DoubleValue
8.883

@<SCITEGIC>MOL_PROPERTY
Coulomb
SciTegic.value.DoubleValue
-0.122

@<SCITEGIC>MOL_PROPERTY
VdW
SciTegic.value.DoubleValue
1.003

@<SCITEGIC>MOL_PROPERTY
VdW6
SciTegic.value.DoubleValue
-9.782

@<SCITEGIC>MOL_PROPERTY
VdW12
SciTegic.value.DoubleValue
10.785

@<SCITEGIC>MOL_PROPERTY
Bond
SciTegic.value.DoubleValue
0.212

@<SCITEGIC>MOL_PROPERTY
Angle
SciTegic.value.DoubleValue
2.940

@<SCITEGIC>MOL_PROPERTY
Pdih
SciTegic.value.DoubleValue
5.730

@<SCITEGIC>MOL_PROPERTY
Idih
SciTegic.value.DoubleValue
0.001

@<SCITEGIC>MOL_PROPERTY
Tether
SciTegic.value.DoubleValue
0.000

@<TRIPOS>MOLECULE
guest-8_confgen4.mol2 : confsearch ligand conformer 59
          25          24           1
SMALL
USER_CHARGES
 
@<TRIPOS>ATOM
       1    C1      18.177257   17.793734   20.111605 C.2        1 MOL1         0.6168
       2    O1      18.725675   18.422103   19.227821 O.co2      1 MOL1        -0.6703
       3    O2      17.735263   16.671283   19.965019 O.co2      1 MOL1        -0.6703
       4    C2      18.053115   18.442365   21.485662 C.3        1 MOL1        -0.1963
       5    H1      17.124890   18.085806   21.947988 H          1 MOL1         0.0750
       6    H2      17.950005   19.524822   21.343429 H          1 MOL1         0.0750
       7    C3      19.260882   18.137769   22.405701 C.3        1 MOL1        -0.1860
       8    H3      19.356750   17.050579   22.532072 H          1 MOL1         0.0752
       9    H4      20.178782   18.485473   21.913414 H          1 MOL1         0.0752
      10    C4      19.112935   18.812678   23.788899 C.3        1 MOL1        -0.1858
      11    H5      18.156853   18.507105   24.235165 H          1 MOL1         0.0752
      12    H6      19.057328   19.902354   23.666746 H          1 MOL1         0.0752
      13    C5      20.250176   18.450189   24.776635 C.3        1 MOL1        -0.1858
      14    H7      20.039773   18.918854   25.746925 H          1 MOL1         0.0752
      15    H8      20.228641   17.367313   24.959353 H          1 MOL1         0.0752
      16    C6      21.678451   18.845948   24.317043 C.3        1 MOL1        -0.1858
      17    H9      21.953936   18.252672   23.435342 H          1 MOL1         0.0752
      18    H10     22.390722   18.557932   25.102031 H          1 MOL1         0.0752
      19    C7      21.874514   20.347467   23.992802 C.3        1 MOL1        -0.1834
      20    H11     22.909159   20.501061   23.656909 H          1 MOL1         0.0752
      21    H12     21.234966   20.638392   23.148897 H          1 MOL1         0.0752
      22    C8      21.600597   21.272806   25.198106 C.3        1 MOL1        -0.2849
      23    H13     22.218674   20.988837   26.059661 H          1 MOL1         0.0764
      24    H14     21.832802   22.314854   24.943267 H          1 MOL1         0.0764
      25    H15     20.546861   21.230977   25.501154 H          1 MOL1         0.0764
@<TRIPOS>BOND
    1     1     2    1
    2     1     3    2
    3     1     4    1
    4     4     5    1
    5     4     6    1
    6     4     7    1
    7     7     8    1
    8     7     9    1
    9     7    10    1
   10    10    11    1
   11    10    12    1
   12    10    13    1
   13    13    14    1
   14    13    15    1
   15    13    16    1
   16    16    17    1
   17    16    18    1
   18    16    19    1
   19    19    20    1
   20    19    21    1
   21    19    22    1
   22    22    23    1
   23    22    24    1
   24    22    25    1
@<TRIPOS>SUBSTRUCTURE
       1 MOL1            1 RESIDUE      1      MOL     
@<SCITEGIC>MOL_PROPERTY
VConf Rank
SciTegic.value.IntegerValue
59

@<SCITEGIC>MOL_PROPERTY
Conf_Id
SciTegic.value.IntegerValue
29

@<SCITEGIC>MOL_PROPERTY
Delta U+W
SciTegic.value.DoubleValue
0.850

@<SCITEGIC>MOL_PROPERTY
U+W
SciTegic.value.DoubleValue
-50.780

@<SCITEGIC>MOL_PROPERTY
Grad RMS
SciTegic.value.DoubleValue
0.000000

@<SCITEGIC>MOL_PROPERTY
U
SciTegic.value.DoubleValue
8.646

@<SCITEGIC>MOL_PROPERTY
W
SciTegic.value.DoubleValue
-59.426

@<SCITEGIC>MOL_PROPERTY
W(PB)
SciTegic.value.DoubleValue
-61.868

@<SCITEGIC>MOL_PROPERTY
W(SA)
SciTegic.value.DoubleValue
2.442

@<SCITEGIC>MOL_PROPERTY
Valence
SciTegic.value.DoubleValue
8.924

@<SCITEGIC>MOL_PROPERTY
Coulomb
SciTegic.value.DoubleValue
-1.171

@<SCITEGIC>MOL_PROPERTY
VdW
SciTegic.value.DoubleValue
0.894

@<SCITEGIC>MOL_PROPERTY
VdW6
SciTegic.value.DoubleValue
-10.223

@<SCITEGIC>MOL_PROPERTY
VdW12
SciTegic.value.DoubleValue
11.117

@<SCITEGIC>MOL_PROPERTY
Bond
SciTegic.value.DoubleValue
0.231

@<SCITEGIC>MOL_PROPERTY
Angle
SciTegic.value.DoubleValue
3.232

@<SCITEGIC>MOL_PROPERTY
Pdih
SciTegic.value.DoubleValue
5.461

@<SCITEGIC>MOL_PROPERTY
Idih
SciTegic.value.DoubleValue
0.001

@<SCITEGIC>MOL_PROPERTY
Tether
SciTegic.value.DoubleValue
0.000

@<TRIPOS>MOLECULE
guest-8_confgen4.mol2 : confsearch ligand conformer 60
          25          24           1
SMALL
USER_CHARGES
 
@<TRIPOS>ATOM
       1    C1      16.116349   19.858625   22.901624 C.2        1 MOL1         0.6168
       2    O1      15.784595   18.956383   22.158265 O.co2      1 MOL1        -0.6703
       3    O2      15.593581   20.955643   22.904056 O.co2      1 MOL1        -0.6703
       4    C2      17.264750   19.606467   23.872070 C.3        1 MOL1        -0.1963
       5    H1      17.242674   18.548137   24.158469 H          1 MOL1         0.0750
       6    H2      17.078292   20.192441   24.780007 H          1 MOL1         0.0750
       7    C3      18.646919   19.968988   23.275293 C.3        1 MOL1        -0.1860
       8    H3      18.801766   19.385327   22.358152 H          1 MOL1         0.0752
       9    H4      18.651372   21.028810   22.985639 H          1 MOL1         0.0752
      10    C4      19.793270   19.697006   24.276562 C.3        1 MOL1        -0.1858
      11    H5      19.814933   18.630405   24.535980 H          1 MOL1         0.0752
      12    H6      19.585426   20.233779   25.212135 H          1 MOL1         0.0752
      13    C5      21.183691   20.141754   23.757651 C.3        1 MOL1        -0.1858
      14    H7      21.169868   21.227868   23.594439 H          1 MOL1         0.0752
      15    H8      21.927977   19.969861   24.546240 H          1 MOL1         0.0752
      16    C6      21.655344   19.451121   22.450597 C.3        1 MOL1        -0.1858
      17    H9      22.654107   19.830429   22.195473 H          1 MOL1         0.0752
      18    H10     21.002476   19.756227   21.622382 H          1 MOL1         0.0752
      19    C7      21.708407   17.904366   22.504125 C.3        1 MOL1        -0.1834
      20    H11     20.702119   17.497336   22.670098 H          1 MOL1         0.0752
      21    H12     22.029035   17.530716   21.522042 H          1 MOL1         0.0752
      22    C8      22.673858   17.363858   23.581062 C.3        1 MOL1        -0.2849
      23    H13     22.331386   17.624817   24.590299 H          1 MOL1         0.0764
      24    H14     22.739538   16.269705   23.524110 H          1 MOL1         0.0764
      25    H15     23.683689   17.771583   23.443451 H          1 MOL1         0.0764
@<TRIPOS>BOND
    1     1     2    1
    2     1     3    2
    3     1     4    1
    4     4     5    1
    5     4     6    1
    6     4     7    1
    7     7     8    1
    8     7     9    1
    9     7    10    1
   10    10    11    1
   11    10    12    1
   12    10    13    1
   13    13    14    1
   14    13    15    1
   15    13    16    1
   16    16    17    1
   17    16    18    1
   18    16    19    1
   19    19    20    1
   20    19    21    1
   21    19    22    1
   22    22    23    1
   23    22    24    1
   24    22    25    1
@<TRIPOS>SUBSTRUCTURE
       1 MOL1            1 RESIDUE      1      MOL     
@<SCITEGIC>MOL_PROPERTY
VConf Rank
SciTegic.value.IntegerValue
60

@<SCITEGIC>MOL_PROPERTY
Conf_Id
SciTegic.value.IntegerValue
30

@<SCITEGIC>MOL_PROPERTY
Delta U+W
SciTegic.value.DoubleValue
0.843

@<SCITEGIC>MOL_PROPERTY
U+W
SciTegic.value.DoubleValue
-50.787

@<SCITEGIC>MOL_PROPERTY
Grad RMS
SciTegic.value.DoubleValue
0.000000

@<SCITEGIC>MOL_PROPERTY
U
SciTegic.value.DoubleValue
8.647

@<SCITEGIC>MOL_PROPERTY
W
SciTegic.value.DoubleValue
-59.434

@<SCITEGIC>MOL_PROPERTY
W(PB)
SciTegic.value.DoubleValue
-61.861

@<SCITEGIC>MOL_PROPERTY
W(SA)
SciTegic.value.DoubleValue
2.428

@<SCITEGIC>MOL_PROPERTY
Valence
SciTegic.value.DoubleValue
8.924

@<SCITEGIC>MOL_PROPERTY
Coulomb
SciTegic.value.DoubleValue
-1.170

@<SCITEGIC>MOL_PROPERTY
VdW
SciTegic.value.DoubleValue
0.894

@<SCITEGIC>MOL_PROPERTY
VdW6
SciTegic.value.DoubleValue
-10.224

@<SCITEGIC>MOL_PROPERTY
VdW12
SciTegic.value.DoubleValue
11.118

@<SCITEGIC>MOL_PROPERTY
Bond
SciTegic.value.DoubleValue
0.231

@<SCITEGIC>MOL_PROPERTY
Angle
SciTegic.value.DoubleValue
3.232

@<SCITEGIC>MOL_PROPERTY
Pdih
SciTegic.value.DoubleValue
5.460

@<SCITEGIC>MOL_PROPERTY
Idih
SciTegic.value.DoubleValue
0.000

@<SCITEGIC>MOL_PROPERTY
Tether
SciTegic.value.DoubleValue
0.000

@<TRIPOS>MOLECULE
guest-8_confgen4.mol2 : confsearch ligand conformer 61
          25          24           1
SMALL
USER_CHARGES
 
@<TRIPOS>ATOM
       1    C1      17.662521   16.176258   20.422296 C.2        1 MOL1         0.6168
       2    O1      16.927491   15.829899   21.326932 O.co2      1 MOL1        -0.6703
       3    O2      17.580364   15.733624   19.293826 O.co2      1 MOL1        -0.6703
       4    C2      18.752194   17.216593   20.686329 C.3        1 MOL1        -0.1963
       5    H1      18.584848   18.048579   19.992281 H          1 MOL1         0.0750
       6    H2      19.711794   16.760756   20.415613 H          1 MOL1         0.0750
       7    C3      18.817694   17.752232   22.141395 C.3        1 MOL1        -0.1860
       8    H3      17.851125   18.201765   22.408170 H          1 MOL1         0.0752
       9    H4      18.979147   16.912794   22.831890 H          1 MOL1         0.0752
      10    C4      19.942535   18.795148   22.319458 C.3        1 MOL1        -0.1858
      11    H5      19.779079   19.633326   21.628173 H          1 MOL1         0.0752
      12    H6      20.907807   18.343543   22.052178 H          1 MOL1         0.0752
      13    C5      20.005866   19.326627   23.767562 C.3        1 MOL1        -0.1858
      14    H7      19.040728   19.778324   24.035111 H          1 MOL1         0.0752
      15    H8      20.169362   18.488667   24.459080 H          1 MOL1         0.0752
      16    C6      21.130349   20.369465   23.946287 C.3        1 MOL1        -0.1858
      17    H9      20.967020   21.207551   23.254891 H          1 MOL1         0.0752
      18    H10     22.095606   19.917944   23.678890 H          1 MOL1         0.0752
      19    C7      21.193720   20.900811   25.393704 C.3        1 MOL1        -0.1834
      20    H11     20.230341   21.354962   25.664140 H          1 MOL1         0.0752
      21    H12     21.358923   20.065372   26.088138 H          1 MOL1         0.0752
      22    C8      22.317755   21.941841   25.568075 C.3        1 MOL1        -0.2849
      23    H13     22.160428   22.804270   24.907120 H          1 MOL1         0.0764
      24    H14     22.348348   22.308665   26.602286 H          1 MOL1         0.0764
      25    H15     23.297504   21.504974   25.334330 H          1 MOL1         0.0764
@<TRIPOS>BOND
    1     1     2    1
    2     1     3    2
    3     1     4    1
    4     4     5    1
    5     4     6    1
    6     4     7    1
    7     7     8    1
    8     7     9    1
    9     7    10    1
   10    10    11    1
   11    10    12    1
   12    10    13    1
   13    13    14    1
   14    13    15    1
   15    13    16    1
   16    16    17    1
   17    16    18    1
   18    16    19    1
   19    19    20    1
   20    19    21    1
   21    19    22    1
   22    22    23    1
   23    22    24    1
   24    22    25    1
@<TRIPOS>SUBSTRUCTURE
       1 MOL1            1 RESIDUE      1      MOL     
@<SCITEGIC>MOL_PROPERTY
VConf Rank
SciTegic.value.IntegerValue
61

@<SCITEGIC>MOL_PROPERTY
Conf_Id
SciTegic.value.IntegerValue
0

@<SCITEGIC>MOL_PROPERTY
Delta U+W
SciTegic.value.DoubleValue
0.000

@<SCITEGIC>MOL_PROPERTY
U+W
SciTegic.value.DoubleValue
-51.629

@<SCITEGIC>MOL_PROPERTY
Grad RMS
SciTegic.value.DoubleValue
0.000000

@<SCITEGIC>MOL_PROPERTY
U
SciTegic.value.DoubleValue
6.586

@<SCITEGIC>MOL_PROPERTY
W
SciTegic.value.DoubleValue
-58.216

@<SCITEGIC>MOL_PROPERTY
W(PB)
SciTegic.value.DoubleValue
-60.757

@<SCITEGIC>MOL_PROPERTY
W(SA)
SciTegic.value.DoubleValue
2.541

@<SCITEGIC>MOL_PROPERTY
Valence
SciTegic.value.DoubleValue
8.027

@<SCITEGIC>MOL_PROPERTY
Coulomb
SciTegic.value.DoubleValue
-2.892

@<SCITEGIC>MOL_PROPERTY
VdW
SciTegic.value.DoubleValue
1.451

@<SCITEGIC>MOL_PROPERTY
VdW6
SciTegic.value.DoubleValue
-7.931

@<SCITEGIC>MOL_PROPERTY
VdW12
SciTegic.value.DoubleValue
9.383

@<SCITEGIC>MOL_PROPERTY
Bond
SciTegic.value.DoubleValue
0.149

@<SCITEGIC>MOL_PROPERTY
Angle
SciTegic.value.DoubleValue
2.726

@<SCITEGIC>MOL_PROPERTY
Pdih
SciTegic.value.DoubleValue
5.152

@<SCITEGIC>MOL_PROPERTY
Idih
SciTegic.value.DoubleValue
0.000

@<SCITEGIC>MOL_PROPERTY
Tether
SciTegic.value.DoubleValue
0.000

@<TRIPOS>MOLECULE
guest-8_confgen4.mol2 : confsearch ligand conformer 62
          25          24           1
SMALL
USER_CHARGES
 
@<TRIPOS>ATOM
       1    C1      16.213726   17.463981   25.073879 C.2        1 MOL1         0.6168
       2    O1      15.365707   17.119731   24.274520 O.co2      1 MOL1        -0.6703
       3    O2      16.376945   16.931394   26.153848 O.co2      1 MOL1        -0.6703
       4    C2      17.139420   18.613120   24.690928 C.3        1 MOL1        -0.1963
       5    H1      17.408803   19.153138   25.606579 H          1 MOL1         0.0750
       6    H2      16.575094   19.308734   24.058266 H          1 MOL1         0.0750
       7    C3      18.416369   18.137120   23.955504 C.3        1 MOL1        -0.1860
       8    H3      18.962784   17.431591   24.596795 H          1 MOL1         0.0752
       9    H4      18.129074   17.587047   23.048600 H          1 MOL1         0.0752
      10    C4      19.336703   19.318164   23.578486 C.3        1 MOL1        -0.1858
      11    H5      19.621171   19.866585   24.487052 H          1 MOL1         0.0752
      12    H6      18.787123   20.022215   22.938600 H          1 MOL1         0.0752
      13    C5      20.608678   18.840618   22.845343 C.3        1 MOL1        -0.1858
      14    H7      21.158454   18.136620   23.485058 H          1 MOL1         0.0752
      15    H8      20.324435   18.292195   21.936750 H          1 MOL1         0.0752
      16    C6      21.529467   20.021128   22.467956 C.3        1 MOL1        -0.1858
      17    H9      21.813980   20.569709   23.376365 H          1 MOL1         0.0752
      18    H10     20.979969   20.725314   21.828214 H          1 MOL1         0.0752
      19    C7      22.800903   19.543985   21.735053 C.3        1 MOL1        -0.1834
      20    H11     23.354255   18.840725   22.372796 H          1 MOL1         0.0752
      21    H12     22.520256   18.996360   20.824650 H          1 MOL1         0.0752
      22    C8      23.717714   20.725663   21.359958 C.3        1 MOL1        -0.2849
      23    H13     24.616152   20.368453   20.840056 H          1 MOL1         0.0764
      24    H14     23.199284   21.429697   20.695907 H          1 MOL1         0.0764
      25    H15     24.039555   21.272884   22.255706 H          1 MOL1         0.0764
@<TRIPOS>BOND
    1     1     2    1
    2     1     3    2
    3     1     4    1
    4     4     5    1
    5     4     6    1
    6     4     7    1
    7     7     8    1
    8     7     9    1
    9     7    10    1
   10    10    11    1
   11    10    12    1
   12    10    13    1
   13    13    14    1
   14    13    15    1
   15    13    16    1
   16    16    17    1
   17    16    18    1
   18    16    19    1
   19    19    20    1
   20    19    21    1
   21    19    22    1
   22    22    23    1
   23    22    24    1
   24    22    25    1
@<TRIPOS>SUBSTRUCTURE
       1 MOL1            1 RESIDUE      1      MOL     
@<SCITEGIC>MOL_PROPERTY
VConf Rank
SciTegic.value.IntegerValue
62

@<SCITEGIC>MOL_PROPERTY
Conf_Id
SciTegic.value.IntegerValue
27

@<SCITEGIC>MOL_PROPERTY
Delta U+W
SciTegic.value.DoubleValue
-1.297

@<SCITEGIC>MOL_PROPERTY
U+W
SciTegic.value.DoubleValue
-52.926

@<SCITEGIC>MOL_PROPERTY
Grad RMS
SciTegic.value.DoubleValue
0.000000

@<SCITEGIC>MOL_PROPERTY
U
SciTegic.value.DoubleValue
5.617

@<SCITEGIC>MOL_PROPERTY
W
SciTegic.value.DoubleValue
-58.543

@<SCITEGIC>MOL_PROPERTY
W(PB)
SciTegic.value.DoubleValue
-61.065

@<SCITEGIC>MOL_PROPERTY
W(SA)
SciTegic.value.DoubleValue
2.522

@<SCITEGIC>MOL_PROPERTY
Valence
SciTegic.value.DoubleValue
7.531

@<SCITEGIC>MOL_PROPERTY
Coulomb
SciTegic.value.DoubleValue
-2.818

@<SCITEGIC>MOL_PROPERTY
VdW
SciTegic.value.DoubleValue
0.904

@<SCITEGIC>MOL_PROPERTY
VdW6
SciTegic.value.DoubleValue
-7.640

@<SCITEGIC>MOL_PROPERTY
VdW12
SciTegic.value.DoubleValue
8.544

@<SCITEGIC>MOL_PROPERTY
Bond
SciTegic.value.DoubleValue
0.115

@<SCITEGIC>MOL_PROPERTY
Angle
SciTegic.value.DoubleValue
2.271

@<SCITEGIC>MOL_PROPERTY
Pdih
SciTegic.value.DoubleValue
5.144

@<SCITEGIC>MOL_PROPERTY
Idih
SciTegic.value.DoubleValue
0.001

@<SCITEGIC>MOL_PROPERTY
Tether
SciTegic.value.DoubleValue
0.000

@<TRIPOS>MOLECULE
guest-8_confgen4.mol2 : confsearch ligand conformer 63
          25          24           1
SMALL
USER_CHARGES
 
@<TRIPOS>ATOM
       1    C1      16.806426   18.107288   25.228767 C.2        1 MOL1         0.6168
       2    O1      16.796062   18.409319   26.405943 O.co2      1 MOL1        -0.6703
       3    O2      16.082950   18.618354   24.396687 O.co2      1 MOL1        -0.6703
       4    C2      17.769967   17.013956   24.775801 C.3        1 MOL1        -0.1963
       5    H1      17.429037   16.625638   23.808421 H          1 MOL1         0.0750
       6    H2      17.691536   16.189555   25.494269 H          1 MOL1         0.0750
       7    C3      19.246838   17.476603   24.677042 C.3        1 MOL1        -0.1860
       8    H3      19.564809   17.888124   25.645142 H          1 MOL1         0.0752
       9    H4      19.881967   16.602030   24.481384 H          1 MOL1         0.0752
      10    C4      19.467755   18.525841   23.564359 C.3        1 MOL1        -0.1858
      11    H5      18.848493   19.411653   23.762536 H          1 MOL1         0.0752
      12    H6      19.135925   18.114713   22.601090 H          1 MOL1         0.0752
      13    C5      20.949287   18.948165   23.462684 C.3        1 MOL1        -0.1858
      14    H7      21.280182   19.359162   24.426363 H          1 MOL1         0.0752
      15    H8      21.570149   18.064366   23.261518 H          1 MOL1         0.0752
      16    C6      21.170635   19.997193   22.351646 C.3        1 MOL1        -0.1858
      17    H9      20.549752   20.881066   22.552646 H          1 MOL1         0.0752
      18    H10     20.839467   19.586525   21.387924 H          1 MOL1         0.0752
      19    C7      22.651257   20.420028   22.249977 C.3        1 MOL1        -0.1834
      20    H11     22.985442   20.833065   23.211852 H          1 MOL1         0.0752
      21    H12     23.275170   19.538539   22.047028 H          1 MOL1         0.0752
      22    C8      22.867953   21.467703   21.139559 C.3        1 MOL1        -0.2849
      23    H13     22.279173   22.373743   21.334051 H          1 MOL1         0.0764
      24    H14     23.925376   21.756745   21.081326 H          1 MOL1         0.0764
      25    H15     22.571038   21.069501   20.160442 H          1 MOL1         0.0764
@<TRIPOS>BOND
    1     1     2    1
    2     1     3    2
    3     1     4    1
    4     4     5    1
    5     4     6    1
    6     4     7    1
    7     7     8    1
    8     7     9    1
    9     7    10    1
   10    10    11    1
   11    10    12    1
   12    10    13    1
   13    13    14    1
   14    13    15    1
   15    13    16    1
   16    16    17    1
   17    16    18    1
   18    16    19    1
   19    19    20    1
   20    19    21    1
   21    19    22    1
   22    22    23    1
   23    22    24    1
   24    22    25    1
@<TRIPOS>SUBSTRUCTURE
       1 MOL1            1 RESIDUE      1      MOL     
@<SCITEGIC>MOL_PROPERTY
VConf Rank
SciTegic.value.IntegerValue
63

@<SCITEGIC>MOL_PROPERTY
Conf_Id
SciTegic.value.IntegerValue
37

@<SCITEGIC>MOL_PROPERTY
Delta U+W
SciTegic.value.DoubleValue
-0.230

@<SCITEGIC>MOL_PROPERTY
U+W
SciTegic.value.DoubleValue
-51.860

@<SCITEGIC>MOL_PROPERTY
Grad RMS
SciTegic.value.DoubleValue
0.000000

@<SCITEGIC>MOL_PROPERTY
U
SciTegic.value.DoubleValue
7.816

@<SCITEGIC>MOL_PROPERTY
W
SciTegic.value.DoubleValue
-59.675

@<SCITEGIC>MOL_PROPERTY
W(PB)
SciTegic.value.DoubleValue
-62.180

@<SCITEGIC>MOL_PROPERTY
W(SA)
SciTegic.value.DoubleValue
2.505

@<SCITEGIC>MOL_PROPERTY
Valence
SciTegic.value.DoubleValue
7.785

@<SCITEGIC>MOL_PROPERTY
Coulomb
SciTegic.value.DoubleValue
-0.713

@<SCITEGIC>MOL_PROPERTY
VdW
SciTegic.value.DoubleValue
0.744

@<SCITEGIC>MOL_PROPERTY
VdW6
SciTegic.value.DoubleValue
-8.514

@<SCITEGIC>MOL_PROPERTY
VdW12
SciTegic.value.DoubleValue
9.259

@<SCITEGIC>MOL_PROPERTY
Bond
SciTegic.value.DoubleValue
0.136

@<SCITEGIC>MOL_PROPERTY
Angle
SciTegic.value.DoubleValue
2.433

@<SCITEGIC>MOL_PROPERTY
Pdih
SciTegic.value.DoubleValue
5.216

@<SCITEGIC>MOL_PROPERTY
Idih
SciTegic.value.DoubleValue
0.000

@<SCITEGIC>MOL_PROPERTY
Tether
SciTegic.value.DoubleValue
0.000

@<TRIPOS>MOLECULE
guest-8_confgen4.mol2 : confsearch ligand conformer 64
          25          24           1
SMALL
USER_CHARGES
 
@<TRIPOS>ATOM
       1    C1      22.925976   17.407790   25.305253 C.2        1 MOL1         0.6168
       2    O1      23.563370   16.646080   24.604824 O.co2      1 MOL1        -0.6703
       3    O2      22.210525   17.043566   26.217631 O.co2      1 MOL1        -0.6703
       4    C2      23.044797   18.904622   25.032593 C.3        1 MOL1        -0.1963
       5    H1      24.109723   19.130731   24.903009 H          1 MOL1         0.0750
       6    H2      22.710371   19.450324   25.923219 H          1 MOL1         0.0750
       7    C3      22.257937   19.382414   23.784590 C.3        1 MOL1        -0.1860
       8    H3      22.508983   20.433110   23.585683 H          1 MOL1         0.0752
       9    H4      22.584199   18.807640   22.906604 H          1 MOL1         0.0752
      10    C4      20.728455   19.248294   23.959132 C.3        1 MOL1        -0.1858
      11    H5      20.409245   19.813505   24.845510 H          1 MOL1         0.0752
      12    H6      20.467408   18.196594   24.141348 H          1 MOL1         0.0752
      13    C5      19.964439   19.758771   22.718438 C.3        1 MOL1        -0.1858
      14    H7      20.221689   20.811184   22.535999 H          1 MOL1         0.0752
      15    H8      20.284220   19.192909   21.832645 H          1 MOL1         0.0752
      16    C6      18.436127   19.624415   22.891838 C.3        1 MOL1        -0.1858
      17    H9      18.116171   20.189973   23.777757 H          1 MOL1         0.0752
      18    H10     18.178711   18.572024   23.074425 H          1 MOL1         0.0752
      19    C7      17.672048   20.133963   21.651713 C.3        1 MOL1        -0.1834
      20    H11     17.925762   21.187066   21.467102 H          1 MOL1         0.0752
      21    H12     17.988237   19.569030   20.763818 H          1 MOL1         0.0752
      22    C8      16.146360   19.998028   21.828916 C.3        1 MOL1        -0.2849
      23    H13     15.797854   20.579537   22.692504 H          1 MOL1         0.0764
      24    H14     15.619227   20.364635   20.938516 H          1 MOL1         0.0764
      25    H15     15.860821   18.949308   21.984000 H          1 MOL1         0.0764
@<TRIPOS>BOND
    1     1     2    1
    2     1     3    2
    3     1     4    1
    4     4     5    1
    5     4     6    1
    6     4     7    1
    7     7     8    1
    8     7     9    1
    9     7    10    1
   10    10    11    1
   11    10    12    1
   12    10    13    1
   13    13    14    1
   14    13    15    1
   15    13    16    1
   16    16    17    1
   17    16    18    1
   18    16    19    1
   19    19    20    1
   20    19    21    1
   21    19    22    1
   22    22    23    1
   23    22    24    1
   24    22    25    1
@<TRIPOS>SUBSTRUCTURE
       1 MOL1            1 RESIDUE      1      MOL     
@<SCITEGIC>MOL_PROPERTY
VConf Rank
SciTegic.value.IntegerValue
64

@<SCITEGIC>MOL_PROPERTY
Conf_Id
SciTegic.value.IntegerValue
54

@<SCITEGIC>MOL_PROPERTY
Delta U+W
SciTegic.value.DoubleValue
-0.224

@<SCITEGIC>MOL_PROPERTY
U+W
SciTegic.value.DoubleValue
-51.854

@<SCITEGIC>MOL_PROPERTY
Grad RMS
SciTegic.value.DoubleValue
0.000000

@<SCITEGIC>MOL_PROPERTY
U
SciTegic.value.DoubleValue
7.816

@<SCITEGIC>MOL_PROPERTY
W
SciTegic.value.DoubleValue
-59.670

@<SCITEGIC>MOL_PROPERTY
W(PB)
SciTegic.value.DoubleValue
-62.157

@<SCITEGIC>MOL_PROPERTY
W(SA)
SciTegic.value.DoubleValue
2.487

@<SCITEGIC>MOL_PROPERTY
Valence
SciTegic.value.DoubleValue
7.785

@<SCITEGIC>MOL_PROPERTY
Coulomb
SciTegic.value.DoubleValue
-0.713

@<SCITEGIC>MOL_PROPERTY
VdW
SciTegic.value.DoubleValue
0.744

@<SCITEGIC>MOL_PROPERTY
VdW6
SciTegic.value.DoubleValue
-8.515

@<SCITEGIC>MOL_PROPERTY
VdW12
SciTegic.value.DoubleValue
9.259

@<SCITEGIC>MOL_PROPERTY
Bond
SciTegic.value.DoubleValue
0.136

@<SCITEGIC>MOL_PROPERTY
Angle
SciTegic.value.DoubleValue
2.433

@<SCITEGIC>MOL_PROPERTY
Pdih
SciTegic.value.DoubleValue
5.215

@<SCITEGIC>MOL_PROPERTY
Idih
SciTegic.value.DoubleValue
0.000

@<SCITEGIC>MOL_PROPERTY
Tether
SciTegic.value.DoubleValue
0.000

@<TRIPOS>MOLECULE
guest-8_confgen4.mol2 : confsearch ligand conformer 65
          25          24           1
SMALL
USER_CHARGES
 
@<TRIPOS>ATOM
       1    C1      23.685808   19.323828   21.364126 C.2        1 MOL1         0.6168
       2    O1      24.405243   19.976989   22.094089 O.co2      1 MOL1        -0.6703
       3    O2      24.004947   18.251562   20.889251 O.co2      1 MOL1        -0.6703
       4    C2      22.313134   19.887871   21.008028 C.3        1 MOL1        -0.1963
       5    H1      22.183307   19.772586   19.925520 H          1 MOL1         0.0750
       6    H2      22.312239   20.964912   21.214940 H          1 MOL1         0.0750
       7    C3      21.135610   19.199717   21.746638 C.3        1 MOL1        -0.1860
       8    H3      20.195336   19.561552   21.312166 H          1 MOL1         0.0752
       9    H4      21.174397   18.116996   21.563309 H          1 MOL1         0.0752
      10    C4      21.148127   19.474958   23.269804 C.3        1 MOL1        -0.1858
      11    H5      21.063232   20.554801   23.452863 H          1 MOL1         0.0752
      12    H6      22.118893   19.167524   23.682207 H          1 MOL1         0.0752
      13    C5      20.035108   18.728494   24.043714 C.3        1 MOL1        -0.1858
      14    H7      20.108819   17.650636   23.845307 H          1 MOL1         0.0752
      15    H8      20.222770   18.860640   25.116789 H          1 MOL1         0.0752
      16    C6      18.607431   19.226189   23.707757 C.3        1 MOL1        -0.1858
      17    H9      18.414579   19.088292   22.636465 H          1 MOL1         0.0752
      18    H10     18.535823   20.305047   23.901549 H          1 MOL1         0.0752
      19    C7      17.498479   18.485414   24.491316 C.3        1 MOL1        -0.1834
      20    H11     16.521585   18.797632   24.097054 H          1 MOL1         0.0752
      21    H12     17.574605   17.404408   24.309847 H          1 MOL1         0.0752
      22    C8      17.529845   18.761834   26.010377 C.3        1 MOL1        -0.2849
      23    H13     18.437634   18.356410   26.474008 H          1 MOL1         0.0764
      24    H14     17.489945   19.839706   26.214612 H          1 MOL1         0.0764
      25    H15     16.668470   18.292740   26.503214 H          1 MOL1         0.0764
@<TRIPOS>BOND
    1     1     2    1
    2     1     3    2
    3     1     4    1
    4     4     5    1
    5     4     6    1
    6     4     7    1
    7     7     8    1
    8     7     9    1
    9     7    10    1
   10    10    11    1
   11    10    12    1
   12    10    13    1
   13    13    14    1
   14    13    15    1
   15    13    16    1
   16    16    17    1
   17    16    18    1
   18    16    19    1
   19    19    20    1
   20    19    21    1
   21    19    22    1
   22    22    23    1
   23    22    24    1
   24    22    25    1
@<TRIPOS>SUBSTRUCTURE
       1 MOL1            1 RESIDUE      1      MOL     
@<SCITEGIC>MOL_PROPERTY
VConf Rank
SciTegic.value.IntegerValue
65

@<SCITEGIC>MOL_PROPERTY
Conf_Id
SciTegic.value.IntegerValue
101

@<SCITEGIC>MOL_PROPERTY
Delta U+W
SciTegic.value.DoubleValue
1.534

@<SCITEGIC>MOL_PROPERTY
U+W
SciTegic.value.DoubleValue
-50.095

@<SCITEGIC>MOL_PROPERTY
Grad RMS
SciTegic.value.DoubleValue
0.000000

@<SCITEGIC>MOL_PROPERTY
U
SciTegic.value.DoubleValue
9.416

@<SCITEGIC>MOL_PROPERTY
W
SciTegic.value.DoubleValue
-59.512

@<SCITEGIC>MOL_PROPERTY
W(PB)
SciTegic.value.DoubleValue
-61.988

@<SCITEGIC>MOL_PROPERTY
W(SA)
SciTegic.value.DoubleValue
2.476

@<SCITEGIC>MOL_PROPERTY
Valence
SciTegic.value.DoubleValue
8.939

@<SCITEGIC>MOL_PROPERTY
Coulomb
SciTegic.value.DoubleValue
-0.615

@<SCITEGIC>MOL_PROPERTY
VdW
SciTegic.value.DoubleValue
1.092

@<SCITEGIC>MOL_PROPERTY
VdW6
SciTegic.value.DoubleValue
-9.710

@<SCITEGIC>MOL_PROPERTY
VdW12
SciTegic.value.DoubleValue
10.802

@<SCITEGIC>MOL_PROPERTY
Bond
SciTegic.value.DoubleValue
0.216

@<SCITEGIC>MOL_PROPERTY
Angle
SciTegic.value.DoubleValue
2.979

@<SCITEGIC>MOL_PROPERTY
Pdih
SciTegic.value.DoubleValue
5.743

@<SCITEGIC>MOL_PROPERTY
Idih
SciTegic.value.DoubleValue
0.000

@<SCITEGIC>MOL_PROPERTY
Tether
SciTegic.value.DoubleValue
0.000

@<TRIPOS>MOLECULE
guest-8_confgen4.mol2 : confsearch ligand conformer 66
          25          24           1
SMALL
USER_CHARGES
 
@<TRIPOS>ATOM
       1    C1      23.109473   20.465212   25.885569 C.2        1 MOL1         0.6168
       2    O1      22.654326   20.428593   27.011728 O.co2      1 MOL1        -0.6703
       3    O2      24.299669   20.461125   25.640225 O.co2      1 MOL1        -0.6703
       4    C2      22.133360   20.495137   24.714896 C.3        1 MOL1        -0.1963
       5    H1      22.598212   21.061593   23.899189 H          1 MOL1         0.0750
       6    H2      21.247003   21.053626   25.035555 H          1 MOL1         0.0750
       7    C3      21.740936   19.076621   24.225639 C.3        1 MOL1        -0.1860
       8    H3      22.659323   18.514333   24.006948 H          1 MOL1         0.0752
       9    H4      21.232244   18.535808   25.035610 H          1 MOL1         0.0752
      10    C4      20.850942   19.080224   22.959699 C.3        1 MOL1        -0.1858
      11    H5      20.749381   18.043394   22.614504 H          1 MOL1         0.0752
      12    H6      21.357179   19.629686   22.154478 H          1 MOL1         0.0752
      13    C5      19.443507   19.680274   23.198380 C.3        1 MOL1        -0.1858
      14    H7      18.937252   19.130694   24.002547 H          1 MOL1         0.0752
      15    H8      19.542421   20.714225   23.551763 H          1 MOL1         0.0752
      16    C6      18.555004   19.697679   21.928492 C.3        1 MOL1        -0.1858
      17    H9      19.037516   20.323882   21.165780 H          1 MOL1         0.0752
      18    H10     17.606099   20.194779   22.171680 H          1 MOL1         0.0752
      19    C7      18.245630   18.310732   21.311948 C.3        1 MOL1        -0.1834
      20    H11     17.616806   18.456684   20.422947 H          1 MOL1         0.0752
      21    H12     19.170158   17.839474   20.953470 H          1 MOL1         0.0752
      22    C8      17.517264   17.357026   22.283476 C.3        1 MOL1        -0.2849
      23    H13     16.600728   17.818225   22.673649 H          1 MOL1         0.0764
      24    H14     17.237347   16.427255   21.771676 H          1 MOL1         0.0764
      25    H15     18.157522   17.088843   23.133315 H          1 MOL1         0.0764
@<TRIPOS>BOND
    1     1     2    1
    2     1     3    2
    3     1     4    1
    4     4     5    1
    5     4     6    1
    6     4     7    1
    7     7     8    1
    8     7     9    1
    9     7    10    1
   10    10    11    1
   11    10    12    1
   12    10    13    1
   13    13    14    1
   14    13    15    1
   15    13    16    1
   16    16    17    1
   17    16    18    1
   18    16    19    1
   19    19    20    1
   20    19    21    1
   21    19    22    1
   22    22    23    1
   23    22    24    1
   24    22    25    1
@<TRIPOS>SUBSTRUCTURE
       1 MOL1            1 RESIDUE      1      MOL     
@<SCITEGIC>MOL_PROPERTY
VConf Rank
SciTegic.value.IntegerValue
66

@<SCITEGIC>MOL_PROPERTY
Conf_Id
SciTegic.value.IntegerValue
75

@<SCITEGIC>MOL_PROPERTY
Delta U+W
SciTegic.value.DoubleValue
1.014

@<SCITEGIC>MOL_PROPERTY
U+W
SciTegic.value.DoubleValue
-50.615

@<SCITEGIC>MOL_PROPERTY
Grad RMS
SciTegic.value.DoubleValue
0.000000

@<SCITEGIC>MOL_PROPERTY
U
SciTegic.value.DoubleValue
8.474

@<SCITEGIC>MOL_PROPERTY
W
SciTegic.value.DoubleValue
-59.089

@<SCITEGIC>MOL_PROPERTY
W(PB)
SciTegic.value.DoubleValue
-61.530

@<SCITEGIC>MOL_PROPERTY
W(SA)
SciTegic.value.DoubleValue
2.441

@<SCITEGIC>MOL_PROPERTY
Valence
SciTegic.value.DoubleValue
9.080

@<SCITEGIC>MOL_PROPERTY
Coulomb
SciTegic.value.DoubleValue
-1.772

@<SCITEGIC>MOL_PROPERTY
VdW
SciTegic.value.DoubleValue
1.165

@<SCITEGIC>MOL_PROPERTY
VdW6
SciTegic.value.DoubleValue
-9.830

@<SCITEGIC>MOL_PROPERTY
VdW12
SciTegic.value.DoubleValue
10.996

@<SCITEGIC>MOL_PROPERTY
Bond
SciTegic.value.DoubleValue
0.240

@<SCITEGIC>MOL_PROPERTY
Angle
SciTegic.value.DoubleValue
3.225

@<SCITEGIC>MOL_PROPERTY
Pdih
SciTegic.value.DoubleValue
5.615

@<SCITEGIC>MOL_PROPERTY
Idih
SciTegic.value.DoubleValue
0.001

@<SCITEGIC>MOL_PROPERTY
Tether
SciTegic.value.DoubleValue
0.000

@<TRIPOS>MOLECULE
guest-8_confgen4.mol2 : confsearch ligand conformer 67
          25          24           1
SMALL
USER_CHARGES
 
@<TRIPOS>ATOM
       1    C1      17.723818   22.247786   21.579960 C.2        1 MOL1         0.6168
       2    O1      16.555767   21.992156   21.796665 O.co2      1 MOL1        -0.6703
       3    O2      18.143967   23.373120   21.396200 O.co2      1 MOL1        -0.6703
       4    C2      18.720986   21.094842   21.558595 C.3        1 MOL1        -0.1963
       5    H1      19.513937   21.343397   20.843047 H          1 MOL1         0.0750
       6    H2      18.205597   20.205797   21.175737 H          1 MOL1         0.0750
       7    C3      19.330597   20.800897   22.951452 C.3        1 MOL1        -0.1860
       8    H3      19.831583   21.704135   23.326512 H          1 MOL1         0.0752
       9    H4      18.522875   20.566864   23.658806 H          1 MOL1         0.0752
      10    C4      20.335123   19.629230   22.903756 C.3        1 MOL1        -0.1858
      11    H5      21.140234   19.867344   22.195300 H          1 MOL1         0.0752
      12    H6      19.831113   18.735154   22.517990 H          1 MOL1         0.0752
      13    C5      20.945618   19.343537   24.296024 C.3        1 MOL1        -0.1858
      14    H7      21.466928   20.249875   24.633225 H          1 MOL1         0.0752
      15    H8      20.151010   19.156113   25.031068 H          1 MOL1         0.0752
      16    C6      21.955746   18.167925   24.294413 C.3        1 MOL1        -0.1858
      17    H9      22.760959   18.408899   25.001826 H          1 MOL1         0.0752
      18    H10     22.438474   18.081451   23.311391 H          1 MOL1         0.0752
      19    C7      21.359196   16.802182   24.716047 C.3        1 MOL1        -0.1834
      20    H11     22.172661   16.064871   24.758712 H          1 MOL1         0.0752
      21    H12     20.957226   16.875217   25.736010 H          1 MOL1         0.0752
      22    C8      20.261426   16.272404   23.770210 C.3        1 MOL1        -0.2849
      23    H13     20.613330   16.251083   22.730657 H          1 MOL1         0.0764
      24    H14     19.972549   15.251460   24.051241 H          1 MOL1         0.0764
      25    H15     19.360460   16.896311   23.821457 H          1 MOL1         0.0764
@<TRIPOS>BOND
    1     1     2    1
    2     1     3    2
    3     1     4    1
    4     4     5    1
    5     4     6    1
    6     4     7    1
    7     7     8    1
    8     7     9    1
    9     7    10    1
   10    10    11    1
   11    10    12    1
   12    10    13    1
   13    13    14    1
   14    13    15    1
   15    13    16    1
   16    16    17    1
   17    16    18    1
   18    16    19    1
   19    19    20    1
   20    19    21    1
   21    19    22    1
   22    22    23    1
   23    22    24    1
   24    22    25    1
@<TRIPOS>SUBSTRUCTURE
       1 MOL1            1 RESIDUE      1      MOL     
@<SCITEGIC>MOL_PROPERTY
VConf Rank
SciTegic.value.IntegerValue
67

@<SCITEGIC>MOL_PROPERTY
Conf_Id
SciTegic.value.IntegerValue
125

@<SCITEGIC>MOL_PROPERTY
Delta U+W
SciTegic.value.DoubleValue
2.314

@<SCITEGIC>MOL_PROPERTY
U+W
SciTegic.value.DoubleValue
-49.315

@<SCITEGIC>MOL_PROPERTY
Grad RMS
SciTegic.value.DoubleValue
0.000000

@<SCITEGIC>MOL_PROPERTY
U
SciTegic.value.DoubleValue
9.740

@<SCITEGIC>MOL_PROPERTY
W
SciTegic.value.DoubleValue
-59.054

@<SCITEGIC>MOL_PROPERTY
W(PB)
SciTegic.value.DoubleValue
-61.488

@<SCITEGIC>MOL_PROPERTY
W(SA)
SciTegic.value.DoubleValue
2.433

@<SCITEGIC>MOL_PROPERTY
Valence
SciTegic.value.DoubleValue
10.506

@<SCITEGIC>MOL_PROPERTY
Coulomb
SciTegic.value.DoubleValue
-1.761

@<SCITEGIC>MOL_PROPERTY
VdW
SciTegic.value.DoubleValue
0.994

@<SCITEGIC>MOL_PROPERTY
VdW6
SciTegic.value.DoubleValue
-9.209

@<SCITEGIC>MOL_PROPERTY
VdW12
SciTegic.value.DoubleValue
10.203

@<SCITEGIC>MOL_PROPERTY
Bond
SciTegic.value.DoubleValue
0.193

@<SCITEGIC>MOL_PROPERTY
Angle
SciTegic.value.DoubleValue
2.979

@<SCITEGIC>MOL_PROPERTY
Pdih
SciTegic.value.DoubleValue
7.334

@<SCITEGIC>MOL_PROPERTY
Idih
SciTegic.value.DoubleValue
0.001

@<SCITEGIC>MOL_PROPERTY
Tether
SciTegic.value.DoubleValue
0.000

@<TRIPOS>MOLECULE
guest-8_confgen4.mol2 : confsearch ligand conformer 68
          25          24           1
SMALL
USER_CHARGES
 
@<TRIPOS>ATOM
       1    C1      16.926312   16.828210   22.174640 C.2        1 MOL1         0.6168
       2    O1      15.939097   17.477078   22.459368 O.co2      1 MOL1        -0.6703
       3    O2      16.886352   15.678075   21.784339 O.co2      1 MOL1        -0.6703
       4    C2      18.292044   17.485278   22.339128 C.3        1 MOL1        -0.1963
       5    H1      18.176602   18.552462   22.118877 H          1 MOL1         0.0750
       6    H2      18.964347   17.066780   21.580694 H          1 MOL1         0.0750
       7    C3      18.889286   17.280241   23.755640 C.3        1 MOL1        -0.1860
       8    H3      18.230376   17.744597   24.502326 H          1 MOL1         0.0752
       9    H4      18.902677   16.204676   23.980198 H          1 MOL1         0.0752
      10    C4      20.325293   17.836040   23.907703 C.3        1 MOL1        -0.1858
      11    H5      20.983555   17.362812   23.166274 H          1 MOL1         0.0752
      12    H6      20.708613   17.544008   24.894969 H          1 MOL1         0.0752
      13    C5      20.407370   19.374085   23.770314 C.3        1 MOL1        -0.1858
      14    H7      20.090732   19.670327   22.763036 H          1 MOL1         0.0752
      15    H8      19.711445   19.843461   24.478791 H          1 MOL1         0.0752
      16    C6      21.839914   19.893588   24.033257 C.3        1 MOL1        -0.1858
      17    H9      22.530932   19.462001   23.296294 H          1 MOL1         0.0752
      18    H10     22.174084   19.539130   25.017906 H          1 MOL1         0.0752
      19    C7      21.950041   21.435942   24.004346 C.3        1 MOL1        -0.1834
      20    H11     21.263964   21.870841   24.744256 H          1 MOL1         0.0752
      21    H12     22.964034   21.722555   24.315631 H          1 MOL1         0.0752
      22    C8      21.667084   22.043770   22.613280 C.3        1 MOL1        -0.2849
      23    H13     20.624948   21.883313   22.310142 H          1 MOL1         0.0764
      24    H14     21.846512   23.126630   22.623978 H          1 MOL1         0.0764
      25    H15     22.320340   21.600512   21.850465 H          1 MOL1         0.0764
@<TRIPOS>BOND
    1     1     2    1
    2     1     3    2
    3     1     4    1
    4     4     5    1
    5     4     6    1
    6     4     7    1
    7     7     8    1
    8     7     9    1
    9     7    10    1
   10    10    11    1
   11    10    12    1
   12    10    13    1
   13    13    14    1
   14    13    15    1
   15    13    16    1
   16    16    17    1
   17    16    18    1
   18    16    19    1
   19    19    20    1
   20    19    21    1
   21    19    22    1
   22    22    23    1
   23    22    24    1
   24    22    25    1
@<TRIPOS>SUBSTRUCTURE
       1 MOL1            1 RESIDUE      1      MOL     
@<SCITEGIC>MOL_PROPERTY
VConf Rank
SciTegic.value.IntegerValue
68

@<SCITEGIC>MOL_PROPERTY
Conf_Id
SciTegic.value.IntegerValue
4

@<SCITEGIC>MOL_PROPERTY
Delta U+W
SciTegic.value.DoubleValue
0.189

@<SCITEGIC>MOL_PROPERTY
U+W
SciTegic.value.DoubleValue
-51.441

@<SCITEGIC>MOL_PROPERTY
Grad RMS
SciTegic.value.DoubleValue
0.000000

@<SCITEGIC>MOL_PROPERTY
U
SciTegic.value.DoubleValue
7.701

@<SCITEGIC>MOL_PROPERTY
W
SciTegic.value.DoubleValue
-59.141

@<SCITEGIC>MOL_PROPERTY
W(PB)
SciTegic.value.DoubleValue
-61.609

@<SCITEGIC>MOL_PROPERTY
W(SA)
SciTegic.value.DoubleValue
2.467

@<SCITEGIC>MOL_PROPERTY
Valence
SciTegic.value.DoubleValue
8.550

@<SCITEGIC>MOL_PROPERTY
Coulomb
SciTegic.value.DoubleValue
-1.988

@<SCITEGIC>MOL_PROPERTY
VdW
SciTegic.value.DoubleValue
1.139

@<SCITEGIC>MOL_PROPERTY
VdW6
SciTegic.value.DoubleValue
-8.988

@<SCITEGIC>MOL_PROPERTY
VdW12
SciTegic.value.DoubleValue
10.127

@<SCITEGIC>MOL_PROPERTY
Bond
SciTegic.value.DoubleValue
0.191

@<SCITEGIC>MOL_PROPERTY
Angle
SciTegic.value.DoubleValue
2.738

@<SCITEGIC>MOL_PROPERTY
Pdih
SciTegic.value.DoubleValue
5.621

@<SCITEGIC>MOL_PROPERTY
Idih
SciTegic.value.DoubleValue
0.001

@<SCITEGIC>MOL_PROPERTY
Tether
SciTegic.value.DoubleValue
0.000

@<TRIPOS>MOLECULE
guest-8_confgen4.mol2 : confsearch ligand conformer 69
          25          24           1
SMALL
USER_CHARGES
 
@<TRIPOS>ATOM
       1    C1      20.880745   18.435626   27.221903 C.2        1 MOL1         0.6168
       2    O1      22.044338   18.085635   27.237751 O.co2      1 MOL1        -0.6703
       3    O2      20.223961   18.634582   28.224795 O.co2      1 MOL1        -0.6703
       4    C2      20.214700   18.660345   25.869162 C.3        1 MOL1        -0.1963
       5    H1      19.150436   18.416075   25.969320 H          1 MOL1         0.0750
       6    H2      20.648075   17.944404   25.161818 H          1 MOL1         0.0750
       7    C3      20.384247   20.112336   25.351268 C.3        1 MOL1        -0.1860
       8    H3      20.026435   20.806352   26.124418 H          1 MOL1         0.0752
       9    H4      21.452157   20.329192   25.210301 H          1 MOL1         0.0752
      10    C4      19.615649   20.394313   24.038294 C.3        1 MOL1        -0.1858
      11    H5      19.695101   21.466425   23.812075 H          1 MOL1         0.0752
      12    H6      18.547023   20.186043   24.185375 H          1 MOL1         0.0752
      13    C5      20.142527   19.584389   22.830975 C.3        1 MOL1        -0.1858
      14    H7      21.221462   19.755894   22.716737 H          1 MOL1         0.0752
      15    H8      20.004459   18.512857   23.019076 H          1 MOL1         0.0752
      16    C6      19.416549   19.975154   21.522747 C.3        1 MOL1        -0.1858
      17    H9      19.505397   21.060028   21.374428 H          1 MOL1         0.0752
      18    H10     18.343199   19.760960   21.617226 H          1 MOL1         0.0752
      19    C7      19.978129   19.261738   20.270755 C.3        1 MOL1        -0.1834
      20    H11     19.492278   19.680933   19.378874 H          1 MOL1         0.0752
      21    H12     21.050682   19.478137   20.170204 H          1 MOL1         0.0752
      22    C8      19.755628   17.733713   20.285644 C.3        1 MOL1        -0.2849
      23    H13     18.692772   17.492612   20.417239 H          1 MOL1         0.0764
      24    H14     20.088504   17.288240   19.339260 H          1 MOL1         0.0764
      25    H15     20.320611   17.254200   21.094686 H          1 MOL1         0.0764
@<TRIPOS>BOND
    1     1     2    1
    2     1     3    2
    3     1     4    1
    4     4     5    1
    5     4     6    1
    6     4     7    1
    7     7     8    1
    8     7     9    1
    9     7    10    1
   10    10    11    1
   11    10    12    1
   12    10    13    1
   13    13    14    1
   14    13    15    1
   15    13    16    1
   16    16    17    1
   17    16    18    1
   18    16    19    1
   19    19    20    1
   20    19    21    1
   21    19    22    1
   22    22    23    1
   23    22    24    1
   24    22    25    1
@<TRIPOS>SUBSTRUCTURE
       1 MOL1            1 RESIDUE      1      MOL     
@<SCITEGIC>MOL_PROPERTY
VConf Rank
SciTegic.value.IntegerValue
69

@<SCITEGIC>MOL_PROPERTY
Conf_Id
SciTegic.value.IntegerValue
17

@<SCITEGIC>MOL_PROPERTY
Delta U+W
SciTegic.value.DoubleValue
0.219

@<SCITEGIC>MOL_PROPERTY
U+W
SciTegic.value.DoubleValue
-51.411

@<SCITEGIC>MOL_PROPERTY
Grad RMS
SciTegic.value.DoubleValue
0.000000

@<SCITEGIC>MOL_PROPERTY
U
SciTegic.value.DoubleValue
7.701

@<SCITEGIC>MOL_PROPERTY
W
SciTegic.value.DoubleValue
-59.111

@<SCITEGIC>MOL_PROPERTY
W(PB)
SciTegic.value.DoubleValue
-61.599

@<SCITEGIC>MOL_PROPERTY
W(SA)
SciTegic.value.DoubleValue
2.488

@<SCITEGIC>MOL_PROPERTY
Valence
SciTegic.value.DoubleValue
8.550

@<SCITEGIC>MOL_PROPERTY
Coulomb
SciTegic.value.DoubleValue
-1.988

@<SCITEGIC>MOL_PROPERTY
VdW
SciTegic.value.DoubleValue
1.139

@<SCITEGIC>MOL_PROPERTY
VdW6
SciTegic.value.DoubleValue
-8.988

@<SCITEGIC>MOL_PROPERTY
VdW12
SciTegic.value.DoubleValue
10.127

@<SCITEGIC>MOL_PROPERTY
Bond
SciTegic.value.DoubleValue
0.191

@<SCITEGIC>MOL_PROPERTY
Angle
SciTegic.value.DoubleValue
2.738

@<SCITEGIC>MOL_PROPERTY
Pdih
SciTegic.value.DoubleValue
5.621

@<SCITEGIC>MOL_PROPERTY
Idih
SciTegic.value.DoubleValue
0.001

@<SCITEGIC>MOL_PROPERTY
Tether
SciTegic.value.DoubleValue
0.000

@<TRIPOS>MOLECULE
guest-8_confgen4.mol2 : confsearch ligand conformer 70
          25          24           1
SMALL
USER_CHARGES
 
@<TRIPOS>ATOM
       1    C1      19.544789   22.345581   25.646198 C.2        1 MOL1         0.6168
       2    O1      18.385560   22.710589   25.641640 O.co2      1 MOL1        -0.6703
       3    O2      20.463725   23.018555   25.222245 O.co2      1 MOL1        -0.6703
       4    C2      19.869068   20.975025   26.233863 C.3        1 MOL1        -0.1963
       5    H1      19.036749   20.664056   26.876761 H          1 MOL1         0.0750
       6    H2      20.744066   21.094939   26.883465 H          1 MOL1         0.0750
       7    C3      20.159990   19.886519   25.168304 C.3        1 MOL1        -0.1860
       8    H3      20.982424   20.228600   24.526238 H          1 MOL1         0.0752
       9    H4      20.508900   18.976218   25.674150 H          1 MOL1         0.0752
      10    C4      18.916305   19.550024   24.311116 C.3        1 MOL1        -0.1858
      11    H5      18.601504   20.437912   23.745540 H          1 MOL1         0.0752
      12    H6      18.081050   19.296438   24.978118 H          1 MOL1         0.0752
      13    C5      19.141339   18.370671   23.335306 C.3        1 MOL1        -0.1858
      14    H7      19.447673   17.479236   23.899533 H          1 MOL1         0.0752
      15    H8      18.181516   18.123701   22.861380 H          1 MOL1         0.0752
      16    C6      20.182497   18.673536   22.232902 C.3        1 MOL1        -0.1858
      17    H9      21.167150   18.848841   22.685291 H          1 MOL1         0.0752
      18    H10     19.902078   19.596286   21.706792 H          1 MOL1         0.0752
      19    C7      20.292519   17.515491   21.218716 C.3        1 MOL1        -0.1834
      20    H11     20.571162   16.590402   21.742194 H          1 MOL1         0.0752
      21    H12     19.313690   17.336282   20.752668 H          1 MOL1         0.0752
      22    C8      21.333773   17.817406   20.122194 C.3        1 MOL1        -0.2849
      23    H13     22.330085   17.969278   20.557717 H          1 MOL1         0.0764
      24    H14     21.398545   16.984394   19.410190 H          1 MOL1         0.0764
      25    H15     21.063047   18.721952   19.561940 H          1 MOL1         0.0764
@<TRIPOS>BOND
    1     1     2    1
    2     1     3    2
    3     1     4    1
    4     4     5    1
    5     4     6    1
    6     4     7    1
    7     7     8    1
    8     7     9    1
    9     7    10    1
   10    10    11    1
   11    10    12    1
   12    10    13    1
   13    13    14    1
   14    13    15    1
   15    13    16    1
   16    16    17    1
   17    16    18    1
   18    16    19    1
   19    19    20    1
   20    19    21    1
   21    19    22    1
   22    22    23    1
   23    22    24    1
   24    22    25    1
@<TRIPOS>SUBSTRUCTURE
       1 MOL1            1 RESIDUE      1      MOL     
@<SCITEGIC>MOL_PROPERTY
VConf Rank
SciTegic.value.IntegerValue
70

@<SCITEGIC>MOL_PROPERTY
Conf_Id
SciTegic.value.IntegerValue
142

@<SCITEGIC>MOL_PROPERTY
Delta U+W
SciTegic.value.DoubleValue
0.593

@<SCITEGIC>MOL_PROPERTY
U+W
SciTegic.value.DoubleValue
-51.037

@<SCITEGIC>MOL_PROPERTY
Grad RMS
SciTegic.value.DoubleValue
0.000000

@<SCITEGIC>MOL_PROPERTY
U
SciTegic.value.DoubleValue
8.903

@<SCITEGIC>MOL_PROPERTY
W
SciTegic.value.DoubleValue
-59.940

@<SCITEGIC>MOL_PROPERTY
W(PB)
SciTegic.value.DoubleValue
-62.418

@<SCITEGIC>MOL_PROPERTY
W(SA)
SciTegic.value.DoubleValue
2.478

@<SCITEGIC>MOL_PROPERTY
Valence
SciTegic.value.DoubleValue
8.305

@<SCITEGIC>MOL_PROPERTY
Coulomb
SciTegic.value.DoubleValue
-0.223

@<SCITEGIC>MOL_PROPERTY
VdW
SciTegic.value.DoubleValue
0.821

@<SCITEGIC>MOL_PROPERTY
VdW6
SciTegic.value.DoubleValue
-9.236

@<SCITEGIC>MOL_PROPERTY
VdW12
SciTegic.value.DoubleValue
10.057

@<SCITEGIC>MOL_PROPERTY
Bond
SciTegic.value.DoubleValue
0.173

@<SCITEGIC>MOL_PROPERTY
Angle
SciTegic.value.DoubleValue
2.663

@<SCITEGIC>MOL_PROPERTY
Pdih
SciTegic.value.DoubleValue
5.469

@<SCITEGIC>MOL_PROPERTY
Idih
SciTegic.value.DoubleValue
0.001

@<SCITEGIC>MOL_PROPERTY
Tether
SciTegic.value.DoubleValue
0.000

@<TRIPOS>MOLECULE
guest-8_confgen4.mol2 : confsearch ligand conformer 71
          25          24           1
SMALL
USER_CHARGES
 
@<TRIPOS>ATOM
       1    C1      19.219400   22.522346   23.790676 C.2        1 MOL1         0.6168
       2    O1      19.227688   23.562836   23.162288 O.co2      1 MOL1        -0.6703
       3    O2      18.265371   22.134710   24.436139 O.co2      1 MOL1        -0.6703
       4    C2      20.486813   21.672287   23.789584 C.3        1 MOL1        -0.1963
       5    H1      20.418910   20.939099   24.601448 H          1 MOL1         0.0750
       6    H2      21.324094   22.334516   24.038445 H          1 MOL1         0.0750
       7    C3      20.774692   20.965131   22.437109 C.3        1 MOL1        -0.1860
       8    H3      20.904873   21.731121   21.660264 H          1 MOL1         0.0752
       9    H4      21.734863   20.437229   22.502217 H          1 MOL1         0.0752
      10    C4      19.667410   19.980087   21.980757 C.3        1 MOL1        -0.1858
      11    H5      19.961396   19.540613   21.017932 H          1 MOL1         0.0752
      12    H6      18.745261   20.544466   21.785299 H          1 MOL1         0.0752
      13    C5      19.346396   18.837481   22.976612 C.3        1 MOL1        -0.1858
      14    H7      18.943532   19.256483   23.908435 H          1 MOL1         0.0752
      15    H8      18.542748   18.222840   22.548944 H          1 MOL1         0.0752
      16    C6      20.559497   17.931461   23.289949 C.3        1 MOL1        -0.1858
      17    H9      21.344843   18.517341   23.785006 H          1 MOL1         0.0752
      18    H10     20.985275   17.550527   22.351718 H          1 MOL1         0.0752
      19    C7      20.167033   16.746485   24.197274 C.3        1 MOL1        -0.1834
      20    H11     19.738372   17.125421   25.135428 H          1 MOL1         0.0752
      21    H12     19.386219   16.147659   23.708285 H          1 MOL1         0.0752
      22    C8      21.379067   15.847331   24.513802 C.3        1 MOL1        -0.2849
      23    H13     22.163415   16.413813   25.032707 H          1 MOL1         0.0764
      24    H14     21.081994   15.010546   25.159228 H          1 MOL1         0.0764
      25    H15     21.809178   15.429931   23.593946 H          1 MOL1         0.0764
@<TRIPOS>BOND
    1     1     2    1
    2     1     3    2
    3     1     4    1
    4     4     5    1
    5     4     6    1
    6     4     7    1
    7     7     8    1
    8     7     9    1
    9     7    10    1
   10    10    11    1
   11    10    12    1
   12    10    13    1
   13    13    14    1
   14    13    15    1
   15    13    16    1
   16    16    17    1
   17    16    18    1
   18    16    19    1
   19    19    20    1
   20    19    21    1
   21    19    22    1
   22    22    23    1
   23    22    24    1
   24    22    25    1
@<TRIPOS>SUBSTRUCTURE
       1 MOL1            1 RESIDUE      1      MOL     
@<SCITEGIC>MOL_PROPERTY
VConf Rank
SciTegic.value.IntegerValue
71

@<SCITEGIC>MOL_PROPERTY
Conf_Id
SciTegic.value.IntegerValue
135

@<SCITEGIC>MOL_PROPERTY
Delta U+W
SciTegic.value.DoubleValue
1.314

@<SCITEGIC>MOL_PROPERTY
U+W
SciTegic.value.DoubleValue
-50.316

@<SCITEGIC>MOL_PROPERTY
Grad RMS
SciTegic.value.DoubleValue
0.000000

@<SCITEGIC>MOL_PROPERTY
U
SciTegic.value.DoubleValue
9.773

@<SCITEGIC>MOL_PROPERTY
W
SciTegic.value.DoubleValue
-60.088

@<SCITEGIC>MOL_PROPERTY
W(PB)
SciTegic.value.DoubleValue
-62.535

@<SCITEGIC>MOL_PROPERTY
W(SA)
SciTegic.value.DoubleValue
2.447

@<SCITEGIC>MOL_PROPERTY
Valence
SciTegic.value.DoubleValue
8.741

@<SCITEGIC>MOL_PROPERTY
Coulomb
SciTegic.value.DoubleValue
0.479

@<SCITEGIC>MOL_PROPERTY
VdW
SciTegic.value.DoubleValue
0.552

@<SCITEGIC>MOL_PROPERTY
VdW6
SciTegic.value.DoubleValue
-10.627

@<SCITEGIC>MOL_PROPERTY
VdW12
SciTegic.value.DoubleValue
11.179

@<SCITEGIC>MOL_PROPERTY
Bond
SciTegic.value.DoubleValue
0.227

@<SCITEGIC>MOL_PROPERTY
Angle
SciTegic.value.DoubleValue
3.155

@<SCITEGIC>MOL_PROPERTY
Pdih
SciTegic.value.DoubleValue
5.358

@<SCITEGIC>MOL_PROPERTY
Idih
SciTegic.value.DoubleValue
0.001

@<SCITEGIC>MOL_PROPERTY
Tether
SciTegic.value.DoubleValue
0.000

@<TRIPOS>MOLECULE
guest-8_confgen4.mol2 : confsearch ligand conformer 72
          25          24           1
SMALL
USER_CHARGES
 
@<TRIPOS>ATOM
       1    C1      20.630778   22.299482   20.456154 C.2        1 MOL1         0.6168
       2    O1      19.590893   22.815124   20.096303 O.co2      1 MOL1        -0.6703
       3    O2      21.719236   22.827192   20.339740 O.co2      1 MOL1        -0.6703
       4    C2      20.563930   20.924159   21.110523 C.3        1 MOL1        -0.1963
       5    H1      21.488875   20.387392   20.868229 H          1 MOL1         0.0750
       6    H2      19.737668   20.375121   20.645744 H          1 MOL1         0.0750
       7    C3      20.377054   21.000946   22.648381 C.3        1 MOL1        -0.1860
       8    H3      21.168285   21.639188   23.065572 H          1 MOL1         0.0752
       9    H4      19.424619   21.497653   22.879531 H          1 MOL1         0.0752
      10    C4      20.433497   19.623144   23.350812 C.3        1 MOL1        -0.1858
      11    H5      20.449098   19.798183   24.433913 H          1 MOL1         0.0752
      12    H6      21.375400   19.117637   23.098107 H          1 MOL1         0.0752
      13    C5      19.235841   18.705822   23.006424 C.3        1 MOL1        -0.1858
      14    H7      18.302026   19.194104   23.316528 H          1 MOL1         0.0752
      15    H8      19.171119   18.579308   21.918637 H          1 MOL1         0.0752
      16    C6      19.313761   17.294537   23.641776 C.3        1 MOL1        -0.1858
      17    H9      20.196782   16.760677   23.264716 H          1 MOL1         0.0752
      18    H10     18.445820   16.723596   23.284596 H          1 MOL1         0.0752
      19    C7      19.296987   17.277254   25.190847 C.3        1 MOL1        -0.1834
      20    H11     18.780377   18.166892   25.576716 H          1 MOL1         0.0752
      21    H12     18.707585   16.412837   25.526541 H          1 MOL1         0.0752
      22    C8      20.706999   17.164147   25.812409 C.3        1 MOL1        -0.2849
      23    H13     21.348906   18.004292   25.523912 H          1 MOL1         0.0764
      24    H14     20.643794   17.150887   26.908144 H          1 MOL1         0.0764
      25    H15     21.200387   16.236802   25.493536 H          1 MOL1         0.0764
@<TRIPOS>BOND
    1     1     2    1
    2     1     3    2
    3     1     4    1
    4     4     5    1
    5     4     6    1
    6     4     7    1
    7     7     8    1
    8     7     9    1
    9     7    10    1
   10    10    11    1
   11    10    12    1
   12    10    13    1
   13    13    14    1
   14    13    15    1
   15    13    16    1
   16    16    17    1
   17    16    18    1
   18    16    19    1
   19    19    20    1
   20    19    21    1
   21    19    22    1
   22    22    23    1
   23    22    24    1
   24    22    25    1
@<TRIPOS>SUBSTRUCTURE
       1 MOL1            1 RESIDUE      1      MOL     
@<SCITEGIC>MOL_PROPERTY
VConf Rank
SciTegic.value.IntegerValue
72

@<SCITEGIC>MOL_PROPERTY
Conf_Id
SciTegic.value.IntegerValue
19

@<SCITEGIC>MOL_PROPERTY
Delta U+W
SciTegic.value.DoubleValue
3.222

@<SCITEGIC>MOL_PROPERTY
U+W
SciTegic.value.DoubleValue
-48.407

@<SCITEGIC>MOL_PROPERTY
Grad RMS
SciTegic.value.DoubleValue
0.000000

@<SCITEGIC>MOL_PROPERTY
U
SciTegic.value.DoubleValue
10.617

@<SCITEGIC>MOL_PROPERTY
W
SciTegic.value.DoubleValue
-59.025

@<SCITEGIC>MOL_PROPERTY
W(PB)
SciTegic.value.DoubleValue
-61.462

@<SCITEGIC>MOL_PROPERTY
W(SA)
SciTegic.value.DoubleValue
2.437

@<SCITEGIC>MOL_PROPERTY
Valence
SciTegic.value.DoubleValue
11.188

@<SCITEGIC>MOL_PROPERTY
Coulomb
SciTegic.value.DoubleValue
-1.778

@<SCITEGIC>MOL_PROPERTY
VdW
SciTegic.value.DoubleValue
1.208

@<SCITEGIC>MOL_PROPERTY
VdW6
SciTegic.value.DoubleValue
-9.786

@<SCITEGIC>MOL_PROPERTY
VdW12
SciTegic.value.DoubleValue
10.993

@<SCITEGIC>MOL_PROPERTY
Bond
SciTegic.value.DoubleValue
0.241

@<SCITEGIC>MOL_PROPERTY
Angle
SciTegic.value.DoubleValue
3.294

@<SCITEGIC>MOL_PROPERTY
Pdih
SciTegic.value.DoubleValue
7.653

@<SCITEGIC>MOL_PROPERTY
Idih
SciTegic.value.DoubleValue
0.001

@<SCITEGIC>MOL_PROPERTY
Tether
SciTegic.value.DoubleValue
0.000

@<TRIPOS>MOLECULE
guest-8_confgen4.mol2 : confsearch ligand conformer 73
          25          24           1
SMALL
USER_CHARGES
 
@<TRIPOS>ATOM
       1    C1      20.363692   16.763414   19.829197 C.2        1 MOL1         0.6168
       2    O1      21.167037   17.164749   19.010473 O.co2      1 MOL1        -0.6703
       3    O2      19.466830   15.986380   19.567235 O.co2      1 MOL1        -0.6703
       4    C2      20.472677   17.281320   21.258910 C.3        1 MOL1        -0.1963
       5    H1      21.534650   17.444294   21.472979 H          1 MOL1         0.0750
       6    H2      20.121696   16.491670   21.933900 H          1 MOL1         0.0750
       7    C3      19.659441   18.581997   21.488504 C.3        1 MOL1        -0.1860
       8    H3      20.050375   19.379979   20.842223 H          1 MOL1         0.0752
       9    H4      18.622170   18.406765   21.171000 H          1 MOL1         0.0752
      10    C4      19.650528   19.057524   22.961165 C.3        1 MOL1        -0.1858
      11    H5      19.283119   18.249585   23.608332 H          1 MOL1         0.0752
      12    H6      18.930678   19.881484   23.044204 H          1 MOL1         0.0752
      13    C5      21.032023   19.543879   23.460560 C.3        1 MOL1        -0.1858
      14    H7      21.774448   18.748767   23.318862 H          1 MOL1         0.0752
      15    H8      21.364759   20.390285   22.844541 H          1 MOL1         0.0752
      16    C6      21.058772   19.953568   24.954854 C.3        1 MOL1        -0.1858
      17    H9      22.093634   20.225425   25.203906 H          1 MOL1         0.0752
      18    H10     20.818353   19.087488   25.586526 H          1 MOL1         0.0752
      19    C7      20.145834   21.151799   25.316780 C.3        1 MOL1        -0.1834
      20    H11     20.658296   21.770569   26.066318 H          1 MOL1         0.0752
      21    H12     19.996770   21.796440   24.439596 H          1 MOL1         0.0752
      22    C8      18.782955   20.721495   25.903860 C.3        1 MOL1        -0.2849
      23    H13     18.921107   20.142455   26.826198 H          1 MOL1         0.0764
      24    H14     18.174852   21.601960   26.148396 H          1 MOL1         0.0764
      25    H15     18.211951   20.104683   25.200571 H          1 MOL1         0.0764
@<TRIPOS>BOND
    1     1     2    1
    2     1     3    2
    3     1     4    1
    4     4     5    1
    5     4     6    1
    6     4     7    1
    7     7     8    1
    8     7     9    1
    9     7    10    1
   10    10    11    1
   11    10    12    1
   12    10    13    1
   13    13    14    1
   14    13    15    1
   15    13    16    1
   16    16    17    1
   17    16    18    1
   18    16    19    1
   19    19    20    1
   20    19    21    1
   21    19    22    1
   22    22    23    1
   23    22    24    1
   24    22    25    1
@<TRIPOS>SUBSTRUCTURE
       1 MOL1            1 RESIDUE      1      MOL     
@<SCITEGIC>MOL_PROPERTY
VConf Rank
SciTegic.value.IntegerValue
73

@<SCITEGIC>MOL_PROPERTY
Conf_Id
SciTegic.value.IntegerValue
20

@<SCITEGIC>MOL_PROPERTY
Delta U+W
SciTegic.value.DoubleValue
3.224

@<SCITEGIC>MOL_PROPERTY
U+W
SciTegic.value.DoubleValue
-48.406

@<SCITEGIC>MOL_PROPERTY
Grad RMS
SciTegic.value.DoubleValue
0.000000

@<SCITEGIC>MOL_PROPERTY
U
SciTegic.value.DoubleValue
10.617

@<SCITEGIC>MOL_PROPERTY
W
SciTegic.value.DoubleValue
-59.023

@<SCITEGIC>MOL_PROPERTY
W(PB)
SciTegic.value.DoubleValue
-61.467

@<SCITEGIC>MOL_PROPERTY
W(SA)
SciTegic.value.DoubleValue
2.444

@<SCITEGIC>MOL_PROPERTY
Valence
SciTegic.value.DoubleValue
11.188

@<SCITEGIC>MOL_PROPERTY
Coulomb
SciTegic.value.DoubleValue
-1.778

@<SCITEGIC>MOL_PROPERTY
VdW
SciTegic.value.DoubleValue
1.208

@<SCITEGIC>MOL_PROPERTY
VdW6
SciTegic.value.DoubleValue
-9.786

@<SCITEGIC>MOL_PROPERTY
VdW12
SciTegic.value.DoubleValue
10.993

@<SCITEGIC>MOL_PROPERTY
Bond
SciTegic.value.DoubleValue
0.241

@<SCITEGIC>MOL_PROPERTY
Angle
SciTegic.value.DoubleValue
3.294

@<SCITEGIC>MOL_PROPERTY
Pdih
SciTegic.value.DoubleValue
7.653

@<SCITEGIC>MOL_PROPERTY
Idih
SciTegic.value.DoubleValue
0.001

@<SCITEGIC>MOL_PROPERTY
Tether
SciTegic.value.DoubleValue
0.000

@<TRIPOS>MOLECULE
guest-8_confgen4.mol2 : confsearch ligand conformer 74
          25          24           1
SMALL
USER_CHARGES
 
@<TRIPOS>ATOM
       1    C1      22.324236   19.822565   25.568897 C.2        1 MOL1         0.6168
       2    O1      23.153412   18.964469   25.336981 O.co2      1 MOL1        -0.6703
       3    O2      21.575180   19.790227   26.525499 O.co2      1 MOL1        -0.6703
       4    C2      22.263300   21.039667   24.647844 C.3        1 MOL1        -0.1963
       5    H1      23.229078   21.548719   24.745855 H          1 MOL1         0.0750
       6    H2      21.502803   21.734222   25.024709 H          1 MOL1         0.0750
       7    C3      22.007932   20.723805   23.147135 C.3        1 MOL1        -0.1860
       8    H3      22.344299   21.586946   22.556989 H          1 MOL1         0.0752
       9    H4      22.634869   19.878723   22.830305 H          1 MOL1         0.0752
      10    C4      20.527105   20.452055   22.783282 C.3        1 MOL1        -0.1858
      11    H5      20.449027   20.394213   21.688960 H          1 MOL1         0.0752
      12    H6      19.907920   21.305351   23.092039 H          1 MOL1         0.0752
      13    C5      19.957442   19.150269   23.391119 C.3        1 MOL1        -0.1858
      14    H7      20.633574   18.313066   23.169801 H          1 MOL1         0.0752
      15    H8      19.904584   19.240911   24.483362 H          1 MOL1         0.0752
      16    C6      18.547377   18.834783   22.846367 C.3        1 MOL1        -0.1858
      17    H9      18.589367   18.733361   21.753244 H          1 MOL1         0.0752
      18    H10     17.873963   19.675046   23.064320 H          1 MOL1         0.0752
      19    C7      17.972983   17.541211   23.461280 C.3        1 MOL1        -0.1834
      20    H11     18.643994   16.698517   23.244329 H          1 MOL1         0.0752
      21    H12     17.927882   17.639581   24.554850 H          1 MOL1         0.0752
      22    C8      16.564850   17.229046   22.915954 C.3        1 MOL1        -0.2849
      23    H13     16.586470   17.094441   21.826558 H          1 MOL1         0.0764
      24    H14     16.172255   16.306831   23.363673 H          1 MOL1         0.0764
      25    H15     15.864908   18.042698   23.147095 H          1 MOL1         0.0764
@<TRIPOS>BOND
    1     1     2    1
    2     1     3    2
    3     1     4    1
    4     4     5    1
    5     4     6    1
    6     4     7    1
    7     7     8    1
    8     7     9    1
    9     7    10    1
   10    10    11    1
   11    10    12    1
   12    10    13    1
   13    13    14    1
   14    13    15    1
   15    13    16    1
   16    16    17    1
   17    16    18    1
   18    16    19    1
   19    19    20    1
   20    19    21    1
   21    19    22    1
   22    22    23    1
   23    22    24    1
   24    22    25    1
@<TRIPOS>SUBSTRUCTURE
       1 MOL1            1 RESIDUE      1      MOL     
@<SCITEGIC>MOL_PROPERTY
VConf Rank
SciTegic.value.IntegerValue
74

@<SCITEGIC>MOL_PROPERTY
Conf_Id
SciTegic.value.IntegerValue
24

@<SCITEGIC>MOL_PROPERTY
Delta U+W
SciTegic.value.DoubleValue
1.784

@<SCITEGIC>MOL_PROPERTY
U+W
SciTegic.value.DoubleValue
-49.846

@<SCITEGIC>MOL_PROPERTY
Grad RMS
SciTegic.value.DoubleValue
0.000000

@<SCITEGIC>MOL_PROPERTY
U
SciTegic.value.DoubleValue
10.904

@<SCITEGIC>MOL_PROPERTY
W
SciTegic.value.DoubleValue
-60.749

@<SCITEGIC>MOL_PROPERTY
W(PB)
SciTegic.value.DoubleValue
-63.220

@<SCITEGIC>MOL_PROPERTY
W(SA)
SciTegic.value.DoubleValue
2.471

@<SCITEGIC>MOL_PROPERTY
Valence
SciTegic.value.DoubleValue
9.445

@<SCITEGIC>MOL_PROPERTY
Coulomb
SciTegic.value.DoubleValue
0.780

@<SCITEGIC>MOL_PROPERTY
VdW
SciTegic.value.DoubleValue
0.679

@<SCITEGIC>MOL_PROPERTY
VdW6
SciTegic.value.DoubleValue
-10.008

@<SCITEGIC>MOL_PROPERTY
VdW12
SciTegic.value.DoubleValue
10.687

@<SCITEGIC>MOL_PROPERTY
Bond
SciTegic.value.DoubleValue
0.201

@<SCITEGIC>MOL_PROPERTY
Angle
SciTegic.value.DoubleValue
3.198

@<SCITEGIC>MOL_PROPERTY
Pdih
SciTegic.value.DoubleValue
6.039

@<SCITEGIC>MOL_PROPERTY
Idih
SciTegic.value.DoubleValue
0.006

@<SCITEGIC>MOL_PROPERTY
Tether
SciTegic.value.DoubleValue
0.000

@<TRIPOS>MOLECULE
guest-8_confgen4.mol2 : confsearch ligand conformer 75
          25          24           1
SMALL
USER_CHARGES
 
@<TRIPOS>ATOM
       1    C1      21.841010   17.226741   21.507253 C.2        1 MOL1         0.6168
       2    O1      22.049834   17.938154   20.543964 O.co2      1 MOL1        -0.6703
       3    O2      22.675021   16.989128   22.358830 O.co2      1 MOL1        -0.6703
       4    C2      20.480889   16.540733   21.620640 C.3        1 MOL1        -0.1963
       5    H1      20.477191   15.901516   22.511805 H          1 MOL1         0.0750
       6    H2      20.399706   15.872883   20.755278 H          1 MOL1         0.0750
       7    C3      19.255109   17.496895   21.638498 C.3        1 MOL1        -0.1860
       8    H3      19.371132   18.269054   20.865255 H          1 MOL1         0.0752
       9    H4      18.367612   16.915751   21.353806 H          1 MOL1         0.0752
      10    C4      18.966382   18.157483   23.009390 C.3        1 MOL1        -0.1858
      11    H5      18.839619   17.379992   23.775075 H          1 MOL1         0.0752
      12    H6      18.003587   18.682083   22.940080 H          1 MOL1         0.0752
      13    C5      20.048047   19.163132   23.464691 C.3        1 MOL1        -0.1858
      14    H7      20.987619   18.633713   23.666995 H          1 MOL1         0.0752
      15    H8      20.249571   19.879336   22.656307 H          1 MOL1         0.0752
      16    C6      19.619472   19.925886   24.737129 C.3        1 MOL1        -0.1858
      17    H9      19.413699   19.207885   25.542835 H          1 MOL1         0.0752
      18    H10     18.683228   20.467241   24.543874 H          1 MOL1         0.0752
      19    C7      20.703696   20.922063   25.199150 C.3        1 MOL1        -0.1834
      20    H11     21.641470   20.383775   25.395190 H          1 MOL1         0.0752
      21    H12     20.911374   21.642176   24.395556 H          1 MOL1         0.0752
      22    C8      20.273213   21.681867   26.469996 C.3        1 MOL1        -0.2849
      23    H13     20.089327   20.986843   27.299756 H          1 MOL1         0.0764
      24    H14     21.055503   22.385079   26.783966 H          1 MOL1         0.0764
      25    H15     19.353697   22.254892   26.292499 H          1 MOL1         0.0764
@<TRIPOS>BOND
    1     1     2    1
    2     1     3    2
    3     1     4    1
    4     4     5    1
    5     4     6    1
    6     4     7    1
    7     7     8    1
    8     7     9    1
    9     7    10    1
   10    10    11    1
   11    10    12    1
   12    10    13    1
   13    13    14    1
   14    13    15    1
   15    13    16    1
   16    16    17    1
   17    16    18    1
   18    16    19    1
   19    19    20    1
   20    19    21    1
   21    19    22    1
   22    22    23    1
   23    22    24    1
   24    22    25    1
@<TRIPOS>SUBSTRUCTURE
       1 MOL1            1 RESIDUE      1      MOL     
@<SCITEGIC>MOL_PROPERTY
VConf Rank
SciTegic.value.IntegerValue
75

@<SCITEGIC>MOL_PROPERTY
Conf_Id
SciTegic.value.IntegerValue
9

@<SCITEGIC>MOL_PROPERTY
Delta U+W
SciTegic.value.DoubleValue
1.764

@<SCITEGIC>MOL_PROPERTY
U+W
SciTegic.value.DoubleValue
-49.865

@<SCITEGIC>MOL_PROPERTY
Grad RMS
SciTegic.value.DoubleValue
0.000000

@<SCITEGIC>MOL_PROPERTY
U
SciTegic.value.DoubleValue
10.902

@<SCITEGIC>MOL_PROPERTY
W
SciTegic.value.DoubleValue
-60.768

@<SCITEGIC>MOL_PROPERTY
W(PB)
SciTegic.value.DoubleValue
-63.223

@<SCITEGIC>MOL_PROPERTY
W(SA)
SciTegic.value.DoubleValue
2.456

@<SCITEGIC>MOL_PROPERTY
Valence
SciTegic.value.DoubleValue
9.445

@<SCITEGIC>MOL_PROPERTY
Coulomb
SciTegic.value.DoubleValue
0.778

@<SCITEGIC>MOL_PROPERTY
VdW
SciTegic.value.DoubleValue
0.679

@<SCITEGIC>MOL_PROPERTY
VdW6
SciTegic.value.DoubleValue
-10.007

@<SCITEGIC>MOL_PROPERTY
VdW12
SciTegic.value.DoubleValue
10.687

@<SCITEGIC>MOL_PROPERTY
Bond
SciTegic.value.DoubleValue
0.201

@<SCITEGIC>MOL_PROPERTY
Angle
SciTegic.value.DoubleValue
3.198

@<SCITEGIC>MOL_PROPERTY
Pdih
SciTegic.value.DoubleValue
6.040

@<SCITEGIC>MOL_PROPERTY
Idih
SciTegic.value.DoubleValue
0.006

@<SCITEGIC>MOL_PROPERTY
Tether
SciTegic.value.DoubleValue
0.000

@<TRIPOS>MOLECULE
guest-8_confgen4.mol2 : confsearch ligand conformer 76
          25          24           1
SMALL
USER_CHARGES
 
@<TRIPOS>ATOM
       1    C1      18.874085   18.879828   19.887886 C.2        1 MOL1         0.6168
       2    O1      17.838201   19.465743   20.133348 O.co2      1 MOL1        -0.6703
       3    O2      19.296553   18.701884   18.762407 O.co2      1 MOL1        -0.6703
       4    C2      19.700100   18.356672   21.057383 C.3        1 MOL1        -0.1963
       5    H1      20.201835   17.437539   20.732245 H          1 MOL1         0.0750
       6    H2      19.007698   18.076225   21.857004 H          1 MOL1         0.0750
       7    C3      20.747786   19.385443   21.559011 C.3        1 MOL1        -0.1860
       8    H3      21.416309   19.622780   20.719854 H          1 MOL1         0.0752
       9    H4      20.252596   20.327945   21.830844 H          1 MOL1         0.0752
      10    C4      21.603913   18.868362   22.743056 C.3        1 MOL1        -0.1858
      11    H5      22.619015   19.273708   22.632693 H          1 MOL1         0.0752
      12    H6      21.711325   17.776454   22.687930 H          1 MOL1         0.0752
      13    C5      21.087682   19.283376   24.143781 C.3        1 MOL1        -0.1858
      14    H7      21.811165   18.937318   24.894359 H          1 MOL1         0.0752
      15    H8      21.073729   20.379209   24.209966 H          1 MOL1         0.0752
      16    C6      19.690313   18.721949   24.497804 C.3        1 MOL1        -0.1858
      17    H9      19.669828   17.645433   24.280801 H          1 MOL1         0.0752
      18    H10     18.929572   19.190382   23.859768 H          1 MOL1         0.0752
      19    C7      19.303632   18.933604   25.980104 C.3        1 MOL1        -0.1834
      20    H11     18.349519   18.423762   26.172180 H          1 MOL1         0.0752
      21    H12     20.048105   18.453666   26.630222 H          1 MOL1         0.0752
      22    C8      19.159939   20.421856   26.365829 C.3        1 MOL1        -0.2849
      23    H13     18.438440   20.928982   25.712064 H          1 MOL1         0.0764
      24    H14     18.805167   20.518180   27.400096 H          1 MOL1         0.0764
      25    H15     20.119847   20.948310   26.293069 H          1 MOL1         0.0764
@<TRIPOS>BOND
    1     1     2    1
    2     1     3    2
    3     1     4    1
    4     4     5    1
    5     4     6    1
    6     4     7    1
    7     7     8    1
    8     7     9    1
    9     7    10    1
   10    10    11    1
   11    10    12    1
   12    10    13    1
   13    13    14    1
   14    13    15    1
   15    13    16    1
   16    16    17    1
   17    16    18    1
   18    16    19    1
   19    19    20    1
   20    19    21    1
   21    19    22    1
   22    22    23    1
   23    22    24    1
   24    22    25    1
@<TRIPOS>SUBSTRUCTURE
       1 MOL1            1 RESIDUE      1      MOL     
@<SCITEGIC>MOL_PROPERTY
VConf Rank
SciTegic.value.IntegerValue
76

@<SCITEGIC>MOL_PROPERTY
Conf_Id
SciTegic.value.IntegerValue
89

@<SCITEGIC>MOL_PROPERTY
Delta U+W
SciTegic.value.DoubleValue
2.903

@<SCITEGIC>MOL_PROPERTY
U+W
SciTegic.value.DoubleValue
-48.726

@<SCITEGIC>MOL_PROPERTY
Grad RMS
SciTegic.value.DoubleValue
0.000000

@<SCITEGIC>MOL_PROPERTY
U
SciTegic.value.DoubleValue
10.996

@<SCITEGIC>MOL_PROPERTY
W
SciTegic.value.DoubleValue
-59.723

@<SCITEGIC>MOL_PROPERTY
W(PB)
SciTegic.value.DoubleValue
-62.151

@<SCITEGIC>MOL_PROPERTY
W(SA)
SciTegic.value.DoubleValue
2.428

@<SCITEGIC>MOL_PROPERTY
Valence
SciTegic.value.DoubleValue
10.985

@<SCITEGIC>MOL_PROPERTY
Coulomb
SciTegic.value.DoubleValue
-0.995

@<SCITEGIC>MOL_PROPERTY
VdW
SciTegic.value.DoubleValue
1.006

@<SCITEGIC>MOL_PROPERTY
VdW6
SciTegic.value.DoubleValue
-10.062

@<SCITEGIC>MOL_PROPERTY
VdW12
SciTegic.value.DoubleValue
11.069

@<SCITEGIC>MOL_PROPERTY
Bond
SciTegic.value.DoubleValue
0.238

@<SCITEGIC>MOL_PROPERTY
Angle
SciTegic.value.DoubleValue
3.202

@<SCITEGIC>MOL_PROPERTY
Pdih
SciTegic.value.DoubleValue
7.544

@<SCITEGIC>MOL_PROPERTY
Idih
SciTegic.value.DoubleValue
0.001

@<SCITEGIC>MOL_PROPERTY
Tether
SciTegic.value.DoubleValue
0.000

@<TRIPOS>MOLECULE
guest-8_confgen4.mol2 : confsearch ligand conformer 77
          25          24           1
SMALL
USER_CHARGES
 
@<TRIPOS>ATOM
       1    C1      19.814964   16.126677   21.600347 C.2        1 MOL1         0.6168
       2    O1      20.805951   15.549132   22.002399 O.co2      1 MOL1        -0.6703
       3    O2      18.682999   15.724172   21.785422 O.co2      1 MOL1        -0.6703
       4    C2      20.007832   17.389950   20.763572 C.3        1 MOL1        -0.1963
       5    H1      19.623879   17.157564   19.763545 H          1 MOL1         0.0750
       6    H2      21.081523   17.582570   20.650188 H          1 MOL1         0.0750
       7    C3      19.285975   18.658377   21.299850 C.3        1 MOL1        -0.1860
       8    H3      19.169493   19.359795   20.462660 H          1 MOL1         0.0752
       9    H4      18.267167   18.402372   21.622443 H          1 MOL1         0.0752
      10    C4      20.031685   19.402394   22.435759 C.3        1 MOL1        -0.1858
      11    H5      19.515401   20.355806   22.603024 H          1 MOL1         0.0752
      12    H6      21.048543   19.655338   22.106256 H          1 MOL1         0.0752
      13    C5      20.097163   18.615590   23.767312 C.3        1 MOL1        -0.1858
      14    H7      19.086936   18.307525   24.069481 H          1 MOL1         0.0752
      15    H8      20.671588   17.693914   23.614386 H          1 MOL1         0.0752
      16    C6      20.767701   19.403347   24.918483 C.3        1 MOL1        -0.1858
      17    H9      21.765146   19.738837   24.603243 H          1 MOL1         0.0752
      18    H10     20.923932   18.716703   25.761699 H          1 MOL1         0.0752
      19    C7      19.939005   20.612716   25.408513 C.3        1 MOL1        -0.1834
      20    H11     19.838180   21.354932   24.606216 H          1 MOL1         0.0752
      21    H12     18.923937   20.284200   25.671003 H          1 MOL1         0.0752
      22    C8      20.591519   21.285885   26.632916 C.3        1 MOL1        -0.2849
      23    H13     21.599092   21.648528   26.390727 H          1 MOL1         0.0764
      24    H14     19.993676   22.143812   26.966975 H          1 MOL1         0.0764
      25    H15     20.672611   20.582455   27.471935 H          1 MOL1         0.0764
@<TRIPOS>BOND
    1     1     2    1
    2     1     3    2
    3     1     4    1
    4     4     5    1
    5     4     6    1
    6     4     7    1
    7     7     8    1
    8     7     9    1
    9     7    10    1
   10    10    11    1
   11    10    12    1
   12    10    13    1
   13    13    14    1
   14    13    15    1
   15    13    16    1
   16    16    17    1
   17    16    18    1
   18    16    19    1
   19    19    20    1
   20    19    21    1
   21    19    22    1
   22    22    23    1
   23    22    24    1
   24    22    25    1
@<TRIPOS>SUBSTRUCTURE
       1 MOL1            1 RESIDUE      1      MOL     
@<SCITEGIC>MOL_PROPERTY
VConf Rank
SciTegic.value.IntegerValue
77

@<SCITEGIC>MOL_PROPERTY
Conf_Id
SciTegic.value.IntegerValue
114

@<SCITEGIC>MOL_PROPERTY
Delta U+W
SciTegic.value.DoubleValue
2.758

@<SCITEGIC>MOL_PROPERTY
U+W
SciTegic.value.DoubleValue
-48.871

@<SCITEGIC>MOL_PROPERTY
Grad RMS
SciTegic.value.DoubleValue
0.000000

@<SCITEGIC>MOL_PROPERTY
U
SciTegic.value.DoubleValue
11.422

@<SCITEGIC>MOL_PROPERTY
W
SciTegic.value.DoubleValue
-60.293

@<SCITEGIC>MOL_PROPERTY
W(PB)
SciTegic.value.DoubleValue
-62.719

@<SCITEGIC>MOL_PROPERTY
W(SA)
SciTegic.value.DoubleValue
2.425

@<SCITEGIC>MOL_PROPERTY
Valence
SciTegic.value.DoubleValue
10.135

@<SCITEGIC>MOL_PROPERTY
Coulomb
SciTegic.value.DoubleValue
0.369

@<SCITEGIC>MOL_PROPERTY
VdW
SciTegic.value.DoubleValue
0.918

@<SCITEGIC>MOL_PROPERTY
VdW6
SciTegic.value.DoubleValue
-10.482

@<SCITEGIC>MOL_PROPERTY
VdW12
SciTegic.value.DoubleValue
11.400

@<SCITEGIC>MOL_PROPERTY
Bond
SciTegic.value.DoubleValue
0.245

@<SCITEGIC>MOL_PROPERTY
Angle
SciTegic.value.DoubleValue
3.539

@<SCITEGIC>MOL_PROPERTY
Pdih
SciTegic.value.DoubleValue
6.346

@<SCITEGIC>MOL_PROPERTY
Idih
SciTegic.value.DoubleValue
0.006

@<SCITEGIC>MOL_PROPERTY
Tether
SciTegic.value.DoubleValue
0.000

@<TRIPOS>MOLECULE
guest-8_confgen4.mol2 : confsearch ligand conformer 78
          25          24           1
SMALL
USER_CHARGES
 
@<TRIPOS>ATOM
       1    C1      23.419702   18.496603   21.401494 C.2        1 MOL1         0.6168
       2    O1      23.522772   19.452987   20.658683 O.co2      1 MOL1        -0.6703
       3    O2      24.235938   18.219028   22.258121 O.co2      1 MOL1        -0.6703
       4    C2      22.210025   17.580749   21.237662 C.3        1 MOL1        -0.1963
       5    H1      22.574510   16.547139   21.265606 H          1 MOL1         0.0750
       6    H2      21.783168   17.739849   20.240037 H          1 MOL1         0.0750
       7    C3      21.121351   17.775922   22.324710 C.3        1 MOL1        -0.1860
       8    H3      20.356809   16.996142   22.207799 H          1 MOL1         0.0752
       9    H4      21.576666   17.629306   23.312899 H          1 MOL1         0.0752
      10    C4      20.448528   19.167399   22.244975 C.3        1 MOL1        -0.1858
      11    H5      20.084287   19.327915   21.221057 H          1 MOL1         0.0752
      12    H6      21.192173   19.953689   22.434821 H          1 MOL1         0.0752
      13    C5      19.258859   19.336775   23.220005 C.3        1 MOL1        -0.1858
      14    H7      18.762698   20.287367   22.986799 H          1 MOL1         0.0752
      15    H8      18.518349   18.546107   23.038320 H          1 MOL1         0.0752
      16    C6      19.677914   19.328461   24.710933 C.3        1 MOL1        -0.1858
      17    H9      20.421134   20.117002   24.891235 H          1 MOL1         0.0752
      18    H10     20.170276   18.376609   24.946775 H          1 MOL1         0.0752
      19    C7      18.489031   19.505583   25.684393 C.3        1 MOL1        -0.1834
      20    H11     17.738070   18.725208   25.499028 H          1 MOL1         0.0752
      21    H12     18.849535   19.351032   26.710741 H          1 MOL1         0.0752
      22    C8      17.825793   20.897516   25.597538 C.3        1 MOL1        -0.2849
      23    H13     17.055002   21.003865   26.371795 H          1 MOL1         0.0764
      24    H14     18.565372   21.695152   25.745562 H          1 MOL1         0.0764
      25    H15     17.341851   21.052114   24.625269 H          1 MOL1         0.0764
@<TRIPOS>BOND
    1     1     2    1
    2     1     3    2
    3     1     4    1
    4     4     5    1
    5     4     6    1
    6     4     7    1
    7     7     8    1
    8     7     9    1
    9     7    10    1
   10    10    11    1
   11    10    12    1
   12    10    13    1
   13    13    14    1
   14    13    15    1
   15    13    16    1
   16    16    17    1
   17    16    18    1
   18    16    19    1
   19    19    20    1
   20    19    21    1
   21    19    22    1
   22    22    23    1
   23    22    24    1
   24    22    25    1
@<TRIPOS>SUBSTRUCTURE
       1 MOL1            1 RESIDUE      1      MOL     
@<SCITEGIC>MOL_PROPERTY
VConf Rank
SciTegic.value.IntegerValue
78

@<SCITEGIC>MOL_PROPERTY
Conf_Id
SciTegic.value.IntegerValue
87

@<SCITEGIC>MOL_PROPERTY
Delta U+W
SciTegic.value.DoubleValue
1.453

@<SCITEGIC>MOL_PROPERTY
U+W
SciTegic.value.DoubleValue
-50.176

@<SCITEGIC>MOL_PROPERTY
Grad RMS
SciTegic.value.DoubleValue
0.000000

@<SCITEGIC>MOL_PROPERTY
U
SciTegic.value.DoubleValue
9.763

@<SCITEGIC>MOL_PROPERTY
W
SciTegic.value.DoubleValue
-59.940

@<SCITEGIC>MOL_PROPERTY
W(PB)
SciTegic.value.DoubleValue
-62.392

@<SCITEGIC>MOL_PROPERTY
W(SA)
SciTegic.value.DoubleValue
2.452

@<SCITEGIC>MOL_PROPERTY
Valence
SciTegic.value.DoubleValue
8.883

@<SCITEGIC>MOL_PROPERTY
Coulomb
SciTegic.value.DoubleValue
-0.122

@<SCITEGIC>MOL_PROPERTY
VdW
SciTegic.value.DoubleValue
1.003

@<SCITEGIC>MOL_PROPERTY
VdW6
SciTegic.value.DoubleValue
-9.782

@<SCITEGIC>MOL_PROPERTY
VdW12
SciTegic.value.DoubleValue
10.785

@<SCITEGIC>MOL_PROPERTY
Bond
SciTegic.value.DoubleValue
0.212

@<SCITEGIC>MOL_PROPERTY
Angle
SciTegic.value.DoubleValue
2.940

@<SCITEGIC>MOL_PROPERTY
Pdih
SciTegic.value.DoubleValue
5.730

@<SCITEGIC>MOL_PROPERTY
Idih
SciTegic.value.DoubleValue
0.001

@<SCITEGIC>MOL_PROPERTY
Tether
SciTegic.value.DoubleValue
0.000

@<TRIPOS>MOLECULE
guest-8_confgen4.mol2 : confsearch ligand conformer 79
          25          24           1
SMALL
USER_CHARGES
 
@<TRIPOS>ATOM
       1    C1      16.902249   17.936801   21.258965 C.2        1 MOL1         0.6168
       2    O1      16.433794   18.998679   20.898898 O.co2      1 MOL1        -0.6703
       3    O2      16.829790   16.913477   20.607581 O.co2      1 MOL1        -0.6703
       4    C2      17.637669   17.889883   22.593552 C.3        1 MOL1        -0.1963
       5    H1      17.485590   16.896111   23.031467 H          1 MOL1         0.0750
       6    H2      17.168093   18.616792   23.267108 H          1 MOL1         0.0750
       7    C3      19.150902   18.188961   22.457067 C.3        1 MOL1        -0.1860
       8    H3      19.605744   17.458839   21.773560 H          1 MOL1         0.0752
       9    H4      19.277245   19.178914   21.999010 H          1 MOL1         0.0752
      10    C4      19.870590   18.141963   23.824718 C.3        1 MOL1        -0.1858
      11    H5      19.675097   17.170237   24.298167 H          1 MOL1         0.0752
      12    H6      19.443527   18.898833   24.495665 H          1 MOL1         0.0752
      13    C5      21.404421   18.334298   23.721254 C.3        1 MOL1        -0.1858
      14    H7      21.843287   18.228367   24.722031 H          1 MOL1         0.0752
      15    H8      21.824723   17.513418   23.124619 H          1 MOL1         0.0752
      16    C6      21.863256   19.681108   23.102065 C.3        1 MOL1        -0.1858
      17    H9      21.564309   19.716258   22.046290 H          1 MOL1         0.0752
      18    H10     22.961305   19.708890   23.099933 H          1 MOL1         0.0752
      19    C7      21.334091   20.949374   23.815941 C.3        1 MOL1        -0.1834
      20    H11     21.701402   21.833537   23.277199 H          1 MOL1         0.0752
      21    H12     20.238502   20.988953   23.753075 H          1 MOL1         0.0752
      22    C8      21.775736   21.047732   25.292191 C.3        1 MOL1        -0.2849
      23    H13     22.868607   20.993611   25.379594 H          1 MOL1         0.0764
      24    H14     21.447613   21.999733   25.728948 H          1 MOL1         0.0764
      25    H15     21.341467   20.238604   25.892748 H          1 MOL1         0.0764
@<TRIPOS>BOND
    1     1     2    1
    2     1     3    2
    3     1     4    1
    4     4     5    1
    5     4     6    1
    6     4     7    1
    7     7     8    1
    8     7     9    1
    9     7    10    1
   10    10    11    1
   11    10    12    1
   12    10    13    1
   13    13    14    1
   14    13    15    1
   15    13    16    1
   16    16    17    1
   17    16    18    1
   18    16    19    1
   19    19    20    1
   20    19    21    1
   21    19    22    1
   22    22    23    1
   23    22    24    1
   24    22    25    1
@<TRIPOS>SUBSTRUCTURE
       1 MOL1            1 RESIDUE      1      MOL     
@<SCITEGIC>MOL_PROPERTY
VConf Rank
SciTegic.value.IntegerValue
79

@<SCITEGIC>MOL_PROPERTY
Conf_Id
SciTegic.value.IntegerValue
29

@<SCITEGIC>MOL_PROPERTY
Delta U+W
SciTegic.value.DoubleValue
0.850

@<SCITEGIC>MOL_PROPERTY
U+W
SciTegic.value.DoubleValue
-50.780

@<SCITEGIC>MOL_PROPERTY
Grad RMS
SciTegic.value.DoubleValue
0.000000

@<SCITEGIC>MOL_PROPERTY
U
SciTegic.value.DoubleValue
8.646

@<SCITEGIC>MOL_PROPERTY
W
SciTegic.value.DoubleValue
-59.426

@<SCITEGIC>MOL_PROPERTY
W(PB)
SciTegic.value.DoubleValue
-61.868

@<SCITEGIC>MOL_PROPERTY
W(SA)
SciTegic.value.DoubleValue
2.442

@<SCITEGIC>MOL_PROPERTY
Valence
SciTegic.value.DoubleValue
8.924

@<SCITEGIC>MOL_PROPERTY
Coulomb
SciTegic.value.DoubleValue
-1.171

@<SCITEGIC>MOL_PROPERTY
VdW
SciTegic.value.DoubleValue
0.894

@<SCITEGIC>MOL_PROPERTY
VdW6
SciTegic.value.DoubleValue
-10.223

@<SCITEGIC>MOL_PROPERTY
VdW12
SciTegic.value.DoubleValue
11.117

@<SCITEGIC>MOL_PROPERTY
Bond
SciTegic.value.DoubleValue
0.231

@<SCITEGIC>MOL_PROPERTY
Angle
SciTegic.value.DoubleValue
3.232

@<SCITEGIC>MOL_PROPERTY
Pdih
SciTegic.value.DoubleValue
5.461

@<SCITEGIC>MOL_PROPERTY
Idih
SciTegic.value.DoubleValue
0.001

@<SCITEGIC>MOL_PROPERTY
Tether
SciTegic.value.DoubleValue
0.000

@<TRIPOS>MOLECULE
guest-8_confgen4.mol2 : confsearch ligand conformer 80
          25          24           1
SMALL
USER_CHARGES
 
@<TRIPOS>ATOM
       1    C1      18.700131   17.583805   19.948735 C.2        1 MOL1         0.6168
       2    O1      19.127121   16.448719   20.025839 O.co2      1 MOL1        -0.6703
       3    O2      18.565192   18.182586   18.899930 O.co2      1 MOL1        -0.6703
       4    C2      18.331005   18.303482   21.241013 C.3        1 MOL1        -0.1963
       5    H1      17.967968   17.555356   21.955916 H          1 MOL1         0.0750
       6    H2      17.495286   18.980450   21.027076 H          1 MOL1         0.0750
       7    C3      19.516491   19.092089   21.849847 C.3        1 MOL1        -0.1860
       8    H3      20.346387   18.397642   22.036401 H          1 MOL1         0.0752
       9    H4      19.874633   19.831272   21.120131 H          1 MOL1         0.0752
      10    C4      19.117215   19.805614   23.162133 C.3        1 MOL1        -0.1858
      11    H5      18.797043   19.064107   23.905815 H          1 MOL1         0.0752
      12    H6      18.242741   20.442287   22.970915 H          1 MOL1         0.0752
      13    C5      20.244911   20.689888   23.750945 C.3        1 MOL1        -0.1858
      14    H7      20.484969   21.483655   23.030683 H          1 MOL1         0.0752
      15    H8      19.863083   21.204168   24.642632 H          1 MOL1         0.0752
      16    C6      21.553657   19.939832   24.114845 C.3        1 MOL1        -0.1858
      17    H9      22.264801   20.662391   24.537543 H          1 MOL1         0.0752
      18    H10     22.024218   19.563809   23.196998 H          1 MOL1         0.0752
      19    C7      21.385717   18.765364   25.110111 C.3        1 MOL1        -0.1834
      20    H11     20.747796   17.986642   24.671379 H          1 MOL1         0.0752
      21    H12     22.367438   18.299108   25.270527 H          1 MOL1         0.0752
      22    C8      20.812831   19.200483   26.476313 C.3        1 MOL1        -0.2849
      23    H13     19.786656   19.575972   26.376716 H          1 MOL1         0.0764
      24    H14     20.790915   18.351678   27.171856 H          1 MOL1         0.0764
      25    H15     21.427216   19.991252   26.925924 H          1 MOL1         0.0764
@<TRIPOS>BOND
    1     1     2    1
    2     1     3    2
    3     1     4    1
    4     4     5    1
    5     4     6    1
    6     4     7    1
    7     7     8    1
    8     7     9    1
    9     7    10    1
   10    10    11    1
   11    10    12    1
   12    10    13    1
   13    13    14    1
   14    13    15    1
   15    13    16    1
   16    16    17    1
   17    16    18    1
   18    16    19    1
   19    19    20    1
   20    19    21    1
   21    19    22    1
   22    22    23    1
   23    22    24    1
   24    22    25    1
@<TRIPOS>SUBSTRUCTURE
       1 MOL1            1 RESIDUE      1      MOL     
@<SCITEGIC>MOL_PROPERTY
VConf Rank
SciTegic.value.IntegerValue
80

@<SCITEGIC>MOL_PROPERTY
Conf_Id
SciTegic.value.IntegerValue
30

@<SCITEGIC>MOL_PROPERTY
Delta U+W
SciTegic.value.DoubleValue
0.843

@<SCITEGIC>MOL_PROPERTY
U+W
SciTegic.value.DoubleValue
-50.787

@<SCITEGIC>MOL_PROPERTY
Grad RMS
SciTegic.value.DoubleValue
0.000000

@<SCITEGIC>MOL_PROPERTY
U
SciTegic.value.DoubleValue
8.647

@<SCITEGIC>MOL_PROPERTY
W
SciTegic.value.DoubleValue
-59.434

@<SCITEGIC>MOL_PROPERTY
W(PB)
SciTegic.value.DoubleValue
-61.861

@<SCITEGIC>MOL_PROPERTY
W(SA)
SciTegic.value.DoubleValue
2.428

@<SCITEGIC>MOL_PROPERTY
Valence
SciTegic.value.DoubleValue
8.924

@<SCITEGIC>MOL_PROPERTY
Coulomb
SciTegic.value.DoubleValue
-1.170

@<SCITEGIC>MOL_PROPERTY
VdW
SciTegic.value.DoubleValue
0.894

@<SCITEGIC>MOL_PROPERTY
VdW6
SciTegic.value.DoubleValue
-10.224

@<SCITEGIC>MOL_PROPERTY
VdW12
SciTegic.value.DoubleValue
11.118

@<SCITEGIC>MOL_PROPERTY
Bond
SciTegic.value.DoubleValue
0.231

@<SCITEGIC>MOL_PROPERTY
Angle
SciTegic.value.DoubleValue
3.232

@<SCITEGIC>MOL_PROPERTY
Pdih
SciTegic.value.DoubleValue
5.460

@<SCITEGIC>MOL_PROPERTY
Idih
SciTegic.value.DoubleValue
0.000

@<SCITEGIC>MOL_PROPERTY
Tether
SciTegic.value.DoubleValue
0.000

@<TRIPOS>MOLECULE
guest-8_confgen4.mol2 : confsearch ligand conformer 81
          25          24           1
SMALL
USER_CHARGES
 
@<TRIPOS>ATOM
       1    C1      21.133706   15.702356   20.138767 C.2        1 MOL1         0.6168
       2    O1      22.296140   16.043530   20.034122 O.co2      1 MOL1        -0.6703
       3    O2      20.667528   14.745290   19.553258 O.co2      1 MOL1        -0.6703
       4    C2      20.188680   16.495760   21.042555 C.3        1 MOL1        -0.1963
       5    H1      19.778135   15.796449   21.780339 H          1 MOL1         0.0750
       6    H2      19.351398   16.835695   20.421823 H          1 MOL1         0.0750
       7    C3      20.829538   17.708294   21.768834 C.3        1 MOL1        -0.1860
       8    H3      21.671556   17.361416   22.383802 H          1 MOL1         0.0752
       9    H4      21.244386   18.401639   21.024066 H          1 MOL1         0.0752
      10    C4      19.808193   18.450822   22.657740 C.3        1 MOL1        -0.1858
      11    H5      19.394784   17.755741   23.401441 H          1 MOL1         0.0752
      12    H6      18.967359   18.796631   22.040851 H          1 MOL1         0.0752
      13    C5      20.447806   19.656566   23.379240 C.3        1 MOL1        -0.1858
      14    H7      21.288660   19.311050   23.996238 H          1 MOL1         0.0752
      15    H8      20.861267   20.351852   22.635781 H          1 MOL1         0.0752
      16    C6      19.427131   20.399439   24.268216 C.3        1 MOL1        -0.1858
      17    H9      19.013577   19.704342   25.011793 H          1 MOL1         0.0752
      18    H10     18.586229   20.745139   23.651395 H          1 MOL1         0.0752
      19    C7      20.066361   21.604645   24.989481 C.3        1 MOL1        -0.1834
      20    H11     20.906889   21.262403   25.609054 H          1 MOL1         0.0752
      21    H12     20.479540   22.303197   24.248673 H          1 MOL1         0.0752
      22    C8      19.044013   22.343756   25.876118 C.3        1 MOL1        -0.2849
      23    H13     18.637507   21.676124   26.647103 H          1 MOL1         0.0764
      24    H14     19.515216   23.197087   26.380974 H          1 MOL1         0.0764
      25    H15     18.206953   22.724769   25.276487 H          1 MOL1         0.0764
@<TRIPOS>BOND
    1     1     2    1
    2     1     3    2
    3     1     4    1
    4     4     5    1
    5     4     6    1
    6     4     7    1
    7     7     8    1
    8     7     9    1
    9     7    10    1
   10    10    11    1
   11    10    12    1
   12    10    13    1
   13    13    14    1
   14    13    15    1
   15    13    16    1
   16    16    17    1
   17    16    18    1
   18    16    19    1
   19    19    20    1
   20    19    21    1
   21    19    22    1
   22    22    23    1
   23    22    24    1
   24    22    25    1
@<TRIPOS>SUBSTRUCTURE
       1 MOL1            1 RESIDUE      1      MOL     
@<SCITEGIC>MOL_PROPERTY
VConf Rank
SciTegic.value.IntegerValue
81

@<SCITEGIC>MOL_PROPERTY
Conf_Id
SciTegic.value.IntegerValue
0

@<SCITEGIC>MOL_PROPERTY
Delta U+W
SciTegic.value.DoubleValue
0.000

@<SCITEGIC>MOL_PROPERTY
U+W
SciTegic.value.DoubleValue
-51.629

@<SCITEGIC>MOL_PROPERTY
Grad RMS
SciTegic.value.DoubleValue
0.000000

@<SCITEGIC>MOL_PROPERTY
U
SciTegic.value.DoubleValue
6.586

@<SCITEGIC>MOL_PROPERTY
W
SciTegic.value.DoubleValue
-58.216

@<SCITEGIC>MOL_PROPERTY
W(PB)
SciTegic.value.DoubleValue
-60.757

@<SCITEGIC>MOL_PROPERTY
W(SA)
SciTegic.value.DoubleValue
2.541

@<SCITEGIC>MOL_PROPERTY
Valence
SciTegic.value.DoubleValue
8.027

@<SCITEGIC>MOL_PROPERTY
Coulomb
SciTegic.value.DoubleValue
-2.892

@<SCITEGIC>MOL_PROPERTY
VdW
SciTegic.value.DoubleValue
1.451

@<SCITEGIC>MOL_PROPERTY
VdW6
SciTegic.value.DoubleValue
-7.931

@<SCITEGIC>MOL_PROPERTY
VdW12
SciTegic.value.DoubleValue
9.383

@<SCITEGIC>MOL_PROPERTY
Bond
SciTegic.value.DoubleValue
0.149

@<SCITEGIC>MOL_PROPERTY
Angle
SciTegic.value.DoubleValue
2.726

@<SCITEGIC>MOL_PROPERTY
Pdih
SciTegic.value.DoubleValue
5.152

@<SCITEGIC>MOL_PROPERTY
Idih
SciTegic.value.DoubleValue
0.000

@<SCITEGIC>MOL_PROPERTY
Tether
SciTegic.value.DoubleValue
0.000

@<TRIPOS>MOLECULE
guest-8_confgen4.mol2 : confsearch ligand conformer 82
          25          24           1
SMALL
USER_CHARGES
 
@<TRIPOS>ATOM
       1    C1      20.742944   21.300936   27.240346 C.2        1 MOL1         0.6168
       2    O1      19.857680   22.077861   27.539201 O.co2      1 MOL1        -0.6703
       3    O2      21.378701   20.659336   28.053232 O.co2      1 MOL1        -0.6703
       4    C2      21.057928   21.102963   25.761944 C.3        1 MOL1        -0.1963
       5    H1      22.128206   20.883157   25.668169 H          1 MOL1         0.0750
       6    H2      20.875301   22.052526   25.244659 H          1 MOL1         0.0750
       7    C3      20.221029   19.971983   25.115022 C.3        1 MOL1        -0.1860
       8    H3      20.405145   19.031384   25.652580 H          1 MOL1         0.0752
       9    H4      19.152265   20.200663   25.229227 H          1 MOL1         0.0752
      10    C4      20.557838   19.791245   23.619055 C.3        1 MOL1        -0.1858
      11    H5      21.627045   19.563868   23.508253 H          1 MOL1         0.0752
      12    H6      20.374030   20.733579   23.084825 H          1 MOL1         0.0752
      13    C5      19.721898   18.663316   22.976835 C.3        1 MOL1        -0.1858
      14    H7      19.905596   17.720877   23.510848 H          1 MOL1         0.0752
      15    H8      18.652674   18.890503   23.087512 H          1 MOL1         0.0752
      16    C6      20.058125   18.482039   21.480850 C.3        1 MOL1        -0.1858
      17    H9      21.127285   18.254732   21.369837 H          1 MOL1         0.0752
      18    H10     19.874513   19.424327   20.946550 H          1 MOL1         0.0752
      19    C7      19.222585   17.354693   20.838725 C.3        1 MOL1        -0.1834
      20    H11     19.405115   16.409981   21.369470 H          1 MOL1         0.0752
      21    H12     18.152363   17.579576   20.946157 H          1 MOL1         0.0752
      22    C8      19.561252   17.176802   19.344984 C.3        1 MOL1        -0.2849
      23    H13     18.958473   16.371838   18.904781 H          1 MOL1         0.0764
      24    H14     19.357926   18.098192   18.783650 H          1 MOL1         0.0764
      25    H15     20.620104   16.919795   19.210157 H          1 MOL1         0.0764
@<TRIPOS>BOND
    1     1     2    1
    2     1     3    2
    3     1     4    1
    4     4     5    1
    5     4     6    1
    6     4     7    1
    7     7     8    1
    8     7     9    1
    9     7    10    1
   10    10    11    1
   11    10    12    1
   12    10    13    1
   13    13    14    1
   14    13    15    1
   15    13    16    1
   16    16    17    1
   17    16    18    1
   18    16    19    1
   19    19    20    1
   20    19    21    1
   21    19    22    1
   22    22    23    1
   23    22    24    1
   24    22    25    1
@<TRIPOS>SUBSTRUCTURE
       1 MOL1            1 RESIDUE      1      MOL     
@<SCITEGIC>MOL_PROPERTY
VConf Rank
SciTegic.value.IntegerValue
82

@<SCITEGIC>MOL_PROPERTY
Conf_Id
SciTegic.value.IntegerValue
27

@<SCITEGIC>MOL_PROPERTY
Delta U+W
SciTegic.value.DoubleValue
-1.297

@<SCITEGIC>MOL_PROPERTY
U+W
SciTegic.value.DoubleValue
-52.926

@<SCITEGIC>MOL_PROPERTY
Grad RMS
SciTegic.value.DoubleValue
0.000000

@<SCITEGIC>MOL_PROPERTY
U
SciTegic.value.DoubleValue
5.617

@<SCITEGIC>MOL_PROPERTY
W
SciTegic.value.DoubleValue
-58.543

@<SCITEGIC>MOL_PROPERTY
W(PB)
SciTegic.value.DoubleValue
-61.065

@<SCITEGIC>MOL_PROPERTY
W(SA)
SciTegic.value.DoubleValue
2.522

@<SCITEGIC>MOL_PROPERTY
Valence
SciTegic.value.DoubleValue
7.531

@<SCITEGIC>MOL_PROPERTY
Coulomb
SciTegic.value.DoubleValue
-2.818

@<SCITEGIC>MOL_PROPERTY
VdW
SciTegic.value.DoubleValue
0.904

@<SCITEGIC>MOL_PROPERTY
VdW6
SciTegic.value.DoubleValue
-7.640

@<SCITEGIC>MOL_PROPERTY
VdW12
SciTegic.value.DoubleValue
8.544

@<SCITEGIC>MOL_PROPERTY
Bond
SciTegic.value.DoubleValue
0.115

@<SCITEGIC>MOL_PROPERTY
Angle
SciTegic.value.DoubleValue
2.271

@<SCITEGIC>MOL_PROPERTY
Pdih
SciTegic.value.DoubleValue
5.144

@<SCITEGIC>MOL_PROPERTY
Idih
SciTegic.value.DoubleValue
0.001

@<SCITEGIC>MOL_PROPERTY
Tether
SciTegic.value.DoubleValue
0.000

@<TRIPOS>MOLECULE
guest-8_confgen4.mol2 : confsearch ligand conformer 83
          25          24           1
SMALL
USER_CHARGES
 
@<TRIPOS>ATOM
       1    C1      17.892471   19.308027   20.064046 C.2        1 MOL1         0.6168
       2    O1      16.881579   19.962324   20.228565 O.co2      1 MOL1        -0.6703
       3    O2      18.795258   19.639954   19.321237 O.co2      1 MOL1        -0.6703
       4    C2      18.025839   17.989076   20.820051 C.3        1 MOL1        -0.1963
       5    H1      18.787021   17.375871   20.322630 H          1 MOL1         0.0750
       6    H2      17.073196   17.455820   20.719580 H          1 MOL1         0.0750
       7    C3      18.370359   18.155979   22.322847 C.3        1 MOL1        -0.1860
       8    H3      17.614556   18.794779   22.800726 H          1 MOL1         0.0752
       9    H4      18.310824   17.174899   22.813242 H          1 MOL1         0.0752
      10    C4      19.777818   18.753082   22.547112 C.3        1 MOL1        -0.1858
      11    H5      19.839735   19.742947   22.074082 H          1 MOL1         0.0752
      12    H6      20.528261   18.118373   22.056190 H          1 MOL1         0.0752
      13    C5      20.112177   18.880588   24.048970 C.3        1 MOL1        -0.1858
      14    H7      19.361241   19.515452   24.539001 H          1 MOL1         0.0752
      15    H8      20.053844   17.891413   24.523489 H          1 MOL1         0.0752
      16    C6      21.518046   19.477943   24.273822 C.3        1 MOL1        -0.1858
      17    H9      21.576558   20.467138   23.799273 H          1 MOL1         0.0752
      18    H10     22.269113   18.843416   23.783560 H          1 MOL1         0.0752
      19    C7      21.852507   19.606074   25.774851 C.3        1 MOL1        -0.1834
      20    H11     21.104162   20.241756   26.268176 H          1 MOL1         0.0752
      21    H12     21.796817   18.618015   26.252467 H          1 MOL1         0.0752
      22    C8      23.257033   20.203098   25.995019 C.3        1 MOL1        -0.2849
      23    H13     23.331116   21.205884   25.554191 H          1 MOL1         0.0764
      24    H14     23.478108   20.287017   27.067010 H          1 MOL1         0.0764
      25    H15     24.029007   19.569948   25.538322 H          1 MOL1         0.0764
@<TRIPOS>BOND
    1     1     2    1
    2     1     3    2
    3     1     4    1
    4     4     5    1
    5     4     6    1
    6     4     7    1
    7     7     8    1
    8     7     9    1
    9     7    10    1
   10    10    11    1
   11    10    12    1
   12    10    13    1
   13    13    14    1
   14    13    15    1
   15    13    16    1
   16    16    17    1
   17    16    18    1
   18    16    19    1
   19    19    20    1
   20    19    21    1
   21    19    22    1
   22    22    23    1
   23    22    24    1
   24    22    25    1
@<TRIPOS>SUBSTRUCTURE
       1 MOL1            1 RESIDUE      1      MOL     
@<SCITEGIC>MOL_PROPERTY
VConf Rank
SciTegic.value.IntegerValue
83

@<SCITEGIC>MOL_PROPERTY
Conf_Id
SciTegic.value.IntegerValue
37

@<SCITEGIC>MOL_PROPERTY
Delta U+W
SciTegic.value.DoubleValue
-0.230

@<SCITEGIC>MOL_PROPERTY
U+W
SciTegic.value.DoubleValue
-51.860

@<SCITEGIC>MOL_PROPERTY
Grad RMS
SciTegic.value.DoubleValue
0.000000

@<SCITEGIC>MOL_PROPERTY
U
SciTegic.value.DoubleValue
7.816

@<SCITEGIC>MOL_PROPERTY
W
SciTegic.value.DoubleValue
-59.675

@<SCITEGIC>MOL_PROPERTY
W(PB)
SciTegic.value.DoubleValue
-62.180

@<SCITEGIC>MOL_PROPERTY
W(SA)
SciTegic.value.DoubleValue
2.505

@<SCITEGIC>MOL_PROPERTY
Valence
SciTegic.value.DoubleValue
7.785

@<SCITEGIC>MOL_PROPERTY
Coulomb
SciTegic.value.DoubleValue
-0.713

@<SCITEGIC>MOL_PROPERTY
VdW
SciTegic.value.DoubleValue
0.744

@<SCITEGIC>MOL_PROPERTY
VdW6
SciTegic.value.DoubleValue
-8.514

@<SCITEGIC>MOL_PROPERTY
VdW12
SciTegic.value.DoubleValue
9.259

@<SCITEGIC>MOL_PROPERTY
Bond
SciTegic.value.DoubleValue
0.136

@<SCITEGIC>MOL_PROPERTY
Angle
SciTegic.value.DoubleValue
2.433

@<SCITEGIC>MOL_PROPERTY
Pdih
SciTegic.value.DoubleValue
5.216

@<SCITEGIC>MOL_PROPERTY
Idih
SciTegic.value.DoubleValue
0.000

@<SCITEGIC>MOL_PROPERTY
Tether
SciTegic.value.DoubleValue
0.000

@<TRIPOS>MOLECULE
guest-8_confgen4.mol2 : confsearch ligand conformer 84
          25          24           1
SMALL
USER_CHARGES
 
@<TRIPOS>ATOM
       1    C1      17.809528   17.027971   25.813972 C.2        1 MOL1         0.6168
       2    O1      16.793145   17.563951   26.209909 O.co2      1 MOL1        -0.6703
       3    O2      18.745961   16.745412   26.535231 O.co2      1 MOL1        -0.6703
       4    C2      17.906310   16.676631   24.332027 C.3        1 MOL1        -0.1963
       5    H1      16.958594   16.206718   24.043933 H          1 MOL1         0.0750
       6    H2      18.688737   15.919135   24.202208 H          1 MOL1         0.0750
       7    C3      18.181648   17.894419   23.412175 C.3        1 MOL1        -0.1860
       8    H3      18.098268   17.575650   22.364329 H          1 MOL1         0.0752
       9    H4      17.405582   18.655497   23.573906 H          1 MOL1         0.0752
      10    C4      19.578156   18.512801   23.646986 C.3        1 MOL1        -0.1858
      11    H5      20.349474   17.744910   23.497199 H          1 MOL1         0.0752
      12    H6      19.663197   18.850171   24.689277 H          1 MOL1         0.0752
      13    C5      19.843244   19.702670   22.699584 C.3        1 MOL1        -0.1858
      14    H7      19.761616   19.367006   21.656654 H          1 MOL1         0.0752
      15    H8      19.071528   20.470044   22.850187 H          1 MOL1         0.0752
      16    C6      21.238192   20.321516   22.934117 C.3        1 MOL1        -0.1858
      17    H9      22.010051   19.554227   22.783848 H          1 MOL1         0.0752
      18    H10     21.320032   20.657128   23.977090 H          1 MOL1         0.0752
      19    C7      21.503376   21.511272   21.987796 C.3        1 MOL1        -0.1834
      20    H11     21.424113   21.178790   20.943454 H          1 MOL1         0.0752
      21    H12     20.734155   22.281714   22.136797 H          1 MOL1         0.0752
      22    C8      22.897259   22.126346   22.225238 C.3        1 MOL1        -0.2849
      23    H13     23.688396   21.385041   22.052136 H          1 MOL1         0.0764
      24    H14     23.068842   22.970296   21.544511 H          1 MOL1         0.0764
      25    H15     22.993253   22.496201   23.254504 H          1 MOL1         0.0764
@<TRIPOS>BOND
    1     1     2    1
    2     1     3    2
    3     1     4    1
    4     4     5    1
    5     4     6    1
    6     4     7    1
    7     7     8    1
    8     7     9    1
    9     7    10    1
   10    10    11    1
   11    10    12    1
   12    10    13    1
   13    13    14    1
   14    13    15    1
   15    13    16    1
   16    16    17    1
   17    16    18    1
   18    16    19    1
   19    19    20    1
   20    19    21    1
   21    19    22    1
   22    22    23    1
   23    22    24    1
   24    22    25    1
@<TRIPOS>SUBSTRUCTURE
       1 MOL1            1 RESIDUE      1      MOL     
@<SCITEGIC>MOL_PROPERTY
VConf Rank
SciTegic.value.IntegerValue
84

@<SCITEGIC>MOL_PROPERTY
Conf_Id
SciTegic.value.IntegerValue
54

@<SCITEGIC>MOL_PROPERTY
Delta U+W
SciTegic.value.DoubleValue
-0.224

@<SCITEGIC>MOL_PROPERTY
U+W
SciTegic.value.DoubleValue
-51.854

@<SCITEGIC>MOL_PROPERTY
Grad RMS
SciTegic.value.DoubleValue
0.000000

@<SCITEGIC>MOL_PROPERTY
U
SciTegic.value.DoubleValue
7.816

@<SCITEGIC>MOL_PROPERTY
W
SciTegic.value.DoubleValue
-59.670

@<SCITEGIC>MOL_PROPERTY
W(PB)
SciTegic.value.DoubleValue
-62.157

@<SCITEGIC>MOL_PROPERTY
W(SA)
SciTegic.value.DoubleValue
2.487

@<SCITEGIC>MOL_PROPERTY
Valence
SciTegic.value.DoubleValue
7.785

@<SCITEGIC>MOL_PROPERTY
Coulomb
SciTegic.value.DoubleValue
-0.713

@<SCITEGIC>MOL_PROPERTY
VdW
SciTegic.value.DoubleValue
0.744

@<SCITEGIC>MOL_PROPERTY
VdW6
SciTegic.value.DoubleValue
-8.515

@<SCITEGIC>MOL_PROPERTY
VdW12
SciTegic.value.DoubleValue
9.259

@<SCITEGIC>MOL_PROPERTY
Bond
SciTegic.value.DoubleValue
0.136

@<SCITEGIC>MOL_PROPERTY
Angle
SciTegic.value.DoubleValue
2.433

@<SCITEGIC>MOL_PROPERTY
Pdih
SciTegic.value.DoubleValue
5.215

@<SCITEGIC>MOL_PROPERTY
Idih
SciTegic.value.DoubleValue
0.000

@<SCITEGIC>MOL_PROPERTY
Tether
SciTegic.value.DoubleValue
0.000

@<TRIPOS>MOLECULE
guest-8_confgen4.mol2 : confsearch ligand conformer 85
          25          24           1
SMALL
USER_CHARGES
 
@<TRIPOS>ATOM
       1    C1      18.156978   21.699134   20.886782 C.2        1 MOL1         0.6168
       2    O1      18.690280   22.774986   21.074350 O.co2      1 MOL1        -0.6703
       3    O2      17.964598   21.227076   19.783487 O.co2      1 MOL1        -0.6703
       4    C2      17.685491   20.904035   22.101155 C.3        1 MOL1        -0.1963
       5    H1      16.668673   20.553983   21.887812 H          1 MOL1         0.0750
       6    H2      17.613817   21.583691   22.958919 H          1 MOL1         0.0750
       7    C3      18.587089   19.691820   22.452325 C.3        1 MOL1        -0.1860
       8    H3      18.085953   19.100910   23.229173 H          1 MOL1         0.0752
       9    H4      18.682587   19.042323   21.571171 H          1 MOL1         0.0752
      10    C4      19.991206   20.118976   22.944202 C.3        1 MOL1        -0.1858
      11    H5      19.896691   20.730610   23.851807 H          1 MOL1         0.0752
      12    H6      20.456914   20.762733   22.185472 H          1 MOL1         0.0752
      13    C5      20.940952   18.928121   23.217702 C.3        1 MOL1        -0.1858
      14    H7      21.020242   18.306380   22.315632 H          1 MOL1         0.0752
      15    H8      21.943737   19.331996   23.406060 H          1 MOL1         0.0752
      16    C6      20.506321   18.053502   24.419770 C.3        1 MOL1        -0.1858
      17    H9      19.506773   17.642409   24.230614 H          1 MOL1         0.0752
      18    H10     20.422290   18.676723   25.320408 H          1 MOL1         0.0752
      19    C7      21.463922   16.870841   24.696900 C.3        1 MOL1        -0.1834
      20    H11     21.014627   16.228161   25.466537 H          1 MOL1         0.0752
      21    H12     21.560367   16.251907   23.794171 H          1 MOL1         0.0752
      22    C8      22.863557   17.312778   25.177161 C.3        1 MOL1        -0.2849
      23    H13     23.404275   17.856941   24.392996 H          1 MOL1         0.0764
      24    H14     22.789523   17.961957   26.059315 H          1 MOL1         0.0764
      25    H15     23.468505   16.438742   25.451029 H          1 MOL1         0.0764
@<TRIPOS>BOND
    1     1     2    1
    2     1     3    2
    3     1     4    1
    4     4     5    1
    5     4     6    1
    6     4     7    1
    7     7     8    1
    8     7     9    1
    9     7    10    1
   10    10    11    1
   11    10    12    1
   12    10    13    1
   13    13    14    1
   14    13    15    1
   15    13    16    1
   16    16    17    1
   17    16    18    1
   18    16    19    1
   19    19    20    1
   20    19    21    1
   21    19    22    1
   22    22    23    1
   23    22    24    1
   24    22    25    1
@<TRIPOS>SUBSTRUCTURE
       1 MOL1            1 RESIDUE      1      MOL     
@<SCITEGIC>MOL_PROPERTY
VConf Rank
SciTegic.value.IntegerValue
85

@<SCITEGIC>MOL_PROPERTY
Conf_Id
SciTegic.value.IntegerValue
101

@<SCITEGIC>MOL_PROPERTY
Delta U+W
SciTegic.value.DoubleValue
1.534

@<SCITEGIC>MOL_PROPERTY
U+W
SciTegic.value.DoubleValue
-50.095

@<SCITEGIC>MOL_PROPERTY
Grad RMS
SciTegic.value.DoubleValue
0.000000

@<SCITEGIC>MOL_PROPERTY
U
SciTegic.value.DoubleValue
9.416

@<SCITEGIC>MOL_PROPERTY
W
SciTegic.value.DoubleValue
-59.512

@<SCITEGIC>MOL_PROPERTY
W(PB)
SciTegic.value.DoubleValue
-61.988

@<SCITEGIC>MOL_PROPERTY
W(SA)
SciTegic.value.DoubleValue
2.476

@<SCITEGIC>MOL_PROPERTY
Valence
SciTegic.value.DoubleValue
8.939

@<SCITEGIC>MOL_PROPERTY
Coulomb
SciTegic.value.DoubleValue
-0.615

@<SCITEGIC>MOL_PROPERTY
VdW
SciTegic.value.DoubleValue
1.092

@<SCITEGIC>MOL_PROPERTY
VdW6
SciTegic.value.DoubleValue
-9.710

@<SCITEGIC>MOL_PROPERTY
VdW12
SciTegic.value.DoubleValue
10.802

@<SCITEGIC>MOL_PROPERTY
Bond
SciTegic.value.DoubleValue
0.216

@<SCITEGIC>MOL_PROPERTY
Angle
SciTegic.value.DoubleValue
2.979

@<SCITEGIC>MOL_PROPERTY
Pdih
SciTegic.value.DoubleValue
5.743

@<SCITEGIC>MOL_PROPERTY
Idih
SciTegic.value.DoubleValue
0.000

@<SCITEGIC>MOL_PROPERTY
Tether
SciTegic.value.DoubleValue
0.000

@<TRIPOS>MOLECULE
guest-8_confgen4.mol2 : confsearch ligand conformer 86
          25          24           1
SMALL
USER_CHARGES
 
@<TRIPOS>ATOM
       1    C1      23.743123   17.678604   21.882080 C.2        1 MOL1         0.6168
       2    O1      24.624518   18.185402   22.547689 O.co2      1 MOL1        -0.6703
       3    O2      23.882476   16.647892   21.253598 O.co2      1 MOL1        -0.6703
       4    C2      22.380391   18.361403   21.851851 C.3        1 MOL1        -0.1963
       5    H1      21.924827   18.167701   20.873445 H          1 MOL1         0.0750
       6    H2      22.548317   19.441599   21.924920 H          1 MOL1         0.0750
       7    C3      21.440849   17.874129   22.985597 C.3        1 MOL1        -0.1860
       8    H3      21.375060   16.778215   22.940076 H          1 MOL1         0.0752
       9    H4      21.884438   18.117427   23.960960 H          1 MOL1         0.0752
      10    C4      20.010450   18.458554   22.901248 C.3        1 MOL1        -0.1858
      11    H5      19.391884   17.948800   23.650926 H          1 MOL1         0.0752
      12    H6      19.572720   18.222514   21.921838 H          1 MOL1         0.0752
      13    C5      19.954471   19.986733   23.145043 C.3        1 MOL1        -0.1858
      14    H7      20.391200   20.222589   24.124153 H          1 MOL1         0.0752
      15    H8      20.578965   20.498230   22.402011 H          1 MOL1         0.0752
      16    C6      18.524531   20.576727   23.047387 C.3        1 MOL1        -0.1858
      17    H9      18.138525   20.406770   22.033093 H          1 MOL1         0.0752
      18    H10     18.586308   21.666754   23.168606 H          1 MOL1         0.0752
      19    C7      17.502242   20.020257   24.069505 C.3        1 MOL1        -0.1834
      20    H11     16.534139   20.510008   23.896405 H          1 MOL1         0.0752
      21    H12     17.334259   18.949523   23.894421 H          1 MOL1         0.0752
      22    C8      17.918180   20.249186   25.538698 C.3        1 MOL1        -0.2849
      23    H13     18.114985   21.311966   25.730388 H          1 MOL1         0.0764
      24    H14     17.120505   19.924210   26.219045 H          1 MOL1         0.0764
      25    H15     18.821941   19.679931   25.790180 H          1 MOL1         0.0764
@<TRIPOS>BOND
    1     1     2    1
    2     1     3    2
    3     1     4    1
    4     4     5    1
    5     4     6    1
    6     4     7    1
    7     7     8    1
    8     7     9    1
    9     7    10    1
   10    10    11    1
   11    10    12    1
   12    10    13    1
   13    13    14    1
   14    13    15    1
   15    13    16    1
   16    16    17    1
   17    16    18    1
   18    16    19    1
   19    19    20    1
   20    19    21    1
   21    19    22    1
   22    22    23    1
   23    22    24    1
   24    22    25    1
@<TRIPOS>SUBSTRUCTURE
       1 MOL1            1 RESIDUE      1      MOL     
@<SCITEGIC>MOL_PROPERTY
VConf Rank
SciTegic.value.IntegerValue
86

@<SCITEGIC>MOL_PROPERTY
Conf_Id
SciTegic.value.IntegerValue
75

@<SCITEGIC>MOL_PROPERTY
Delta U+W
SciTegic.value.DoubleValue
1.014

@<SCITEGIC>MOL_PROPERTY
U+W
SciTegic.value.DoubleValue
-50.615

@<SCITEGIC>MOL_PROPERTY
Grad RMS
SciTegic.value.DoubleValue
0.000000

@<SCITEGIC>MOL_PROPERTY
U
SciTegic.value.DoubleValue
8.474

@<SCITEGIC>MOL_PROPERTY
W
SciTegic.value.DoubleValue
-59.089

@<SCITEGIC>MOL_PROPERTY
W(PB)
SciTegic.value.DoubleValue
-61.530

@<SCITEGIC>MOL_PROPERTY
W(SA)
SciTegic.value.DoubleValue
2.441

@<SCITEGIC>MOL_PROPERTY
Valence
SciTegic.value.DoubleValue
9.080

@<SCITEGIC>MOL_PROPERTY
Coulomb
SciTegic.value.DoubleValue
-1.772

@<SCITEGIC>MOL_PROPERTY
VdW
SciTegic.value.DoubleValue
1.165

@<SCITEGIC>MOL_PROPERTY
VdW6
SciTegic.value.DoubleValue
-9.830

@<SCITEGIC>MOL_PROPERTY
VdW12
SciTegic.value.DoubleValue
10.996

@<SCITEGIC>MOL_PROPERTY
Bond
SciTegic.value.DoubleValue
0.240

@<SCITEGIC>MOL_PROPERTY
Angle
SciTegic.value.DoubleValue
3.225

@<SCITEGIC>MOL_PROPERTY
Pdih
SciTegic.value.DoubleValue
5.615

@<SCITEGIC>MOL_PROPERTY
Idih
SciTegic.value.DoubleValue
0.001

@<SCITEGIC>MOL_PROPERTY
Tether
SciTegic.value.DoubleValue
0.000

@<TRIPOS>MOLECULE
guest-8_confgen4.mol2 : confsearch ligand conformer 87
          25          24           1
SMALL
USER_CHARGES
 
@<TRIPOS>ATOM
       1    C1      19.203759   21.295249   19.724202 C.2        1 MOL1         0.6168
       2    O1      18.712041   22.363418   20.030602 O.co2      1 MOL1        -0.6703
       3    O2      19.795401   21.100896   18.680719 O.co2      1 MOL1        -0.6703
       4    C2      19.090635   20.140647   20.713231 C.3        1 MOL1        -0.1963
       5    H1      19.033540   19.206617   20.141489 H          1 MOL1         0.0750
       6    H2      18.143188   20.247780   21.254962 H          1 MOL1         0.0750
       7    C3      20.273558   20.085268   21.711082 C.3        1 MOL1        -0.1860
       8    H3      21.215376   19.991040   21.152875 H          1 MOL1         0.0752
       9    H4      20.324716   21.032448   22.265852 H          1 MOL1         0.0752
      10    C4      20.135064   18.909461   22.702267 C.3        1 MOL1        -0.1858
      11    H5      20.083840   17.965083   22.143394 H          1 MOL1         0.0752
      12    H6      19.188211   19.004184   23.246979 H          1 MOL1         0.0752
      13    C5      21.321893   18.854913   23.692820 C.3        1 MOL1        -0.1858
      14    H7      22.246029   18.728261   23.112433 H          1 MOL1         0.0752
      15    H8      21.422107   19.811876   24.222912 H          1 MOL1         0.0752
      16    C6      21.218665   17.691534   24.711799 C.3        1 MOL1        -0.1858
      17    H9      22.231895   17.309934   24.897853 H          1 MOL1         0.0752
      18    H10     20.659184   16.852191   24.276691 H          1 MOL1         0.0752
      19    C7      20.610276   18.083383   26.081186 C.3        1 MOL1        -0.1834
      20    H11     20.660307   17.210954   26.747171 H          1 MOL1         0.0752
      21    H12     21.227858   18.862511   26.548935 H          1 MOL1         0.0752
      22    C8      19.146627   18.565856   26.008229 C.3        1 MOL1        -0.2849
      23    H13     18.516258   17.835108   25.485157 H          1 MOL1         0.0764
      24    H14     18.737748   18.705437   27.017233 H          1 MOL1         0.0764
      25    H15     19.073004   19.527999   25.486226 H          1 MOL1         0.0764
@<TRIPOS>BOND
    1     1     2    1
    2     1     3    2
    3     1     4    1
    4     4     5    1
    5     4     6    1
    6     4     7    1
    7     7     8    1
    8     7     9    1
    9     7    10    1
   10    10    11    1
   11    10    12    1
   12    10    13    1
   13    13    14    1
   14    13    15    1
   15    13    16    1
   16    16    17    1
   17    16    18    1
   18    16    19    1
   19    19    20    1
   20    19    21    1
   21    19    22    1
   22    22    23    1
   23    22    24    1
   24    22    25    1
@<TRIPOS>SUBSTRUCTURE
       1 MOL1            1 RESIDUE      1      MOL     
@<SCITEGIC>MOL_PROPERTY
VConf Rank
SciTegic.value.IntegerValue
87

@<SCITEGIC>MOL_PROPERTY
Conf_Id
SciTegic.value.IntegerValue
125

@<SCITEGIC>MOL_PROPERTY
Delta U+W
SciTegic.value.DoubleValue
2.314

@<SCITEGIC>MOL_PROPERTY
U+W
SciTegic.value.DoubleValue
-49.315

@<SCITEGIC>MOL_PROPERTY
Grad RMS
SciTegic.value.DoubleValue
0.000000

@<SCITEGIC>MOL_PROPERTY
U
SciTegic.value.DoubleValue
9.740

@<SCITEGIC>MOL_PROPERTY
W
SciTegic.value.DoubleValue
-59.054

@<SCITEGIC>MOL_PROPERTY
W(PB)
SciTegic.value.DoubleValue
-61.488

@<SCITEGIC>MOL_PROPERTY
W(SA)
SciTegic.value.DoubleValue
2.433

@<SCITEGIC>MOL_PROPERTY
Valence
SciTegic.value.DoubleValue
10.506

@<SCITEGIC>MOL_PROPERTY
Coulomb
SciTegic.value.DoubleValue
-1.761

@<SCITEGIC>MOL_PROPERTY
VdW
SciTegic.value.DoubleValue
0.994

@<SCITEGIC>MOL_PROPERTY
VdW6
SciTegic.value.DoubleValue
-9.209

@<SCITEGIC>MOL_PROPERTY
VdW12
SciTegic.value.DoubleValue
10.203

@<SCITEGIC>MOL_PROPERTY
Bond
SciTegic.value.DoubleValue
0.193

@<SCITEGIC>MOL_PROPERTY
Angle
SciTegic.value.DoubleValue
2.979

@<SCITEGIC>MOL_PROPERTY
Pdih
SciTegic.value.DoubleValue
7.334

@<SCITEGIC>MOL_PROPERTY
Idih
SciTegic.value.DoubleValue
0.001

@<SCITEGIC>MOL_PROPERTY
Tether
SciTegic.value.DoubleValue
0.000

@<TRIPOS>MOLECULE
guest-8_confgen4.mol2 : confsearch ligand conformer 88
          25          24           1
SMALL
USER_CHARGES
 
@<TRIPOS>ATOM
       1    C1      23.063274   18.165499   25.947251 C.2        1 MOL1         0.6168
       2    O1      23.595297   19.218624   26.238066 O.co2      1 MOL1        -0.6703
       3    O2      23.484439   17.079974   26.295098 O.co2      1 MOL1        -0.6703
       4    C2      21.811796   18.206903   25.077707 C.3        1 MOL1        -0.1963
       5    H1      21.262552   19.121369   25.328308 H          1 MOL1         0.0750
       6    H2      21.175941   17.358090   25.356202 H          1 MOL1         0.0750
       7    C3      22.133567   18.159877   23.561299 C.3        1 MOL1        -0.1860
       8    H3      22.731316   19.039676   23.285657 H          1 MOL1         0.0752
       9    H4      22.763741   17.282087   23.361769 H          1 MOL1         0.0752
      10    C4      20.875295   18.080668   22.664288 C.3        1 MOL1        -0.1858
      11    H5      20.284878   17.194862   22.935817 H          1 MOL1         0.0752
      12    H6      21.197979   17.932397   21.624672 H          1 MOL1         0.0752
      13    C5      19.985233   19.342893   22.740255 C.3        1 MOL1        -0.1858
      14    H7      19.602320   19.461473   23.761011 H          1 MOL1         0.0752
      15    H8      20.589871   20.232282   22.516727 H          1 MOL1         0.0752
      16    C6      18.799017   19.263499   21.751421 C.3        1 MOL1        -0.1858
      17    H9      18.165933   18.401268   22.001723 H          1 MOL1         0.0752
      18    H10     19.187591   19.081002   20.740209 H          1 MOL1         0.0752
      19    C7      17.936585   20.546890   21.720798 C.3        1 MOL1        -0.1834
      20    H11     18.565766   21.410714   21.465368 H          1 MOL1         0.0752
      21    H12     17.195420   20.454047   20.915018 H          1 MOL1         0.0752
      22    C8      17.195735   20.818249   23.048235 C.3        1 MOL1        -0.2849
      23    H13     17.898451   21.034470   23.862561 H          1 MOL1         0.0764
      24    H14     16.529817   21.684827   22.945813 H          1 MOL1         0.0764
      25    H15     16.584136   19.954774   23.340577 H          1 MOL1         0.0764
@<TRIPOS>BOND
    1     1     2    1
    2     1     3    2
    3     1     4    1
    4     4     5    1
    5     4     6    1
    6     4     7    1
    7     7     8    1
    8     7     9    1
    9     7    10    1
   10    10    11    1
   11    10    12    1
   12    10    13    1
   13    13    14    1
   14    13    15    1
   15    13    16    1
   16    16    17    1
   17    16    18    1
   18    16    19    1
   19    19    20    1
   20    19    21    1
   21    19    22    1
   22    22    23    1
   23    22    24    1
   24    22    25    1
@<TRIPOS>SUBSTRUCTURE
       1 MOL1            1 RESIDUE      1      MOL     
@<SCITEGIC>MOL_PROPERTY
VConf Rank
SciTegic.value.IntegerValue
88

@<SCITEGIC>MOL_PROPERTY
Conf_Id
SciTegic.value.IntegerValue
4

@<SCITEGIC>MOL_PROPERTY
Delta U+W
SciTegic.value.DoubleValue
0.189

@<SCITEGIC>MOL_PROPERTY
U+W
SciTegic.value.DoubleValue
-51.441

@<SCITEGIC>MOL_PROPERTY
Grad RMS
SciTegic.value.DoubleValue
0.000000

@<SCITEGIC>MOL_PROPERTY
U
SciTegic.value.DoubleValue
7.701

@<SCITEGIC>MOL_PROPERTY
W
SciTegic.value.DoubleValue
-59.141

@<SCITEGIC>MOL_PROPERTY
W(PB)
SciTegic.value.DoubleValue
-61.609

@<SCITEGIC>MOL_PROPERTY
W(SA)
SciTegic.value.DoubleValue
2.467

@<SCITEGIC>MOL_PROPERTY
Valence
SciTegic.value.DoubleValue
8.550

@<SCITEGIC>MOL_PROPERTY
Coulomb
SciTegic.value.DoubleValue
-1.988

@<SCITEGIC>MOL_PROPERTY
VdW
SciTegic.value.DoubleValue
1.139

@<SCITEGIC>MOL_PROPERTY
VdW6
SciTegic.value.DoubleValue
-8.988

@<SCITEGIC>MOL_PROPERTY
VdW12
SciTegic.value.DoubleValue
10.127

@<SCITEGIC>MOL_PROPERTY
Bond
SciTegic.value.DoubleValue
0.191

@<SCITEGIC>MOL_PROPERTY
Angle
SciTegic.value.DoubleValue
2.738

@<SCITEGIC>MOL_PROPERTY
Pdih
SciTegic.value.DoubleValue
5.621

@<SCITEGIC>MOL_PROPERTY
Idih
SciTegic.value.DoubleValue
0.001

@<SCITEGIC>MOL_PROPERTY
Tether
SciTegic.value.DoubleValue
0.000

@<TRIPOS>MOLECULE
guest-8_confgen4.mol2 : confsearch ligand conformer 89
          25          24           1
SMALL
USER_CHARGES
 
@<TRIPOS>ATOM
       1    C1      23.548300   17.258773   24.047293 C.2        1 MOL1         0.6168
       2    O1      23.637826   17.210061   25.258205 O.co2      1 MOL1        -0.6703
       3    O2      24.309307   16.686154   23.292497 O.co2      1 MOL1        -0.6703
       4    C2      22.403994   18.063581   23.441596 C.3        1 MOL1        -0.1963
       5    H1      22.744829   18.470210   22.481992 H          1 MOL1         0.0750
       6    H2      22.207793   18.913813   24.104417 H          1 MOL1         0.0750
       7    C3      21.118801   17.219469   23.239131 C.3        1 MOL1        -0.1860
       8    H3      21.372352   16.327112   22.650185 H          1 MOL1         0.0752
       9    H4      20.760861   16.856927   24.212666 H          1 MOL1         0.0752
      10    C4      19.984177   17.984079   22.516527 C.3        1 MOL1        -0.1858
      11    H5      19.165657   17.280371   22.312246 H          1 MOL1         0.0752
      12    H6      20.342074   18.336650   21.539503 H          1 MOL1         0.0752
      13    C5      19.431325   19.177326   23.329983 C.3        1 MOL1        -0.1858
      14    H7      19.120201   18.830609   24.324746 H          1 MOL1         0.0752
      15    H8      20.225364   19.918572   23.480591 H          1 MOL1         0.0752
      16    C6      18.232077   19.845045   22.617833 C.3        1 MOL1        -0.1858
      17    H9      17.467586   19.083024   22.413572 H          1 MOL1         0.0752
      18    H10     18.551733   20.234513   21.641605 H          1 MOL1         0.0752
      19    C7      17.582990   20.982094   23.441010 C.3        1 MOL1        -0.1834
      20    H11     16.674885   21.318523   22.921983 H          1 MOL1         0.0752
      21    H12     17.257255   20.594752   24.416290 H          1 MOL1         0.0752
      22    C8      18.514726   22.195850   23.648986 C.3        1 MOL1        -0.2849
      23    H13     18.878789   22.581083   22.687652 H          1 MOL1         0.0764
      24    H14     17.979222   23.007983   24.157485 H          1 MOL1         0.0764
      25    H15     19.382940   21.933610   24.266336 H          1 MOL1         0.0764
@<TRIPOS>BOND
    1     1     2    1
    2     1     3    2
    3     1     4    1
    4     4     5    1
    5     4     6    1
    6     4     7    1
    7     7     8    1
    8     7     9    1
    9     7    10    1
   10    10    11    1
   11    10    12    1
   12    10    13    1
   13    13    14    1
   14    13    15    1
   15    13    16    1
   16    16    17    1
   17    16    18    1
   18    16    19    1
   19    19    20    1
   20    19    21    1
   21    19    22    1
   22    22    23    1
   23    22    24    1
   24    22    25    1
@<TRIPOS>SUBSTRUCTURE
       1 MOL1            1 RESIDUE      1      MOL     
@<SCITEGIC>MOL_PROPERTY
VConf Rank
SciTegic.value.IntegerValue
89

@<SCITEGIC>MOL_PROPERTY
Conf_Id
SciTegic.value.IntegerValue
17

@<SCITEGIC>MOL_PROPERTY
Delta U+W
SciTegic.value.DoubleValue
0.219

@<SCITEGIC>MOL_PROPERTY
U+W
SciTegic.value.DoubleValue
-51.411

@<SCITEGIC>MOL_PROPERTY
Grad RMS
SciTegic.value.DoubleValue
0.000000

@<SCITEGIC>MOL_PROPERTY
U
SciTegic.value.DoubleValue
7.701

@<SCITEGIC>MOL_PROPERTY
W
SciTegic.value.DoubleValue
-59.111

@<SCITEGIC>MOL_PROPERTY
W(PB)
SciTegic.value.DoubleValue
-61.599

@<SCITEGIC>MOL_PROPERTY
W(SA)
SciTegic.value.DoubleValue
2.488

@<SCITEGIC>MOL_PROPERTY
Valence
SciTegic.value.DoubleValue
8.550

@<SCITEGIC>MOL_PROPERTY
Coulomb
SciTegic.value.DoubleValue
-1.988

@<SCITEGIC>MOL_PROPERTY
VdW
SciTegic.value.DoubleValue
1.139

@<SCITEGIC>MOL_PROPERTY
VdW6
SciTegic.value.DoubleValue
-8.988

@<SCITEGIC>MOL_PROPERTY
VdW12
SciTegic.value.DoubleValue
10.127

@<SCITEGIC>MOL_PROPERTY
Bond
SciTegic.value.DoubleValue
0.191

@<SCITEGIC>MOL_PROPERTY
Angle
SciTegic.value.DoubleValue
2.738

@<SCITEGIC>MOL_PROPERTY
Pdih
SciTegic.value.DoubleValue
5.621

@<SCITEGIC>MOL_PROPERTY
Idih
SciTegic.value.DoubleValue
0.001

@<SCITEGIC>MOL_PROPERTY
Tether
SciTegic.value.DoubleValue
0.000

@<TRIPOS>MOLECULE
guest-8_confgen4.mol2 : confsearch ligand conformer 90
          25          24           1
SMALL
USER_CHARGES
 
@<TRIPOS>ATOM
       1    C1      21.130158   22.936820   23.295643 C.2        1 MOL1         0.6168
       2    O1      20.550846   23.538951   22.413092 O.co2      1 MOL1        -0.6703
       3    O2      22.329918   22.742892   23.302305 O.co2      1 MOL1        -0.6703
       4    C2      20.310613   22.411214   24.470809 C.3        1 MOL1        -0.1963
       5    H1      19.359352   22.955889   24.505517 H          1 MOL1         0.0750
       6    H2      20.854148   22.663170   25.388998 H          1 MOL1         0.0750
       7    C3      20.052605   20.882765   24.424173 C.3        1 MOL1        -0.1860
       8    H3      21.017266   20.361025   24.370470 H          1 MOL1         0.0752
       9    H4      19.575149   20.572661   25.363394 H          1 MOL1         0.0752
      10    C4      19.154109   20.470251   23.233673 C.3        1 MOL1        -0.1858
      11    H5      19.655302   20.712501   22.286340 H          1 MOL1         0.0752
      12    H6      18.232972   21.068399   23.257626 H          1 MOL1         0.0752
      13    C5      18.767559   18.972185   23.243634 C.3        1 MOL1        -0.1858
      14    H7      18.258336   18.729577   24.186334 H          1 MOL1         0.0752
      15    H8      18.037360   18.796317   22.441924 H          1 MOL1         0.0752
      16    C6      19.972296   18.023935   23.042487 C.3        1 MOL1        -0.1858
      17    H9      20.677820   18.132206   23.876418 H          1 MOL1         0.0752
      18    H10     20.511461   18.304588   22.127376 H          1 MOL1         0.0752
      19    C7      19.527533   16.549240   22.946526 C.3        1 MOL1        -0.1834
      20    H11     18.986193   16.265846   23.859816 H          1 MOL1         0.0752
      21    H12     18.826845   16.426850   22.108982 H          1 MOL1         0.0752
      22    C8      20.730291   15.604597   22.749687 C.3        1 MOL1        -0.2849
      23    H13     21.432625   15.682549   23.589945 H          1 MOL1         0.0764
      24    H14     20.395947   14.561121   22.683149 H          1 MOL1         0.0764
      25    H15     21.272499   15.846382   21.826145 H          1 MOL1         0.0764
@<TRIPOS>BOND
    1     1     2    1
    2     1     3    2
    3     1     4    1
    4     4     5    1
    5     4     6    1
    6     4     7    1
    7     7     8    1
    8     7     9    1
    9     7    10    1
   10    10    11    1
   11    10    12    1
   12    10    13    1
   13    13    14    1
   14    13    15    1
   15    13    16    1
   16    16    17    1
   17    16    18    1
   18    16    19    1
   19    19    20    1
   20    19    21    1
   21    19    22    1
   22    22    23    1
   23    22    24    1
   24    22    25    1
@<TRIPOS>SUBSTRUCTURE
       1 MOL1            1 RESIDUE      1      MOL     
@<SCITEGIC>MOL_PROPERTY
VConf Rank
SciTegic.value.IntegerValue
90

@<SCITEGIC>MOL_PROPERTY
Conf_Id
SciTegic.value.IntegerValue
142

@<SCITEGIC>MOL_PROPERTY
Delta U+W
SciTegic.value.DoubleValue
0.593

@<SCITEGIC>MOL_PROPERTY
U+W
SciTegic.value.DoubleValue
-51.037

@<SCITEGIC>MOL_PROPERTY
Grad RMS
SciTegic.value.DoubleValue
0.000000

@<SCITEGIC>MOL_PROPERTY
U
SciTegic.value.DoubleValue
8.903

@<SCITEGIC>MOL_PROPERTY
W
SciTegic.value.DoubleValue
-59.940

@<SCITEGIC>MOL_PROPERTY
W(PB)
SciTegic.value.DoubleValue
-62.418

@<SCITEGIC>MOL_PROPERTY
W(SA)
SciTegic.value.DoubleValue
2.478

@<SCITEGIC>MOL_PROPERTY
Valence
SciTegic.value.DoubleValue
8.305

@<SCITEGIC>MOL_PROPERTY
Coulomb
SciTegic.value.DoubleValue
-0.223

@<SCITEGIC>MOL_PROPERTY
VdW
SciTegic.value.DoubleValue
0.821

@<SCITEGIC>MOL_PROPERTY
VdW6
SciTegic.value.DoubleValue
-9.236

@<SCITEGIC>MOL_PROPERTY
VdW12
SciTegic.value.DoubleValue
10.057

@<SCITEGIC>MOL_PROPERTY
Bond
SciTegic.value.DoubleValue
0.173

@<SCITEGIC>MOL_PROPERTY
Angle
SciTegic.value.DoubleValue
2.663

@<SCITEGIC>MOL_PROPERTY
Pdih
SciTegic.value.DoubleValue
5.469

@<SCITEGIC>MOL_PROPERTY
Idih
SciTegic.value.DoubleValue
0.001

@<SCITEGIC>MOL_PROPERTY
Tether
SciTegic.value.DoubleValue
0.000

@<TRIPOS>MOLECULE
guest-8_confgen4.mol2 : confsearch ligand conformer 91
          25          24           1
SMALL
USER_CHARGES
 
@<TRIPOS>ATOM
       1    C1      17.750773   21.445309   24.422528 C.2        1 MOL1         0.6168
       2    O1      17.581583   22.318687   25.250866 O.co2      1 MOL1        -0.6703
       3    O2      17.401555   21.542590   23.262511 O.co2      1 MOL1        -0.6703
       4    C2      18.413079   20.146363   24.873115 C.3        1 MOL1        -0.1963
       5    H1      18.241564   19.380604   24.107939 H          1 MOL1         0.0750
       6    H2      17.888427   19.808030   25.774109 H          1 MOL1         0.0750
       7    C3      19.929356   20.281470   25.180981 C.3        1 MOL1        -0.1860
       8    H3      20.059471   21.004747   25.997754 H          1 MOL1         0.0752
       9    H4      20.307255   19.324746   25.564021 H          1 MOL1         0.0752
      10    C4      20.790015   20.737065   23.974191 C.3        1 MOL1        -0.1858
      11    H5      21.838133   20.807586   24.295240 H          1 MOL1         0.0752
      12    H6      20.493467   21.755465   23.687823 H          1 MOL1         0.0752
      13    C5      20.708860   19.827774   22.722420 C.3        1 MOL1        -0.1858
      14    H7      19.686629   19.835383   22.320996 H          1 MOL1         0.0752
      15    H8      21.344792   20.261811   21.939008 H          1 MOL1         0.0752
      16    C6      21.158526   18.372017   22.985548 C.3        1 MOL1        -0.1858
      17    H9      20.486901   17.899931   23.714356 H          1 MOL1         0.0752
      18    H10     22.164044   18.372606   23.427822 H          1 MOL1         0.0752
      19    C7      21.165126   17.534087   21.689683 C.3        1 MOL1        -0.1834
      20    H11     20.160635   17.534407   21.244179 H          1 MOL1         0.0752
      21    H12     21.840669   17.993114   20.954625 H          1 MOL1         0.0752
      22    C8      21.607907   16.081029   21.954750 C.3        1 MOL1        -0.2849
      23    H13     20.929999   15.586918   22.663030 H          1 MOL1         0.0764
      24    H14     21.606945   15.500209   21.023256 H          1 MOL1         0.0764
      25    H15     22.622630   16.049811   22.372740 H          1 MOL1         0.0764
@<TRIPOS>BOND
    1     1     2    1
    2     1     3    2
    3     1     4    1
    4     4     5    1
    5     4     6    1
    6     4     7    1
    7     7     8    1
    8     7     9    1
    9     7    10    1
   10    10    11    1
   11    10    12    1
   12    10    13    1
   13    13    14    1
   14    13    15    1
   15    13    16    1
   16    16    17    1
   17    16    18    1
   18    16    19    1
   19    19    20    1
   20    19    21    1
   21    19    22    1
   22    22    23    1
   23    22    24    1
   24    22    25    1
@<TRIPOS>SUBSTRUCTURE
       1 MOL1            1 RESIDUE      1      MOL     
@<SCITEGIC>MOL_PROPERTY
VConf Rank
SciTegic.value.IntegerValue
91

@<SCITEGIC>MOL_PROPERTY
Conf_Id
SciTegic.value.IntegerValue
135

@<SCITEGIC>MOL_PROPERTY
Delta U+W
SciTegic.value.DoubleValue
1.314

@<SCITEGIC>MOL_PROPERTY
U+W
SciTegic.value.DoubleValue
-50.316

@<SCITEGIC>MOL_PROPERTY
Grad RMS
SciTegic.value.DoubleValue
0.000000

@<SCITEGIC>MOL_PROPERTY
U
SciTegic.value.DoubleValue
9.773

@<SCITEGIC>MOL_PROPERTY
W
SciTegic.value.DoubleValue
-60.088

@<SCITEGIC>MOL_PROPERTY
W(PB)
SciTegic.value.DoubleValue
-62.535

@<SCITEGIC>MOL_PROPERTY
W(SA)
SciTegic.value.DoubleValue
2.447

@<SCITEGIC>MOL_PROPERTY
Valence
SciTegic.value.DoubleValue
8.741

@<SCITEGIC>MOL_PROPERTY
Coulomb
SciTegic.value.DoubleValue
0.479

@<SCITEGIC>MOL_PROPERTY
VdW
SciTegic.value.DoubleValue
0.552

@<SCITEGIC>MOL_PROPERTY
VdW6
SciTegic.value.DoubleValue
-10.627

@<SCITEGIC>MOL_PROPERTY
VdW12
SciTegic.value.DoubleValue
11.179

@<SCITEGIC>MOL_PROPERTY
Bond
SciTegic.value.DoubleValue
0.227

@<SCITEGIC>MOL_PROPERTY
Angle
SciTegic.value.DoubleValue
3.155

@<SCITEGIC>MOL_PROPERTY
Pdih
SciTegic.value.DoubleValue
5.358

@<SCITEGIC>MOL_PROPERTY
Idih
SciTegic.value.DoubleValue
0.001

@<SCITEGIC>MOL_PROPERTY
Tether
SciTegic.value.DoubleValue
0.000

@<TRIPOS>MOLECULE
guest-8_confgen4.mol2 : confsearch ligand conformer 92
          25          24           1
SMALL
USER_CHARGES
 
@<TRIPOS>ATOM
       1    C1      22.712193   18.461569   20.041583 C.2        1 MOL1         0.6168
       2    O1      22.161428   18.453820   18.958375 O.co2      1 MOL1        -0.6703
       3    O2      23.908288   18.619313   20.187337 O.co2      1 MOL1        -0.6703
       4    C2      21.852093   18.286410   21.288070 C.3        1 MOL1        -0.1963
       5    H1      22.455338   17.775547   22.047980 H          1 MOL1         0.0750
       6    H2      21.022828   17.619347   21.028228 H          1 MOL1         0.0750
       7    C3      21.320873   19.633691   21.843469 C.3        1 MOL1        -0.1860
       8    H3      22.173885   20.308628   21.999277 H          1 MOL1         0.0752
       9    H4      20.678911   20.114439   21.092438 H          1 MOL1         0.0752
      10    C4      20.551505   19.495190   23.179068 C.3        1 MOL1        -0.1858
      11    H5      20.357677   20.505085   23.561864 H          1 MOL1         0.0752
      12    H6      21.186215   18.991744   23.920865 H          1 MOL1         0.0752
      13    C5      19.206527   18.742603   23.040825 C.3        1 MOL1        -0.1858
      14    H7      18.555568   19.285325   22.342040 H          1 MOL1         0.0752
      15    H8      19.382141   17.755611   22.595312 H          1 MOL1         0.0752
      16    C6      18.457837   18.529029   24.380719 C.3        1 MOL1        -0.1858
      17    H9      19.062579   17.906509   25.054264 H          1 MOL1         0.0752
      18    H10     17.554642   17.942370   24.164051 H          1 MOL1         0.0752
      19    C7      18.024893   19.832057   25.098269 C.3        1 MOL1        -0.1834
      20    H11     17.891645   20.642978   24.368964 H          1 MOL1         0.0752
      21    H12     17.039894   19.670060   25.557439 H          1 MOL1         0.0752
      22    C8      19.004651   20.267143   26.210942 C.3        1 MOL1        -0.2849
      23    H13     20.010568   20.455050   25.818590 H          1 MOL1         0.0764
      24    H14     18.654373   21.189426   26.692093 H          1 MOL1         0.0764
      25    H15     19.083160   19.493434   26.985727 H          1 MOL1         0.0764
@<TRIPOS>BOND
    1     1     2    1
    2     1     3    2
    3     1     4    1
    4     4     5    1
    5     4     6    1
    6     4     7    1
    7     7     8    1
    8     7     9    1
    9     7    10    1
   10    10    11    1
   11    10    12    1
   12    10    13    1
   13    13    14    1
   14    13    15    1
   15    13    16    1
   16    16    17    1
   17    16    18    1
   18    16    19    1
   19    19    20    1
   20    19    21    1
   21    19    22    1
   22    22    23    1
   23    22    24    1
   24    22    25    1
@<TRIPOS>SUBSTRUCTURE
       1 MOL1            1 RESIDUE      1      MOL     
@<SCITEGIC>MOL_PROPERTY
VConf Rank
SciTegic.value.IntegerValue
92

@<SCITEGIC>MOL_PROPERTY
Conf_Id
SciTegic.value.IntegerValue
19

@<SCITEGIC>MOL_PROPERTY
Delta U+W
SciTegic.value.DoubleValue
3.222

@<SCITEGIC>MOL_PROPERTY
U+W
SciTegic.value.DoubleValue
-48.407

@<SCITEGIC>MOL_PROPERTY
Grad RMS
SciTegic.value.DoubleValue
0.000000

@<SCITEGIC>MOL_PROPERTY
U
SciTegic.value.DoubleValue
10.617

@<SCITEGIC>MOL_PROPERTY
W
SciTegic.value.DoubleValue
-59.025

@<SCITEGIC>MOL_PROPERTY
W(PB)
SciTegic.value.DoubleValue
-61.462

@<SCITEGIC>MOL_PROPERTY
W(SA)
SciTegic.value.DoubleValue
2.437

@<SCITEGIC>MOL_PROPERTY
Valence
SciTegic.value.DoubleValue
11.188

@<SCITEGIC>MOL_PROPERTY
Coulomb
SciTegic.value.DoubleValue
-1.778

@<SCITEGIC>MOL_PROPERTY
VdW
SciTegic.value.DoubleValue
1.208

@<SCITEGIC>MOL_PROPERTY
VdW6
SciTegic.value.DoubleValue
-9.786

@<SCITEGIC>MOL_PROPERTY
VdW12
SciTegic.value.DoubleValue
10.993

@<SCITEGIC>MOL_PROPERTY
Bond
SciTegic.value.DoubleValue
0.241

@<SCITEGIC>MOL_PROPERTY
Angle
SciTegic.value.DoubleValue
3.294

@<SCITEGIC>MOL_PROPERTY
Pdih
SciTegic.value.DoubleValue
7.653

@<SCITEGIC>MOL_PROPERTY
Idih
SciTegic.value.DoubleValue
0.001

@<SCITEGIC>MOL_PROPERTY
Tether
SciTegic.value.DoubleValue
0.000

@<TRIPOS>MOLECULE
guest-8_confgen4.mol2 : confsearch ligand conformer 93
          25          24           1
SMALL
USER_CHARGES
 
@<TRIPOS>ATOM
       1    C1      16.340650   18.374906   21.529482 C.2        1 MOL1         0.6168
       2    O1      15.914971   17.268287   21.795816 O.co2      1 MOL1        -0.6703
       3    O2      15.949780   19.038008   20.589118 O.co2      1 MOL1        -0.6703
       4    C2      17.442436   18.953797   22.409901 C.3        1 MOL1        -0.1963
       5    H1      17.276769   18.591473   23.430414 H          1 MOL1         0.0750
       6    H2      17.325128   20.043868   22.428121 H          1 MOL1         0.0750
       7    C3      18.863755   18.576803   21.916387 C.3        1 MOL1        -0.1860
       8    H3      18.987310   17.485455   21.947655 H          1 MOL1         0.0752
       9    H4      18.956629   18.868753   20.861121 H          1 MOL1         0.0752
      10    C4      20.000264   19.256009   22.717611 C.3        1 MOL1        -0.1858
      11    H5      19.860661   20.345486   22.706151 H          1 MOL1         0.0752
      12    H6      20.945511   19.052723   22.198794 H          1 MOL1         0.0752
      13    C5      20.109785   18.755492   24.177732 C.3        1 MOL1        -0.1858
      14    H7      19.147355   18.892616   24.686064 H          1 MOL1         0.0752
      15    H8      20.308180   17.675105   24.178560 H          1 MOL1         0.0752
      16    C6      21.193820   19.478021   25.016955 C.3        1 MOL1        -0.1858
      17    H9      21.139865   19.079207   26.039162 H          1 MOL1         0.0752
      18    H10     20.953631   20.546705   25.101396 H          1 MOL1         0.0752
      19    C7      22.643829   19.292699   24.503796 C.3        1 MOL1        -0.1834
      20    H11     23.314278   19.201265   25.369498 H          1 MOL1         0.0752
      21    H12     22.733990   18.349551   23.947400 H          1 MOL1         0.0752
      22    C8      23.138112   20.474398   23.639772 C.3        1 MOL1        -0.2849
      23    H13     23.125792   21.409568   24.214566 H          1 MOL1         0.0764
      24    H14     24.168643   20.300312   23.304354 H          1 MOL1         0.0764
      25    H15     22.515502   20.617466   22.749263 H          1 MOL1         0.0764
@<TRIPOS>BOND
    1     1     2    1
    2     1     3    2
    3     1     4    1
    4     4     5    1
    5     4     6    1
    6     4     7    1
    7     7     8    1
    8     7     9    1
    9     7    10    1
   10    10    11    1
   11    10    12    1
   12    10    13    1
   13    13    14    1
   14    13    15    1
   15    13    16    1
   16    16    17    1
   17    16    18    1
   18    16    19    1
   19    19    20    1
   20    19    21    1
   21    19    22    1
   22    22    23    1
   23    22    24    1
   24    22    25    1
@<TRIPOS>SUBSTRUCTURE
       1 MOL1            1 RESIDUE      1      MOL     
@<SCITEGIC>MOL_PROPERTY
VConf Rank
SciTegic.value.IntegerValue
93

@<SCITEGIC>MOL_PROPERTY
Conf_Id
SciTegic.value.IntegerValue
20

@<SCITEGIC>MOL_PROPERTY
Delta U+W
SciTegic.value.DoubleValue
3.224

@<SCITEGIC>MOL_PROPERTY
U+W
SciTegic.value.DoubleValue
-48.406

@<SCITEGIC>MOL_PROPERTY
Grad RMS
SciTegic.value.DoubleValue
0.000000

@<SCITEGIC>MOL_PROPERTY
U
SciTegic.value.DoubleValue
10.617

@<SCITEGIC>MOL_PROPERTY
W
SciTegic.value.DoubleValue
-59.023

@<SCITEGIC>MOL_PROPERTY
W(PB)
SciTegic.value.DoubleValue
-61.467

@<SCITEGIC>MOL_PROPERTY
W(SA)
SciTegic.value.DoubleValue
2.444

@<SCITEGIC>MOL_PROPERTY
Valence
SciTegic.value.DoubleValue
11.188

@<SCITEGIC>MOL_PROPERTY
Coulomb
SciTegic.value.DoubleValue
-1.778

@<SCITEGIC>MOL_PROPERTY
VdW
SciTegic.value.DoubleValue
1.208

@<SCITEGIC>MOL_PROPERTY
VdW6
SciTegic.value.DoubleValue
-9.786

@<SCITEGIC>MOL_PROPERTY
VdW12
SciTegic.value.DoubleValue
10.993

@<SCITEGIC>MOL_PROPERTY
Bond
SciTegic.value.DoubleValue
0.241

@<SCITEGIC>MOL_PROPERTY
Angle
SciTegic.value.DoubleValue
3.294

@<SCITEGIC>MOL_PROPERTY
Pdih
SciTegic.value.DoubleValue
7.653

@<SCITEGIC>MOL_PROPERTY
Idih
SciTegic.value.DoubleValue
0.001

@<SCITEGIC>MOL_PROPERTY
Tether
SciTegic.value.DoubleValue
0.000

@<TRIPOS>MOLECULE
guest-8_confgen4.mol2 : confsearch ligand conformer 94
          25          24           1
SMALL
USER_CHARGES
 
@<TRIPOS>ATOM
       1    C1      22.378739   20.995386   22.533810 C.2        1 MOL1         0.6168
       2    O1      23.172214   20.199488   22.070571 O.co2      1 MOL1        -0.6703
       3    O2      22.505302   21.508893   23.628118 O.co2      1 MOL1        -0.6703
       4    C2      21.194178   21.424483   21.670051 C.3        1 MOL1        -0.1963
       5    H1      21.618405   21.928532   20.794018 H          1 MOL1         0.0750
       6    H2      20.610932   22.177602   22.213581 H          1 MOL1         0.0750
       7    C3      20.269754   20.269887   21.191035 C.3        1 MOL1        -0.1860
       8    H3      19.707462   20.626048   20.317304 H          1 MOL1         0.0752
       9    H4      20.877687   19.426349   20.835429 H          1 MOL1         0.0752
      10    C4      19.244718   19.779165   22.243450 C.3        1 MOL1        -0.1858
      11    H5      18.555972   19.079977   21.749743 H          1 MOL1         0.0752
      12    H6      18.632806   20.624807   22.585922 H          1 MOL1         0.0752
      13    C5      19.881359   19.072075   23.461375 C.3        1 MOL1        -0.1858
      14    H7      20.574767   18.293446   23.115011 H          1 MOL1         0.0752
      15    H8      20.470529   19.791417   24.043981 H          1 MOL1         0.0752
      16    C6      18.811634   18.441483   24.379314 C.3        1 MOL1        -0.1858
      17    H9      18.220251   17.712542   23.808458 H          1 MOL1         0.0752
      18    H10     18.116418   19.220676   24.720731 H          1 MOL1         0.0752
      19    C7      19.445661   17.745018   25.601738 C.3        1 MOL1        -0.1834
      20    H11     20.141141   16.964373   25.263565 H          1 MOL1         0.0752
      21    H12     20.036821   18.471654   26.176313 H          1 MOL1         0.0752
      22    C8      18.375210   17.116828   26.516712 C.3        1 MOL1        -0.2849
      23    H13     17.789192   16.362653   25.975257 H          1 MOL1         0.0764
      24    H14     18.843571   16.626486   27.380000 H          1 MOL1         0.0764
      25    H15     17.684089   17.881454   26.894963 H          1 MOL1         0.0764
@<TRIPOS>BOND
    1     1     2    1
    2     1     3    2
    3     1     4    1
    4     4     5    1
    5     4     6    1
    6     4     7    1
    7     7     8    1
    8     7     9    1
    9     7    10    1
   10    10    11    1
   11    10    12    1
   12    10    13    1
   13    13    14    1
   14    13    15    1
   15    13    16    1
   16    16    17    1
   17    16    18    1
   18    16    19    1
   19    19    20    1
   20    19    21    1
   21    19    22    1
   22    22    23    1
   23    22    24    1
   24    22    25    1
@<TRIPOS>SUBSTRUCTURE
       1 MOL1            1 RESIDUE      1      MOL     
@<SCITEGIC>MOL_PROPERTY
VConf Rank
SciTegic.value.IntegerValue
94

@<SCITEGIC>MOL_PROPERTY
Conf_Id
SciTegic.value.IntegerValue
24

@<SCITEGIC>MOL_PROPERTY
Delta U+W
SciTegic.value.DoubleValue
1.784

@<SCITEGIC>MOL_PROPERTY
U+W
SciTegic.value.DoubleValue
-49.846

@<SCITEGIC>MOL_PROPERTY
Grad RMS
SciTegic.value.DoubleValue
0.000000

@<SCITEGIC>MOL_PROPERTY
U
SciTegic.value.DoubleValue
10.904

@<SCITEGIC>MOL_PROPERTY
W
SciTegic.value.DoubleValue
-60.749

@<SCITEGIC>MOL_PROPERTY
W(PB)
SciTegic.value.DoubleValue
-63.220

@<SCITEGIC>MOL_PROPERTY
W(SA)
SciTegic.value.DoubleValue
2.471

@<SCITEGIC>MOL_PROPERTY
Valence
SciTegic.value.DoubleValue
9.445

@<SCITEGIC>MOL_PROPERTY
Coulomb
SciTegic.value.DoubleValue
0.780

@<SCITEGIC>MOL_PROPERTY
VdW
SciTegic.value.DoubleValue
0.679

@<SCITEGIC>MOL_PROPERTY
VdW6
SciTegic.value.DoubleValue
-10.008

@<SCITEGIC>MOL_PROPERTY
VdW12
SciTegic.value.DoubleValue
10.687

@<SCITEGIC>MOL_PROPERTY
Bond
SciTegic.value.DoubleValue
0.201

@<SCITEGIC>MOL_PROPERTY
Angle
SciTegic.value.DoubleValue
3.198

@<SCITEGIC>MOL_PROPERTY
Pdih
SciTegic.value.DoubleValue
6.039

@<SCITEGIC>MOL_PROPERTY
Idih
SciTegic.value.DoubleValue
0.006

@<SCITEGIC>MOL_PROPERTY
Tether
SciTegic.value.DoubleValue
0.000

@<TRIPOS>MOLECULE
guest-8_confgen4.mol2 : confsearch ligand conformer 95
          25          24           1
SMALL
USER_CHARGES
 
@<TRIPOS>ATOM
       1    C1      20.897979   21.893042   24.716056 C.2        1 MOL1         0.6168
       2    O1      21.620399   22.408600   23.885423 O.co2      1 MOL1        -0.6703
       3    O2      19.721703   22.169881   24.846265 O.co2      1 MOL1        -0.6703
       4    C2      21.514409   20.893036   25.692474 C.3        1 MOL1        -0.1963
       5    H1      20.743986   20.565176   26.400811 H          1 MOL1         0.0750
       6    H2      22.258800   21.449170   26.273907 H          1 MOL1         0.0750
       7    C3      22.201473   19.662456   25.036182 C.3        1 MOL1        -0.1860
       8    H3      22.817129   19.986640   24.185613 H          1 MOL1         0.0752
       9    H4      22.899511   19.233639   25.767816 H          1 MOL1         0.0752
      10    C4      21.233346   18.537675   24.592694 C.3        1 MOL1        -0.1858
      11    H5      20.629654   18.210098   25.450064 H          1 MOL1         0.0752
      12    H6      21.834192   17.669561   24.288809 H          1 MOL1         0.0752
      13    C5      20.303174   18.931613   23.422985 C.3        1 MOL1        -0.1858
      14    H7      19.603150   19.710878   23.749667 H          1 MOL1         0.0752
      15    H8      20.899761   19.357218   22.604456 H          1 MOL1         0.0752
      16    C6      19.497486   17.721859   22.901512 C.3        1 MOL1        -0.1858
      17    H9      18.905383   17.294671   23.722459 H          1 MOL1         0.0752
      18    H10     20.188571   16.937611   22.563399 H          1 MOL1         0.0752
      19    C7      18.559921   18.116529   21.741090 C.3        1 MOL1        -0.1834
      20    H11     17.865787   18.899797   22.076163 H          1 MOL1         0.0752
      21    H12     19.149301   18.543629   20.917880 H          1 MOL1         0.0752
      22    C8      17.756492   16.906782   21.222746 C.3        1 MOL1        -0.2849
      23    H13     17.133214   16.478998   22.018923 H          1 MOL1         0.0764
      24    H14     17.095686   17.205618   20.398672 H          1 MOL1         0.0764
      25    H15     18.426499   16.120127   20.851751 H          1 MOL1         0.0764
@<TRIPOS>BOND
    1     1     2    1
    2     1     3    2
    3     1     4    1
    4     4     5    1
    5     4     6    1
    6     4     7    1
    7     7     8    1
    8     7     9    1
    9     7    10    1
   10    10    11    1
   11    10    12    1
   12    10    13    1
   13    13    14    1
   14    13    15    1
   15    13    16    1
   16    16    17    1
   17    16    18    1
   18    16    19    1
   19    19    20    1
   20    19    21    1
   21    19    22    1
   22    22    23    1
   23    22    24    1
   24    22    25    1
@<TRIPOS>SUBSTRUCTURE
       1 MOL1            1 RESIDUE      1      MOL     
@<SCITEGIC>MOL_PROPERTY
VConf Rank
SciTegic.value.IntegerValue
95

@<SCITEGIC>MOL_PROPERTY
Conf_Id
SciTegic.value.IntegerValue
9

@<SCITEGIC>MOL_PROPERTY
Delta U+W
SciTegic.value.DoubleValue
1.764

@<SCITEGIC>MOL_PROPERTY
U+W
SciTegic.value.DoubleValue
-49.865

@<SCITEGIC>MOL_PROPERTY
Grad RMS
SciTegic.value.DoubleValue
0.000000

@<SCITEGIC>MOL_PROPERTY
U
SciTegic.value.DoubleValue
10.902

@<SCITEGIC>MOL_PROPERTY
W
SciTegic.value.DoubleValue
-60.768

@<SCITEGIC>MOL_PROPERTY
W(PB)
SciTegic.value.DoubleValue
-63.223

@<SCITEGIC>MOL_PROPERTY
W(SA)
SciTegic.value.DoubleValue
2.456

@<SCITEGIC>MOL_PROPERTY
Valence
SciTegic.value.DoubleValue
9.445

@<SCITEGIC>MOL_PROPERTY
Coulomb
SciTegic.value.DoubleValue
0.778

@<SCITEGIC>MOL_PROPERTY
VdW
SciTegic.value.DoubleValue
0.679

@<SCITEGIC>MOL_PROPERTY
VdW6
SciTegic.value.DoubleValue
-10.007

@<SCITEGIC>MOL_PROPERTY
VdW12
SciTegic.value.DoubleValue
10.687

@<SCITEGIC>MOL_PROPERTY
Bond
SciTegic.value.DoubleValue
0.201

@<SCITEGIC>MOL_PROPERTY
Angle
SciTegic.value.DoubleValue
3.198

@<SCITEGIC>MOL_PROPERTY
Pdih
SciTegic.value.DoubleValue
6.040

@<SCITEGIC>MOL_PROPERTY
Idih
SciTegic.value.DoubleValue
0.006

@<SCITEGIC>MOL_PROPERTY
Tether
SciTegic.value.DoubleValue
0.000

@<TRIPOS>MOLECULE
guest-8_confgen4.mol2 : confsearch ligand conformer 96
          25          24           1
SMALL
USER_CHARGES
 
@<TRIPOS>ATOM
       1    C1      19.800959   21.253146   26.442571 C.2        1 MOL1         0.6168
       2    O1      19.360610   20.327780   27.095559 O.co2      1 MOL1        -0.6703
       3    O2      20.255136   22.267722   26.933698 O.co2      1 MOL1        -0.6703
       4    C2      19.802686   21.126084   24.923502 C.3        1 MOL1        -0.1963
       5    H1      19.656469   22.127080   24.500556 H          1 MOL1         0.0750
       6    H2      18.931968   20.528488   24.636808 H          1 MOL1         0.0750
       7    C3      21.114133   20.503657   24.375472 C.3        1 MOL1        -0.1860
       8    H3      21.948824   21.146892   24.686884 H          1 MOL1         0.0752
       9    H4      21.292357   19.524937   24.842119 H          1 MOL1         0.0752
      10    C4      21.138478   20.374022   22.831162 C.3        1 MOL1        -0.1858
      11    H5      22.167371   20.552614   22.489982 H          1 MOL1         0.0752
      12    H6      20.530601   21.165676   22.372241 H          1 MOL1         0.0752
      13    C5      20.704182   18.987913   22.291859 C.3        1 MOL1        -0.1858
      14    H7      20.840399   18.983874   21.201915 H          1 MOL1         0.0752
      15    H8      21.380528   18.220583   22.690842 H          1 MOL1         0.0752
      16    C6      19.239210   18.610849   22.615666 C.3        1 MOL1        -0.1858
      17    H9      18.584636   19.452515   22.351981 H          1 MOL1         0.0752
      18    H10     19.128205   18.446688   23.695470 H          1 MOL1         0.0752
      19    C7      18.750891   17.351612   21.862406 C.3        1 MOL1        -0.1834
      20    H11     17.681009   17.209891   22.068396 H          1 MOL1         0.0752
      21    H12     18.839829   17.509384   20.778695 H          1 MOL1         0.0752
      22    C8      19.510062   16.068470   22.264316 C.3        1 MOL1        -0.2849
      23    H13     19.456209   15.903688   23.348332 H          1 MOL1         0.0764
      24    H14     19.074178   15.192424   21.766923 H          1 MOL1         0.0764
      25    H15     20.567424   16.122621   21.976348 H          1 MOL1         0.0764
@<TRIPOS>BOND
    1     1     2    1
    2     1     3    2
    3     1     4    1
    4     4     5    1
    5     4     6    1
    6     4     7    1
    7     7     8    1
    8     7     9    1
    9     7    10    1
   10    10    11    1
   11    10    12    1
   12    10    13    1
   13    13    14    1
   14    13    15    1
   15    13    16    1
   16    16    17    1
   17    16    18    1
   18    16    19    1
   19    19    20    1
   20    19    21    1
   21    19    22    1
   22    22    23    1
   23    22    24    1
   24    22    25    1
@<TRIPOS>SUBSTRUCTURE
       1 MOL1            1 RESIDUE      1      MOL     
@<SCITEGIC>MOL_PROPERTY
VConf Rank
SciTegic.value.IntegerValue
96

@<SCITEGIC>MOL_PROPERTY
Conf_Id
SciTegic.value.IntegerValue
89

@<SCITEGIC>MOL_PROPERTY
Delta U+W
SciTegic.value.DoubleValue
2.903

@<SCITEGIC>MOL_PROPERTY
U+W
SciTegic.value.DoubleValue
-48.726

@<SCITEGIC>MOL_PROPERTY
Grad RMS
SciTegic.value.DoubleValue
0.000000

@<SCITEGIC>MOL_PROPERTY
U
SciTegic.value.DoubleValue
10.996

@<SCITEGIC>MOL_PROPERTY
W
SciTegic.value.DoubleValue
-59.723

@<SCITEGIC>MOL_PROPERTY
W(PB)
SciTegic.value.DoubleValue
-62.151

@<SCITEGIC>MOL_PROPERTY
W(SA)
SciTegic.value.DoubleValue
2.428

@<SCITEGIC>MOL_PROPERTY
Valence
SciTegic.value.DoubleValue
10.985

@<SCITEGIC>MOL_PROPERTY
Coulomb
SciTegic.value.DoubleValue
-0.995

@<SCITEGIC>MOL_PROPERTY
VdW
SciTegic.value.DoubleValue
1.006

@<SCITEGIC>MOL_PROPERTY
VdW6
SciTegic.value.DoubleValue
-10.062

@<SCITEGIC>MOL_PROPERTY
VdW12
SciTegic.value.DoubleValue
11.069

@<SCITEGIC>MOL_PROPERTY
Bond
SciTegic.value.DoubleValue
0.238

@<SCITEGIC>MOL_PROPERTY
Angle
SciTegic.value.DoubleValue
3.202

@<SCITEGIC>MOL_PROPERTY
Pdih
SciTegic.value.DoubleValue
7.544

@<SCITEGIC>MOL_PROPERTY
Idih
SciTegic.value.DoubleValue
0.001

@<SCITEGIC>MOL_PROPERTY
Tether
SciTegic.value.DoubleValue
0.000

@<TRIPOS>MOLECULE
guest-8_confgen4.mol2 : confsearch ligand conformer 97
          25          24           1
SMALL
USER_CHARGES
 
@<TRIPOS>ATOM
       1    C1      20.838416   15.819162   22.401409 C.2        1 MOL1         0.6168
       2    O1      20.932858   16.038574   21.209688 O.co2      1 MOL1        -0.6703
       3    O2      21.769665   15.453073   23.091599 O.co2      1 MOL1        -0.6703
       4    C2      19.461696   15.948803   23.050317 C.3        1 MOL1        -0.1963
       5    H1      19.185020   14.943125   23.387272 H          1 MOL1         0.0750
       6    H2      18.731246   16.234623   22.283818 H          1 MOL1         0.0750
       7    C3      19.386094   16.925051   24.258128 C.3        1 MOL1        -0.1860
       8    H3      18.506868   16.652906   24.857579 H          1 MOL1         0.0752
       9    H4      20.255288   16.778440   24.914315 H          1 MOL1         0.0752
      10    C4      19.252136   18.421450   23.880267 C.3        1 MOL1        -0.1858
      11    H5      19.037592   18.978406   24.800751 H          1 MOL1         0.0752
      12    H6      18.381557   18.560439   23.225036 H          1 MOL1         0.0752
      13    C5      20.511711   19.015775   23.204523 C.3        1 MOL1        -0.1858
      14    H7      21.395645   18.825190   23.828308 H          1 MOL1         0.0752
      15    H8      20.686310   18.502568   22.251124 H          1 MOL1         0.0752
      16    C6      20.398649   20.531049   22.910353 C.3        1 MOL1        -0.1858
      17    H9      19.496547   20.724265   22.313943 H          1 MOL1         0.0752
      18    H10     21.252455   20.826154   22.285187 H          1 MOL1         0.0752
      19    C7      20.384717   21.411010   24.181146 C.3        1 MOL1        -0.1834
      20    H11     19.494161   21.193470   24.784734 H          1 MOL1         0.0752
      21    H12     21.259221   21.176544   24.803606 H          1 MOL1         0.0752
      22    C8      20.395167   22.912322   23.828941 C.3        1 MOL1        -0.2849
      23    H13     19.516180   23.180528   23.228262 H          1 MOL1         0.0764
      24    H14     20.382027   23.523587   24.740661 H          1 MOL1         0.0764
      25    H15     21.294669   23.176077   23.257389 H          1 MOL1         0.0764
@<TRIPOS>BOND
    1     1     2    1
    2     1     3    2
    3     1     4    1
    4     4     5    1
    5     4     6    1
    6     4     7    1
    7     7     8    1
    8     7     9    1
    9     7    10    1
   10    10    11    1
   11    10    12    1
   12    10    13    1
   13    13    14    1
   14    13    15    1
   15    13    16    1
   16    16    17    1
   17    16    18    1
   18    16    19    1
   19    19    20    1
   20    19    21    1
   21    19    22    1
   22    22    23    1
   23    22    24    1
   24    22    25    1
@<TRIPOS>SUBSTRUCTURE
       1 MOL1            1 RESIDUE      1      MOL     
@<SCITEGIC>MOL_PROPERTY
VConf Rank
SciTegic.value.IntegerValue
97

@<SCITEGIC>MOL_PROPERTY
Conf_Id
SciTegic.value.IntegerValue
114

@<SCITEGIC>MOL_PROPERTY
Delta U+W
SciTegic.value.DoubleValue
2.758

@<SCITEGIC>MOL_PROPERTY
U+W
SciTegic.value.DoubleValue
-48.871

@<SCITEGIC>MOL_PROPERTY
Grad RMS
SciTegic.value.DoubleValue
0.000000

@<SCITEGIC>MOL_PROPERTY
U
SciTegic.value.DoubleValue
11.422

@<SCITEGIC>MOL_PROPERTY
W
SciTegic.value.DoubleValue
-60.293

@<SCITEGIC>MOL_PROPERTY
W(PB)
SciTegic.value.DoubleValue
-62.719

@<SCITEGIC>MOL_PROPERTY
W(SA)
SciTegic.value.DoubleValue
2.425

@<SCITEGIC>MOL_PROPERTY
Valence
SciTegic.value.DoubleValue
10.135

@<SCITEGIC>MOL_PROPERTY
Coulomb
SciTegic.value.DoubleValue
0.369

@<SCITEGIC>MOL_PROPERTY
VdW
SciTegic.value.DoubleValue
0.918

@<SCITEGIC>MOL_PROPERTY
VdW6
SciTegic.value.DoubleValue
-10.482

@<SCITEGIC>MOL_PROPERTY
VdW12
SciTegic.value.DoubleValue
11.400

@<SCITEGIC>MOL_PROPERTY
Bond
SciTegic.value.DoubleValue
0.245

@<SCITEGIC>MOL_PROPERTY
Angle
SciTegic.value.DoubleValue
3.539

@<SCITEGIC>MOL_PROPERTY
Pdih
SciTegic.value.DoubleValue
6.346

@<SCITEGIC>MOL_PROPERTY
Idih
SciTegic.value.DoubleValue
0.006

@<SCITEGIC>MOL_PROPERTY
Tether
SciTegic.value.DoubleValue
0.000

@<TRIPOS>MOLECULE
guest-8_confgen4.mol2 : confsearch ligand conformer 98
          25          24           1
SMALL
USER_CHARGES
 
@<TRIPOS>ATOM
       1    C1      18.658996   21.422352   20.792883 C.2        1 MOL1         0.6168
       2    O1      18.634680   22.519999   21.314076 O.co2      1 MOL1        -0.6703
       3    O2      19.283668   21.171792   19.780904 O.co2      1 MOL1        -0.6703
       4    C2      17.844495   20.300601   21.431015 C.3        1 MOL1        -0.1963
       5    H1      17.307354   19.785781   20.625770 H          1 MOL1         0.0750
       6    H2      17.085051   20.747382   22.084014 H          1 MOL1         0.0750
       7    C3      18.697546   19.275729   22.222796 C.3        1 MOL1        -0.1860
       8    H3      18.054603   18.441523   22.534203 H          1 MOL1         0.0752
       9    H4      19.460194   18.856766   21.553345 H          1 MOL1         0.0752
      10    C4      19.364621   19.900684   23.471675 C.3        1 MOL1        -0.1858
      11    H5      18.592565   20.394553   24.077369 H          1 MOL1         0.0752
      12    H6      20.067323   20.688003   23.165665 H          1 MOL1         0.0752
      13    C5      20.100398   18.870461   24.361594 C.3        1 MOL1        -0.1858
      14    H7      20.408272   19.378718   25.284130 H          1 MOL1         0.0752
      15    H8      19.402067   18.077275   24.661116 H          1 MOL1         0.0752
      16    C6      21.342731   18.244205   23.681187 C.3        1 MOL1        -0.1858
      17    H9      22.039040   19.038120   23.378638 H          1 MOL1         0.0752
      18    H10     21.035770   17.731736   22.760744 H          1 MOL1         0.0752
      19    C7      22.081871   17.220368   24.574421 C.3        1 MOL1        -0.1834
      20    H11     21.385327   16.430776   24.888524 H          1 MOL1         0.0752
      21    H12     22.858907   16.727202   23.974218 H          1 MOL1         0.0752
      22    C8      22.744672   17.854415   25.816832 C.3        1 MOL1        -0.2849
      23    H13     23.333739   17.105199   26.361423 H          1 MOL1         0.0764
      24    H14     23.419959   18.670507   25.528570 H          1 MOL1         0.0764
      25    H15     21.995962   18.255374   26.511147 H          1 MOL1         0.0764
@<TRIPOS>BOND
    1     1     2    1
    2     1     3    2
    3     1     4    1
    4     4     5    1
    5     4     6    1
    6     4     7    1
    7     7     8    1
    8     7     9    1
    9     7    10    1
   10    10    11    1
   11    10    12    1
   12    10    13    1
   13    13    14    1
   14    13    15    1
   15    13    16    1
   16    16    17    1
   17    16    18    1
   18    16    19    1
   19    19    20    1
   20    19    21    1
   21    19    22    1
   22    22    23    1
   23    22    24    1
   24    22    25    1
@<TRIPOS>SUBSTRUCTURE
       1 MOL1            1 RESIDUE      1      MOL     
@<SCITEGIC>MOL_PROPERTY
VConf Rank
SciTegic.value.IntegerValue
98

@<SCITEGIC>MOL_PROPERTY
Conf_Id
SciTegic.value.IntegerValue
87

@<SCITEGIC>MOL_PROPERTY
Delta U+W
SciTegic.value.DoubleValue
1.453

@<SCITEGIC>MOL_PROPERTY
U+W
SciTegic.value.DoubleValue
-50.176

@<SCITEGIC>MOL_PROPERTY
Grad RMS
SciTegic.value.DoubleValue
0.000000

@<SCITEGIC>MOL_PROPERTY
U
SciTegic.value.DoubleValue
9.763

@<SCITEGIC>MOL_PROPERTY
W
SciTegic.value.DoubleValue
-59.940

@<SCITEGIC>MOL_PROPERTY
W(PB)
SciTegic.value.DoubleValue
-62.392

@<SCITEGIC>MOL_PROPERTY
W(SA)
SciTegic.value.DoubleValue
2.452

@<SCITEGIC>MOL_PROPERTY
Valence
SciTegic.value.DoubleValue
8.883

@<SCITEGIC>MOL_PROPERTY
Coulomb
SciTegic.value.DoubleValue
-0.122

@<SCITEGIC>MOL_PROPERTY
VdW
SciTegic.value.DoubleValue
1.003

@<SCITEGIC>MOL_PROPERTY
VdW6
SciTegic.value.DoubleValue
-9.782

@<SCITEGIC>MOL_PROPERTY
VdW12
SciTegic.value.DoubleValue
10.785

@<SCITEGIC>MOL_PROPERTY
Bond
SciTegic.value.DoubleValue
0.212

@<SCITEGIC>MOL_PROPERTY
Angle
SciTegic.value.DoubleValue
2.940

@<SCITEGIC>MOL_PROPERTY
Pdih
SciTegic.value.DoubleValue
5.730

@<SCITEGIC>MOL_PROPERTY
Idih
SciTegic.value.DoubleValue
0.001

@<SCITEGIC>MOL_PROPERTY
Tether
SciTegic.value.DoubleValue
0.000

@<TRIPOS>MOLECULE
guest-8_confgen4.mol2 : confsearch ligand conformer 99
          25          24           1
SMALL
USER_CHARGES
 
@<TRIPOS>ATOM
       1    C1      22.310718   16.178004   21.887210 C.2        1 MOL1         0.6168
       2    O1      23.237137   16.792712   21.396734 O.co2      1 MOL1        -0.6703
       3    O2      22.420858   15.070701   22.375566 O.co2      1 MOL1        -0.6703
       4    C2      20.937701   16.840255   21.907545 C.3        1 MOL1        -0.1963
       5    H1      20.178895   16.053870   21.816477 H          1 MOL1         0.0750
       6    H2      20.853417   17.477213   21.018863 H          1 MOL1         0.0750
       7    C3      20.691976   17.675675   23.188030 C.3        1 MOL1        -0.1860
       8    H3      20.787922   17.026926   24.069540 H          1 MOL1         0.0752
       9    H4      21.474252   18.442179   23.267413 H          1 MOL1         0.0752
      10    C4      19.296484   18.341378   23.179663 C.3        1 MOL1        -0.1858
      11    H5      18.532032   17.566930   23.029781 H          1 MOL1         0.0752
      12    H6      19.213892   19.020748   22.321151 H          1 MOL1         0.0752
      13    C5      18.968909   19.103217   24.488339 C.3        1 MOL1        -0.1858
      14    H7      17.944435   19.492823   24.424777 H          1 MOL1         0.0752
      15    H8      18.963203   18.388321   25.322223 H          1 MOL1         0.0752
      16    C6      19.936386   20.264587   24.839093 C.3        1 MOL1        -0.1858
      17    H9      20.929557   19.854670   25.064580 H          1 MOL1         0.0752
      18    H10     19.592885   20.736961   25.769340 H          1 MOL1         0.0752
      19    C7      20.079382   21.355652   23.749479 C.3        1 MOL1        -0.1834
      20    H11     20.803238   22.105281   24.097321 H          1 MOL1         0.0752
      21    H12     20.506313   20.922737   22.835068 H          1 MOL1         0.0752
      22    C8      18.748765   22.065557   23.418518 C.3        1 MOL1        -0.2849
      23    H13     18.295779   22.492222   24.322783 H          1 MOL1         0.0764
      24    H14     18.916212   22.882958   22.705395 H          1 MOL1         0.0764
      25    H15     18.028660   21.371795   22.966756 H          1 MOL1         0.0764
@<TRIPOS>BOND
    1     1     2    1
    2     1     3    2
    3     1     4    1
    4     4     5    1
    5     4     6    1
    6     4     7    1
    7     7     8    1
    8     7     9    1
    9     7    10    1
   10    10    11    1
   11    10    12    1
   12    10    13    1
   13    13    14    1
   14    13    15    1
   15    13    16    1
   16    16    17    1
   17    16    18    1
   18    16    19    1
   19    19    20    1
   20    19    21    1
   21    19    22    1
   22    22    23    1
   23    22    24    1
   24    22    25    1
@<TRIPOS>SUBSTRUCTURE
       1 MOL1            1 RESIDUE      1      MOL     
@<SCITEGIC>MOL_PROPERTY
VConf Rank
SciTegic.value.IntegerValue
99

@<SCITEGIC>MOL_PROPERTY
Conf_Id
SciTegic.value.IntegerValue
29

@<SCITEGIC>MOL_PROPERTY
Delta U+W
SciTegic.value.DoubleValue
0.850

@<SCITEGIC>MOL_PROPERTY
U+W
SciTegic.value.DoubleValue
-50.780

@<SCITEGIC>MOL_PROPERTY
Grad RMS
SciTegic.value.DoubleValue
0.000000

@<SCITEGIC>MOL_PROPERTY
U
SciTegic.value.DoubleValue
8.646

@<SCITEGIC>MOL_PROPERTY
W
SciTegic.value.DoubleValue
-59.426

@<SCITEGIC>MOL_PROPERTY
W(PB)
SciTegic.value.DoubleValue
-61.868

@<SCITEGIC>MOL_PROPERTY
W(SA)
SciTegic.value.DoubleValue
2.442

@<SCITEGIC>MOL_PROPERTY
Valence
SciTegic.value.DoubleValue
8.924

@<SCITEGIC>MOL_PROPERTY
Coulomb
SciTegic.value.DoubleValue
-1.171

@<SCITEGIC>MOL_PROPERTY
VdW
SciTegic.value.DoubleValue
0.894

@<SCITEGIC>MOL_PROPERTY
VdW6
SciTegic.value.DoubleValue
-10.223

@<SCITEGIC>MOL_PROPERTY
VdW12
SciTegic.value.DoubleValue
11.117

@<SCITEGIC>MOL_PROPERTY
Bond
SciTegic.value.DoubleValue
0.231

@<SCITEGIC>MOL_PROPERTY
Angle
SciTegic.value.DoubleValue
3.232

@<SCITEGIC>MOL_PROPERTY
Pdih
SciTegic.value.DoubleValue
5.461

@<SCITEGIC>MOL_PROPERTY
Idih
SciTegic.value.DoubleValue
0.001

@<SCITEGIC>MOL_PROPERTY
Tether
SciTegic.value.DoubleValue
0.000

@<TRIPOS>MOLECULE
guest-8_confgen4.mol2 : confsearch ligand conformer 100
          25          24           1
SMALL
USER_CHARGES
 
@<TRIPOS>ATOM
       1    C1      16.191418   18.070051   23.428769 C.2        1 MOL1         0.6168
       2    O1      16.270501   16.880144   23.195203 O.co2      1 MOL1        -0.6703
       3    O2      15.252148   18.761982   23.088558 O.co2      1 MOL1        -0.6703
       4    C2      17.343217   18.735681   24.173395 C.3        1 MOL1        -0.1963
       5    H1      17.774335   17.999399   24.862306 H          1 MOL1         0.0750
       6    H2      16.930236   19.548049   24.783301 H          1 MOL1         0.0750
       7    C3      18.437311   19.282258   23.223569 C.3        1 MOL1        -0.1860
       8    H3      18.820645   18.455696   22.610678 H          1 MOL1         0.0752
       9    H4      17.989588   20.011636   22.534588 H          1 MOL1         0.0752
      10    C4      19.595838   19.944931   24.004155 C.3        1 MOL1        -0.1858
      11    H5      20.069924   19.206320   24.663778 H          1 MOL1         0.0752
      12    H6      19.184543   20.721829   24.662856 H          1 MOL1         0.0752
      13    C5      20.662877   20.596208   23.088947 C.3        1 MOL1        -0.1858
      14    H7      20.188102   21.396842   22.505813 H          1 MOL1         0.0752
      15    H8      21.413797   21.092550   23.717552 H          1 MOL1         0.0752
      16    C6      21.376408   19.627215   22.109280 C.3        1 MOL1        -0.1858
      17    H9      22.118075   20.196379   21.532675 H          1 MOL1         0.0752
      18    H10     20.651445   19.255385   21.373456 H          1 MOL1         0.0752
      19    C7      22.081825   18.419147   22.773427 C.3        1 MOL1        -0.1834
      20    H11     21.344657   17.784606   23.283110 H          1 MOL1         0.0752
      21    H12     22.525677   17.795940   21.985067 H          1 MOL1         0.0752
      22    C8      23.191063   18.830213   23.765725 C.3        1 MOL1        -0.2849
      23    H13     22.775452   19.366163   24.628262 H          1 MOL1         0.0764
      24    H14     23.715047   17.943617   24.145352 H          1 MOL1         0.0764
      25    H15     23.931291   19.479410   23.280400 H          1 MOL1         0.0764
@<TRIPOS>BOND
    1     1     2    1
    2     1     3    2
    3     1     4    1
    4     4     5    1
    5     4     6    1
    6     4     7    1
    7     7     8    1
    8     7     9    1
    9     7    10    1
   10    10    11    1
   11    10    12    1
   12    10    13    1
   13    13    14    1
   14    13    15    1
   15    13    16    1
   16    16    17    1
   17    16    18    1
   18    16    19    1
   19    19    20    1
   20    19    21    1
   21    19    22    1
   22    22    23    1
   23    22    24    1
   24    22    25    1
@<TRIPOS>SUBSTRUCTURE
       1 MOL1            1 RESIDUE      1      MOL     
@<SCITEGIC>MOL_PROPERTY
VConf Rank
SciTegic.value.IntegerValue
100

@<SCITEGIC>MOL_PROPERTY
Conf_Id
SciTegic.value.IntegerValue
30

@<SCITEGIC>MOL_PROPERTY
Delta U+W
SciTegic.value.DoubleValue
0.843

@<SCITEGIC>MOL_PROPERTY
U+W
SciTegic.value.DoubleValue
-50.787

@<SCITEGIC>MOL_PROPERTY
Grad RMS
SciTegic.value.DoubleValue
0.000000

@<SCITEGIC>MOL_PROPERTY
U
SciTegic.value.DoubleValue
8.647

@<SCITEGIC>MOL_PROPERTY
W
SciTegic.value.DoubleValue
-59.434

@<SCITEGIC>MOL_PROPERTY
W(PB)
SciTegic.value.DoubleValue
-61.861

@<SCITEGIC>MOL_PROPERTY
W(SA)
SciTegic.value.DoubleValue
2.428

@<SCITEGIC>MOL_PROPERTY
Valence
SciTegic.value.DoubleValue
8.924

@<SCITEGIC>MOL_PROPERTY
Coulomb
SciTegic.value.DoubleValue
-1.170

@<SCITEGIC>MOL_PROPERTY
VdW
SciTegic.value.DoubleValue
0.894

@<SCITEGIC>MOL_PROPERTY
VdW6
SciTegic.value.DoubleValue
-10.224

@<SCITEGIC>MOL_PROPERTY
VdW12
SciTegic.value.DoubleValue
11.118

@<SCITEGIC>MOL_PROPERTY
Bond
SciTegic.value.DoubleValue
0.231

@<SCITEGIC>MOL_PROPERTY
Angle
SciTegic.value.DoubleValue
3.232

@<SCITEGIC>MOL_PROPERTY
Pdih
SciTegic.value.DoubleValue
5.460

@<SCITEGIC>MOL_PROPERTY
Idih
SciTegic.value.DoubleValue
0.000

@<SCITEGIC>MOL_PROPERTY
Tether
SciTegic.value.DoubleValue
0.000

@<TRIPOS>MOLECULE
guest-8_confgen4.mol2 : confsearch ligand conformer 101
          25          24           1
SMALL
USER_CHARGES
 
@<TRIPOS>ATOM
       1    C1      20.248620   16.505904   19.259604 C.2        1 MOL1         0.6168
       2    O1      19.743100   17.358354   18.555060 O.co2      1 MOL1        -0.6703
       3    O2      20.589510   15.416759   18.842863 O.co2      1 MOL1        -0.6703
       4    C2      20.478950   16.788161   20.745092 C.3        1 MOL1        -0.1963
       5    H1      21.549305   16.654582   20.941060 H          1 MOL1         0.0750
       6    H2      19.949726   16.012599   21.311070 H          1 MOL1         0.0750
       7    C3      20.027896   18.191614   21.230158 C.3        1 MOL1        -0.1860
       8    H3      20.557184   18.963688   20.654605 H          1 MOL1         0.0752
       9    H4      18.956146   18.321116   21.025008 H          1 MOL1         0.0752
      10    C4      20.296234   18.391980   22.737638 C.3        1 MOL1        -0.1858
      11    H5      21.368218   18.262002   22.940351 H          1 MOL1         0.0752
      12    H6      19.766162   17.619041   23.310984 H          1 MOL1         0.0752
      13    C5      19.846821   19.788682   23.217991 C.3        1 MOL1        -0.1858
      14    H7      20.376760   20.561832   22.644835 H          1 MOL1         0.0752
      15    H8      18.774854   19.918933   23.015447 H          1 MOL1         0.0752
      16    C6      20.114855   19.989685   24.725197 C.3        1 MOL1        -0.1858
      17    H9      21.186787   19.859528   24.927960 H          1 MOL1         0.0752
      18    H10     19.584918   19.216693   25.298559 H          1 MOL1         0.0752
      19    C7      19.665718   21.385752   25.205441 C.3        1 MOL1        -0.1834
      20    H11     20.195209   22.161713   24.635344 H          1 MOL1         0.0752
      21    H12     18.593354   21.518886   25.005948 H          1 MOL1         0.0752
      22    C8      19.935040   21.582555   26.710878 C.3        1 MOL1        -0.2849
      23    H13     21.005613   21.485939   26.934340 H          1 MOL1         0.0764
      24    H14     19.609881   22.579707   27.034987 H          1 MOL1         0.0764
      25    H15     19.391690   20.838291   27.307735 H          1 MOL1         0.0764
@<TRIPOS>BOND
    1     1     2    1
    2     1     3    2
    3     1     4    1
    4     4     5    1
    5     4     6    1
    6     4     7    1
    7     7     8    1
    8     7     9    1
    9     7    10    1
   10    10    11    1
   11    10    12    1
   12    10    13    1
   13    13    14    1
   14    13    15    1
   15    13    16    1
   16    16    17    1
   17    16    18    1
   18    16    19    1
   19    19    20    1
   20    19    21    1
   21    19    22    1
   22    22    23    1
   23    22    24    1
   24    22    25    1
@<TRIPOS>SUBSTRUCTURE
       1 MOL1            1 RESIDUE      1      MOL     
@<SCITEGIC>MOL_PROPERTY
VConf Rank
SciTegic.value.IntegerValue
101

@<SCITEGIC>MOL_PROPERTY
Conf_Id
SciTegic.value.IntegerValue
0

@<SCITEGIC>MOL_PROPERTY
Delta U+W
SciTegic.value.DoubleValue
0.000

@<SCITEGIC>MOL_PROPERTY
U+W
SciTegic.value.DoubleValue
-51.629

@<SCITEGIC>MOL_PROPERTY
Grad RMS
SciTegic.value.DoubleValue
0.000000

@<SCITEGIC>MOL_PROPERTY
U
SciTegic.value.DoubleValue
6.586

@<SCITEGIC>MOL_PROPERTY
W
SciTegic.value.DoubleValue
-58.216

@<SCITEGIC>MOL_PROPERTY
W(PB)
SciTegic.value.DoubleValue
-60.757

@<SCITEGIC>MOL_PROPERTY
W(SA)
SciTegic.value.DoubleValue
2.541

@<SCITEGIC>MOL_PROPERTY
Valence
SciTegic.value.DoubleValue
8.027

@<SCITEGIC>MOL_PROPERTY
Coulomb
SciTegic.value.DoubleValue
-2.892

@<SCITEGIC>MOL_PROPERTY
VdW
SciTegic.value.DoubleValue
1.451

@<SCITEGIC>MOL_PROPERTY
VdW6
SciTegic.value.DoubleValue
-7.931

@<SCITEGIC>MOL_PROPERTY
VdW12
SciTegic.value.DoubleValue
9.383

@<SCITEGIC>MOL_PROPERTY
Bond
SciTegic.value.DoubleValue
0.149

@<SCITEGIC>MOL_PROPERTY
Angle
SciTegic.value.DoubleValue
2.726

@<SCITEGIC>MOL_PROPERTY
Pdih
SciTegic.value.DoubleValue
5.152

@<SCITEGIC>MOL_PROPERTY
Idih
SciTegic.value.DoubleValue
0.000

@<SCITEGIC>MOL_PROPERTY
Tether
SciTegic.value.DoubleValue
0.000

@<TRIPOS>MOLECULE
guest-8_confgen4.mol2 : confsearch ligand conformer 102
          25          24           1
SMALL
USER_CHARGES
 
@<TRIPOS>ATOM
       1    C1      24.222238   21.334675   23.618402 C.2        1 MOL1         0.6168
       2    O1      24.967431   20.830504   24.435176 O.co2      1 MOL1        -0.6703
       3    O2      24.607570   21.905349   22.617167 O.co2      1 MOL1        -0.6703
       4    C2      22.719593   21.225094   23.851063 C.3        1 MOL1        -0.1963
       5    H1      22.244180   22.121264   23.434570 H          1 MOL1         0.0750
       6    H2      22.540749   21.236147   24.932959 H          1 MOL1         0.0750
       7    C3      22.104763   19.951421   23.220378 C.3        1 MOL1        -0.1860
       8    H3      22.303964   19.949184   22.139681 H          1 MOL1         0.0752
       9    H4      22.600647   19.064098   23.637929 H          1 MOL1         0.0752
      10    C4      20.583526   19.863345   23.469587 C.3        1 MOL1        -0.1858
      11    H5      20.090949   20.752263   23.052007 H          1 MOL1         0.0752
      12    H6      20.387712   19.867170   24.550707 H          1 MOL1         0.0752
      13    C5      19.973470   18.592586   22.839928 C.3        1 MOL1        -0.1858
      14    H7      20.169093   18.588577   21.758808 H          1 MOL1         0.0752
      15    H8      20.465891   17.703564   23.257379 H          1 MOL1         0.0752
      16    C6      18.452264   18.503800   23.088783 C.3        1 MOL1        -0.1858
      17    H9      17.959525   19.392649   22.671348 H          1 MOL1         0.0752
      18    H10     18.256313   18.507775   24.169840 H          1 MOL1         0.0752
      19    C7      17.842316   17.233615   22.459535 C.3        1 MOL1        -0.1834
      20    H11     18.034739   17.227069   21.377676 H          1 MOL1         0.0752
      21    H12     18.331497   16.342208   22.876172 H          1 MOL1         0.0752
      22    C8      16.323252   17.148652   22.710192 C.3        1 MOL1        -0.2849
      23    H13     15.906422   16.240185   22.256288 H          1 MOL1         0.0764
      24    H14     16.103451   17.121728   23.785534 H          1 MOL1         0.0764
      25    H15     15.804467   18.013248   22.275759 H          1 MOL1         0.0764
@<TRIPOS>BOND
    1     1     2    1
    2     1     3    2
    3     1     4    1
    4     4     5    1
    5     4     6    1
    6     4     7    1
    7     7     8    1
    8     7     9    1
    9     7    10    1
   10    10    11    1
   11    10    12    1
   12    10    13    1
   13    13    14    1
   14    13    15    1
   15    13    16    1
   16    16    17    1
   17    16    18    1
   18    16    19    1
   19    19    20    1
   20    19    21    1
   21    19    22    1
   22    22    23    1
   23    22    24    1
   24    22    25    1
@<TRIPOS>SUBSTRUCTURE
       1 MOL1            1 RESIDUE      1      MOL     
@<SCITEGIC>MOL_PROPERTY
VConf Rank
SciTegic.value.IntegerValue
102

@<SCITEGIC>MOL_PROPERTY
Conf_Id
SciTegic.value.IntegerValue
27

@<SCITEGIC>MOL_PROPERTY
Delta U+W
SciTegic.value.DoubleValue
-1.297

@<SCITEGIC>MOL_PROPERTY
U+W
SciTegic.value.DoubleValue
-52.926

@<SCITEGIC>MOL_PROPERTY
Grad RMS
SciTegic.value.DoubleValue
0.000000

@<SCITEGIC>MOL_PROPERTY
U
SciTegic.value.DoubleValue
5.617

@<SCITEGIC>MOL_PROPERTY
W
SciTegic.value.DoubleValue
-58.543

@<SCITEGIC>MOL_PROPERTY
W(PB)
SciTegic.value.DoubleValue
-61.065

@<SCITEGIC>MOL_PROPERTY
W(SA)
SciTegic.value.DoubleValue
2.522

@<SCITEGIC>MOL_PROPERTY
Valence
SciTegic.value.DoubleValue
7.531

@<SCITEGIC>MOL_PROPERTY
Coulomb
SciTegic.value.DoubleValue
-2.818

@<SCITEGIC>MOL_PROPERTY
VdW
SciTegic.value.DoubleValue
0.904

@<SCITEGIC>MOL_PROPERTY
VdW6
SciTegic.value.DoubleValue
-7.640

@<SCITEGIC>MOL_PROPERTY
VdW12
SciTegic.value.DoubleValue
8.544

@<SCITEGIC>MOL_PROPERTY
Bond
SciTegic.value.DoubleValue
0.115

@<SCITEGIC>MOL_PROPERTY
Angle
SciTegic.value.DoubleValue
2.271

@<SCITEGIC>MOL_PROPERTY
Pdih
SciTegic.value.DoubleValue
5.144

@<SCITEGIC>MOL_PROPERTY
Idih
SciTegic.value.DoubleValue
0.001

@<SCITEGIC>MOL_PROPERTY
Tether
SciTegic.value.DoubleValue
0.000

@<TRIPOS>MOLECULE
guest-8_confgen4.mol2 : confsearch ligand conformer 103
          25          24           1
SMALL
USER_CHARGES
 
@<TRIPOS>ATOM
       1    C1      21.555281   21.513066   20.409480 C.2        1 MOL1         0.6168
       2    O1      21.376527   21.069113   19.292328 O.co2      1 MOL1        -0.6703
       3    O2      20.995523   22.503255   20.837452 O.co2      1 MOL1        -0.6703
       4    C2      22.550531   20.795713   21.317139 C.3        1 MOL1        -0.1963
       5    H1      22.852830   21.482467   22.117034 H          1 MOL1         0.0750
       6    H2      23.447091   20.588154   20.721250 H          1 MOL1         0.0750
       7    C3      22.012309   19.472894   21.921630 C.3        1 MOL1        -0.1860
       8    H3      21.688093   18.807112   21.109663 H          1 MOL1         0.0752
       9    H4      22.831819   18.959835   22.442900 H          1 MOL1         0.0752
      10    C4      20.845267   19.701894   22.908210 C.3        1 MOL1        -0.1858
      11    H5      20.014113   20.199378   22.389445 H          1 MOL1         0.0752
      12    H6      21.170231   20.378596   23.710392 H          1 MOL1         0.0752
      13    C5      20.346596   18.375776   23.521700 C.3        1 MOL1        -0.1858
      14    H7      20.021848   17.699777   22.718798 H          1 MOL1         0.0752
      15    H8      21.175369   17.877977   24.043590 H          1 MOL1         0.0752
      16    C6      19.179911   18.603743   24.506960 C.3        1 MOL1        -0.1858
      17    H9      18.351049   19.101626   23.985205 H          1 MOL1         0.0752
      18    H10     19.504341   19.280011   25.309761 H          1 MOL1         0.0752
      19    C7      18.680775   17.278463   25.120040 C.3        1 MOL1        -0.1834
      20    H11     18.353662   16.600133   24.319822 H          1 MOL1         0.0752
      21    H12     19.506929   16.778545   25.644474 H          1 MOL1         0.0752
      22    C8      17.515714   17.510478   26.103100 C.3        1 MOL1        -0.2849
      23    H13     16.662671   17.981329   25.597121 H          1 MOL1         0.0764
      24    H14     17.173574   16.558407   26.529223 H          1 MOL1         0.0764
      25    H15     17.824591   18.161131   26.931739 H          1 MOL1         0.0764
@<TRIPOS>BOND
    1     1     2    1
    2     1     3    2
    3     1     4    1
    4     4     5    1
    5     4     6    1
    6     4     7    1
    7     7     8    1
    8     7     9    1
    9     7    10    1
   10    10    11    1
   11    10    12    1
   12    10    13    1
   13    13    14    1
   14    13    15    1
   15    13    16    1
   16    16    17    1
   17    16    18    1
   18    16    19    1
   19    19    20    1
   20    19    21    1
   21    19    22    1
   22    22    23    1
   23    22    24    1
   24    22    25    1
@<TRIPOS>SUBSTRUCTURE
       1 MOL1            1 RESIDUE      1      MOL     
@<SCITEGIC>MOL_PROPERTY
VConf Rank
SciTegic.value.IntegerValue
103

@<SCITEGIC>MOL_PROPERTY
Conf_Id
SciTegic.value.IntegerValue
37

@<SCITEGIC>MOL_PROPERTY
Delta U+W
SciTegic.value.DoubleValue
-0.230

@<SCITEGIC>MOL_PROPERTY
U+W
SciTegic.value.DoubleValue
-51.860

@<SCITEGIC>MOL_PROPERTY
Grad RMS
SciTegic.value.DoubleValue
0.000000

@<SCITEGIC>MOL_PROPERTY
U
SciTegic.value.DoubleValue
7.816

@<SCITEGIC>MOL_PROPERTY
W
SciTegic.value.DoubleValue
-59.675

@<SCITEGIC>MOL_PROPERTY
W(PB)
SciTegic.value.DoubleValue
-62.180

@<SCITEGIC>MOL_PROPERTY
W(SA)
SciTegic.value.DoubleValue
2.505

@<SCITEGIC>MOL_PROPERTY
Valence
SciTegic.value.DoubleValue
7.785

@<SCITEGIC>MOL_PROPERTY
Coulomb
SciTegic.value.DoubleValue
-0.713

@<SCITEGIC>MOL_PROPERTY
VdW
SciTegic.value.DoubleValue
0.744

@<SCITEGIC>MOL_PROPERTY
VdW6
SciTegic.value.DoubleValue
-8.514

@<SCITEGIC>MOL_PROPERTY
VdW12
SciTegic.value.DoubleValue
9.259

@<SCITEGIC>MOL_PROPERTY
Bond
SciTegic.value.DoubleValue
0.136

@<SCITEGIC>MOL_PROPERTY
Angle
SciTegic.value.DoubleValue
2.433

@<SCITEGIC>MOL_PROPERTY
Pdih
SciTegic.value.DoubleValue
5.216

@<SCITEGIC>MOL_PROPERTY
Idih
SciTegic.value.DoubleValue
0.000

@<SCITEGIC>MOL_PROPERTY
Tether
SciTegic.value.DoubleValue
0.000

@<TRIPOS>MOLECULE
guest-8_confgen4.mol2 : confsearch ligand conformer 104
          25          24           1
SMALL
USER_CHARGES
 
@<TRIPOS>ATOM
       1    C1      23.931750   20.056071   23.738231 C.2        1 MOL1         0.6168
       2    O1      24.522588   20.136851   22.679241 O.co2      1 MOL1        -0.6703
       3    O2      24.113448   19.164335   24.543684 O.co2      1 MOL1        -0.6703
       4    C2      22.918104   21.144350   24.080487 C.3        1 MOL1        -0.1963
       5    H1      23.383234   22.109923   23.849610 H          1 MOL1         0.0750
       6    H2      22.739422   21.128558   25.162462 H          1 MOL1         0.0750
       7    C3      21.575863   21.019173   23.313893 C.3        1 MOL1        -0.1860
       8    H3      20.966199   21.910514   23.514820 H          1 MOL1         0.0752
       9    H4      21.773734   21.008463   22.232966 H          1 MOL1         0.0752
      10    C4      20.779252   19.756580   23.712686 C.3        1 MOL1        -0.1858
      11    H5      20.595628   19.765373   24.795843 H          1 MOL1         0.0752
      12    H6      21.376087   18.859200   23.498398 H          1 MOL1         0.0752
      13    C5      19.433303   19.668734   22.961464 C.3        1 MOL1        -0.1858
      14    H7      18.833530   20.563738   23.176582 H          1 MOL1         0.0752
      15    H8      19.617960   19.659877   21.878454 H          1 MOL1         0.0752
      16    C6      18.637085   18.407018   23.358914 C.3        1 MOL1        -0.1858
      17    H9      18.452570   18.415531   24.441948 H          1 MOL1         0.0752
      18    H10     19.236804   17.511885   23.143970 H          1 MOL1         0.0752
      19    C7      17.291945   18.318454   22.607835 C.3        1 MOL1        -0.1834
      20    H11     16.688569   19.211514   22.821982 H          1 MOL1         0.0752
      21    H12     17.472838   18.307756   21.524024 H          1 MOL1         0.0752
      22    C8      16.500038   17.057211   23.007526 C.3        1 MOL1        -0.2849
      23    H13     16.277635   17.057332   24.082668 H          1 MOL1         0.0764
      24    H14     15.547209   17.010304   22.464388 H          1 MOL1         0.0764
      25    H15     17.067862   16.146770   22.774996 H          1 MOL1         0.0764
@<TRIPOS>BOND
    1     1     2    1
    2     1     3    2
    3     1     4    1
    4     4     5    1
    5     4     6    1
    6     4     7    1
    7     7     8    1
    8     7     9    1
    9     7    10    1
   10    10    11    1
   11    10    12    1
   12    10    13    1
   13    13    14    1
   14    13    15    1
   15    13    16    1
   16    16    17    1
   17    16    18    1
   18    16    19    1
   19    19    20    1
   20    19    21    1
   21    19    22    1
   22    22    23    1
   23    22    24    1
   24    22    25    1
@<TRIPOS>SUBSTRUCTURE
       1 MOL1            1 RESIDUE      1      MOL     
@<SCITEGIC>MOL_PROPERTY
VConf Rank
SciTegic.value.IntegerValue
104

@<SCITEGIC>MOL_PROPERTY
Conf_Id
SciTegic.value.IntegerValue
54

@<SCITEGIC>MOL_PROPERTY
Delta U+W
SciTegic.value.DoubleValue
-0.224

@<SCITEGIC>MOL_PROPERTY
U+W
SciTegic.value.DoubleValue
-51.854

@<SCITEGIC>MOL_PROPERTY
Grad RMS
SciTegic.value.DoubleValue
0.000000

@<SCITEGIC>MOL_PROPERTY
U
SciTegic.value.DoubleValue
7.816

@<SCITEGIC>MOL_PROPERTY
W
SciTegic.value.DoubleValue
-59.670

@<SCITEGIC>MOL_PROPERTY
W(PB)
SciTegic.value.DoubleValue
-62.157

@<SCITEGIC>MOL_PROPERTY
W(SA)
SciTegic.value.DoubleValue
2.487

@<SCITEGIC>MOL_PROPERTY
Valence
SciTegic.value.DoubleValue
7.785

@<SCITEGIC>MOL_PROPERTY
Coulomb
SciTegic.value.DoubleValue
-0.713

@<SCITEGIC>MOL_PROPERTY
VdW
SciTegic.value.DoubleValue
0.744

@<SCITEGIC>MOL_PROPERTY
VdW6
SciTegic.value.DoubleValue
-8.515

@<SCITEGIC>MOL_PROPERTY
VdW12
SciTegic.value.DoubleValue
9.259

@<SCITEGIC>MOL_PROPERTY
Bond
SciTegic.value.DoubleValue
0.136

@<SCITEGIC>MOL_PROPERTY
Angle
SciTegic.value.DoubleValue
2.433

@<SCITEGIC>MOL_PROPERTY
Pdih
SciTegic.value.DoubleValue
5.215

@<SCITEGIC>MOL_PROPERTY
Idih
SciTegic.value.DoubleValue
0.000

@<SCITEGIC>MOL_PROPERTY
Tether
SciTegic.value.DoubleValue
0.000

@<TRIPOS>MOLECULE
guest-8_confgen4.mol2 : confsearch ligand conformer 105
          25          24           1
SMALL
USER_CHARGES
 
@<TRIPOS>ATOM
       1    C1      20.717928   15.339284   21.972078 C.2        1 MOL1         0.6168
       2    O1      19.664673   15.028269   21.451525 O.co2      1 MOL1        -0.6703
       3    O2      21.799027   15.210259   21.432000 O.co2      1 MOL1        -0.6703
       4    C2      20.685059   15.905893   23.388785 C.3        1 MOL1        -0.1963
       5    H1      21.462860   15.390902   23.964789 H          1 MOL1         0.0750
       6    H2      19.724208   15.644787   23.848590 H          1 MOL1         0.0750
       7    C3      20.915310   17.437947   23.462678 C.3        1 MOL1        -0.1860
       8    H3      21.029947   17.720586   24.516612 H          1 MOL1         0.0752
       9    H4      21.860892   17.688116   22.961989 H          1 MOL1         0.0752
      10    C4      19.756109   18.243844   22.828063 C.3        1 MOL1        -0.1858
      11    H5      18.819044   18.027536   23.359003 H          1 MOL1         0.0752
      12    H6      19.609054   17.906662   21.792853 H          1 MOL1         0.0752
      13    C5      20.000976   19.771799   22.809345 C.3        1 MOL1        -0.1858
      14    H7      20.947512   19.986194   22.294875 H          1 MOL1         0.0752
      15    H8      19.208310   20.233708   22.207274 H          1 MOL1         0.0752
      16    C6      20.014211   20.413613   24.218859 C.3        1 MOL1        -0.1858
      17    H9      20.810906   19.958547   24.820578 H          1 MOL1         0.0752
      18    H10     19.069485   20.194587   24.734744 H          1 MOL1         0.0752
      19    C7      20.248154   21.942406   24.195451 C.3        1 MOL1        -0.1834
      20    H11     20.381072   22.293138   25.228197 H          1 MOL1         0.0752
      21    H12     21.186298   22.166359   23.669113 H          1 MOL1         0.0752
      22    C8      19.088085   22.731931   23.550604 C.3        1 MOL1        -0.2849
      23    H13     18.993374   22.505638   22.481387 H          1 MOL1         0.0764
      24    H14     18.133433   22.496833   24.038947 H          1 MOL1         0.0764
      25    H15     19.259441   23.811897   23.646610 H          1 MOL1         0.0764
@<TRIPOS>BOND
    1     1     2    1
    2     1     3    2
    3     1     4    1
    4     4     5    1
    5     4     6    1
    6     4     7    1
    7     7     8    1
    8     7     9    1
    9     7    10    1
   10    10    11    1
   11    10    12    1
   12    10    13    1
   13    13    14    1
   14    13    15    1
   15    13    16    1
   16    16    17    1
   17    16    18    1
   18    16    19    1
   19    19    20    1
   20    19    21    1
   21    19    22    1
   22    22    23    1
   23    22    24    1
   24    22    25    1
@<TRIPOS>SUBSTRUCTURE
       1 MOL1            1 RESIDUE      1      MOL     
@<SCITEGIC>MOL_PROPERTY
VConf Rank
SciTegic.value.IntegerValue
105

@<SCITEGIC>MOL_PROPERTY
Conf_Id
SciTegic.value.IntegerValue
101

@<SCITEGIC>MOL_PROPERTY
Delta U+W
SciTegic.value.DoubleValue
1.534

@<SCITEGIC>MOL_PROPERTY
U+W
SciTegic.value.DoubleValue
-50.095

@<SCITEGIC>MOL_PROPERTY
Grad RMS
SciTegic.value.DoubleValue
0.000000

@<SCITEGIC>MOL_PROPERTY
U
SciTegic.value.DoubleValue
9.416

@<SCITEGIC>MOL_PROPERTY
W
SciTegic.value.DoubleValue
-59.512

@<SCITEGIC>MOL_PROPERTY
W(PB)
SciTegic.value.DoubleValue
-61.988

@<SCITEGIC>MOL_PROPERTY
W(SA)
SciTegic.value.DoubleValue
2.476

@<SCITEGIC>MOL_PROPERTY
Valence
SciTegic.value.DoubleValue
8.939

@<SCITEGIC>MOL_PROPERTY
Coulomb
SciTegic.value.DoubleValue
-0.615

@<SCITEGIC>MOL_PROPERTY
VdW
SciTegic.value.DoubleValue
1.092

@<SCITEGIC>MOL_PROPERTY
VdW6
SciTegic.value.DoubleValue
-9.710

@<SCITEGIC>MOL_PROPERTY
VdW12
SciTegic.value.DoubleValue
10.802

@<SCITEGIC>MOL_PROPERTY
Bond
SciTegic.value.DoubleValue
0.216

@<SCITEGIC>MOL_PROPERTY
Angle
SciTegic.value.DoubleValue
2.979

@<SCITEGIC>MOL_PROPERTY
Pdih
SciTegic.value.DoubleValue
5.743

@<SCITEGIC>MOL_PROPERTY
Idih
SciTegic.value.DoubleValue
0.000

@<SCITEGIC>MOL_PROPERTY
Tether
SciTegic.value.DoubleValue
0.000

@<TRIPOS>MOLECULE
guest-8_confgen4.mol2 : confsearch ligand conformer 106
          25          24           1
SMALL
USER_CHARGES
 
@<TRIPOS>ATOM
       1    C1      20.547064   17.514646   27.081452 C.2        1 MOL1         0.6168
       2    O1      19.714392   16.636732   27.193979 O.co2      1 MOL1        -0.6703
       3    O2      21.550137   17.582363   27.764120 O.co2      1 MOL1        -0.6703
       4    C2      20.332942   18.577216   26.009415 C.3        1 MOL1        -0.1963
       5    H1      20.775010   19.514763   26.367074 H          1 MOL1         0.0750
       6    H2      19.253786   18.741084   25.914906 H          1 MOL1         0.0750
       7    C3      20.949813   18.181900   24.642392 C.3        1 MOL1        -0.1860
       8    H3      22.008574   17.930439   24.794775 H          1 MOL1         0.0752
       9    H4      20.465112   17.268656   24.270439 H          1 MOL1         0.0752
      10    C4      20.856017   19.296432   23.572939 C.3        1 MOL1        -0.1858
      11    H5      21.439815   18.977727   22.699957 H          1 MOL1         0.0752
      12    H6      21.332532   20.211184   23.950733 H          1 MOL1         0.0752
      13    C5      19.404189   19.606145   23.132289 C.3        1 MOL1        -0.1858
      14    H7      18.928196   18.692173   22.754001 H          1 MOL1         0.0752
      15    H8      18.816100   19.916866   24.004827 H          1 MOL1         0.0752
      16    C6      19.306595   20.731770   22.071252 C.3        1 MOL1        -0.1858
      17    H9      19.708857   21.659816   22.499729 H          1 MOL1         0.0752
      18    H10     18.245567   20.928639   21.865995 H          1 MOL1         0.0752
      19    C7      20.027897   20.448366   20.730034 C.3        1 MOL1        -0.1834
      20    H11     19.889535   21.315410   20.069629 H          1 MOL1         0.0752
      21    H12     21.110375   20.361882   20.891603 H          1 MOL1         0.0752
      22    C8      19.506213   19.187022   20.008370 C.3        1 MOL1        -0.2849
      23    H13     18.420238   19.241291   19.857738 H          1 MOL1         0.0764
      24    H14     19.980139   19.083929   19.023721 H          1 MOL1         0.0764
      25    H15     19.730207   18.278675   20.581791 H          1 MOL1         0.0764
@<TRIPOS>BOND
    1     1     2    1
    2     1     3    2
    3     1     4    1
    4     4     5    1
    5     4     6    1
    6     4     7    1
    7     7     8    1
    8     7     9    1
    9     7    10    1
   10    10    11    1
   11    10    12    1
   12    10    13    1
   13    13    14    1
   14    13    15    1
   15    13    16    1
   16    16    17    1
   17    16    18    1
   18    16    19    1
   19    19    20    1
   20    19    21    1
   21    19    22    1
   22    22    23    1
   23    22    24    1
   24    22    25    1
@<TRIPOS>SUBSTRUCTURE
       1 MOL1            1 RESIDUE      1      MOL     
@<SCITEGIC>MOL_PROPERTY
VConf Rank
SciTegic.value.IntegerValue
106

@<SCITEGIC>MOL_PROPERTY
Conf_Id
SciTegic.value.IntegerValue
75

@<SCITEGIC>MOL_PROPERTY
Delta U+W
SciTegic.value.DoubleValue
1.014

@<SCITEGIC>MOL_PROPERTY
U+W
SciTegic.value.DoubleValue
-50.615

@<SCITEGIC>MOL_PROPERTY
Grad RMS
SciTegic.value.DoubleValue
0.000000

@<SCITEGIC>MOL_PROPERTY
U
SciTegic.value.DoubleValue
8.474

@<SCITEGIC>MOL_PROPERTY
W
SciTegic.value.DoubleValue
-59.089

@<SCITEGIC>MOL_PROPERTY
W(PB)
SciTegic.value.DoubleValue
-61.530

@<SCITEGIC>MOL_PROPERTY
W(SA)
SciTegic.value.DoubleValue
2.441

@<SCITEGIC>MOL_PROPERTY
Valence
SciTegic.value.DoubleValue
9.080

@<SCITEGIC>MOL_PROPERTY
Coulomb
SciTegic.value.DoubleValue
-1.772

@<SCITEGIC>MOL_PROPERTY
VdW
SciTegic.value.DoubleValue
1.165

@<SCITEGIC>MOL_PROPERTY
VdW6
SciTegic.value.DoubleValue
-9.830

@<SCITEGIC>MOL_PROPERTY
VdW12
SciTegic.value.DoubleValue
10.996

@<SCITEGIC>MOL_PROPERTY
Bond
SciTegic.value.DoubleValue
0.240

@<SCITEGIC>MOL_PROPERTY
Angle
SciTegic.value.DoubleValue
3.225

@<SCITEGIC>MOL_PROPERTY
Pdih
SciTegic.value.DoubleValue
5.615

@<SCITEGIC>MOL_PROPERTY
Idih
SciTegic.value.DoubleValue
0.001

@<SCITEGIC>MOL_PROPERTY
Tether
SciTegic.value.DoubleValue
0.000

@<TRIPOS>MOLECULE
guest-8_confgen4.mol2 : confsearch ligand conformer 107
          25          24           1
SMALL
USER_CHARGES
 
@<TRIPOS>ATOM
       1    C1      23.973339   19.883882   24.820124 C.2        1 MOL1         0.6168
       2    O1      24.621142   18.862524   24.702517 O.co2      1 MOL1        -0.6703
       3    O2      24.467485   20.993086   24.866554 O.co2      1 MOL1        -0.6703
       4    C2      22.454888   19.768878   24.891966 C.3        1 MOL1        -0.1963
       5    H1      22.081556   20.579597   25.529083 H          1 MOL1         0.0750
       6    H2      22.208084   18.824165   25.391176 H          1 MOL1         0.0750
       7    C3      21.780477   19.829562   23.499282 C.3        1 MOL1        -0.1860
       8    H3      22.047686   20.775117   23.007327 H          1 MOL1         0.0752
       9    H4      22.174716   19.019705   22.869804 H          1 MOL1         0.0752
      10    C4      20.244296   19.709459   23.598649 C.3        1 MOL1        -0.1858
      11    H5      19.854805   20.520498   24.228986 H          1 MOL1         0.0752
      12    H6      19.985927   18.769473   24.100532 H          1 MOL1         0.0752
      13    C5      19.575056   19.776654   22.205689 C.3        1 MOL1        -0.1858
      14    H7      19.830877   20.742889   21.749771 H          1 MOL1         0.0752
      15    H8      19.991957   19.005744   21.543337 H          1 MOL1         0.0752
      16    C6      18.030994   19.652462   22.259319 C.3        1 MOL1        -0.1858
      17    H9      17.608964   20.305253   21.483032 H          1 MOL1         0.0752
      18    H10     17.650316   20.040057   23.214144 H          1 MOL1         0.0752
      19    C7      17.488187   18.223252   22.011079 C.3        1 MOL1        -0.1834
      20    H11     16.390511   18.266165   21.990139 H          1 MOL1         0.0752
      21    H12     17.800997   17.878419   21.015851 H          1 MOL1         0.0752
      22    C8      17.921988   17.189041   23.070604 C.3        1 MOL1        -0.2849
      23    H13     17.681591   17.537628   24.083352 H          1 MOL1         0.0764
      24    H14     17.405129   16.234285   22.909192 H          1 MOL1         0.0764
      25    H15     19.000212   16.994251   23.014789 H          1 MOL1         0.0764
@<TRIPOS>BOND
    1     1     2    1
    2     1     3    2
    3     1     4    1
    4     4     5    1
    5     4     6    1
    6     4     7    1
    7     7     8    1
    8     7     9    1
    9     7    10    1
   10    10    11    1
   11    10    12    1
   12    10    13    1
   13    13    14    1
   14    13    15    1
   15    13    16    1
   16    16    17    1
   17    16    18    1
   18    16    19    1
   19    19    20    1
   20    19    21    1
   21    19    22    1
   22    22    23    1
   23    22    24    1
   24    22    25    1
@<TRIPOS>SUBSTRUCTURE
       1 MOL1            1 RESIDUE      1      MOL     
@<SCITEGIC>MOL_PROPERTY
VConf Rank
SciTegic.value.IntegerValue
107

@<SCITEGIC>MOL_PROPERTY
Conf_Id
SciTegic.value.IntegerValue
125

@<SCITEGIC>MOL_PROPERTY
Delta U+W
SciTegic.value.DoubleValue
2.314

@<SCITEGIC>MOL_PROPERTY
U+W
SciTegic.value.DoubleValue
-49.315

@<SCITEGIC>MOL_PROPERTY
Grad RMS
SciTegic.value.DoubleValue
0.000000

@<SCITEGIC>MOL_PROPERTY
U
SciTegic.value.DoubleValue
9.740

@<SCITEGIC>MOL_PROPERTY
W
SciTegic.value.DoubleValue
-59.054

@<SCITEGIC>MOL_PROPERTY
W(PB)
SciTegic.value.DoubleValue
-61.488

@<SCITEGIC>MOL_PROPERTY
W(SA)
SciTegic.value.DoubleValue
2.433

@<SCITEGIC>MOL_PROPERTY
Valence
SciTegic.value.DoubleValue
10.506

@<SCITEGIC>MOL_PROPERTY
Coulomb
SciTegic.value.DoubleValue
-1.761

@<SCITEGIC>MOL_PROPERTY
VdW
SciTegic.value.DoubleValue
0.994

@<SCITEGIC>MOL_PROPERTY
VdW6
SciTegic.value.DoubleValue
-9.209

@<SCITEGIC>MOL_PROPERTY
VdW12
SciTegic.value.DoubleValue
10.203

@<SCITEGIC>MOL_PROPERTY
Bond
SciTegic.value.DoubleValue
0.193

@<SCITEGIC>MOL_PROPERTY
Angle
SciTegic.value.DoubleValue
2.979

@<SCITEGIC>MOL_PROPERTY
Pdih
SciTegic.value.DoubleValue
7.334

@<SCITEGIC>MOL_PROPERTY
Idih
SciTegic.value.DoubleValue
0.001

@<SCITEGIC>MOL_PROPERTY
Tether
SciTegic.value.DoubleValue
0.000

@<TRIPOS>MOLECULE
guest-8_confgen4.mol2 : confsearch ligand conformer 108
          25          24           1
SMALL
USER_CHARGES
 
@<TRIPOS>ATOM
       1    C1      22.391591   17.561337   20.301016 C.2        1 MOL1         0.6168
       2    O1      22.102587   18.197065   19.306521 O.co2      1 MOL1        -0.6703
       3    O2      23.104636   16.577405   20.287321 O.co2      1 MOL1        -0.6703
       4    C2      21.807899   18.008526   21.636435 C.3        1 MOL1        -0.1963
       5    H1      21.719911   19.100493   21.612208 H          1 MOL1         0.0750
       6    H2      22.528377   17.756952   22.423821 H          1 MOL1         0.0750
       7    C3      20.434246   17.355320   21.939160 C.3        1 MOL1        -0.1860
       8    H3      19.708972   17.652665   21.169165 H          1 MOL1         0.0752
       9    H4      20.538237   16.264127   21.862163 H          1 MOL1         0.0752
      10    C4      19.880005   17.702474   23.341463 C.3        1 MOL1        -0.1858
      11    H5      20.603068   17.395243   24.109422 H          1 MOL1         0.0752
      12    H6      18.972284   17.108091   23.513689 H          1 MOL1         0.0752
      13    C5      19.541193   19.201203   23.515281 C.3        1 MOL1        -0.1858
      14    H7      20.454995   19.798716   23.412467 H          1 MOL1         0.0752
      15    H8      18.856724   19.517725   22.716607 H          1 MOL1         0.0752
      16    C6      18.894051   19.482813   24.891183 C.3        1 MOL1        -0.1858
      17    H9      19.594988   19.210865   25.692194 H          1 MOL1         0.0752
      18    H10     18.015673   18.834391   25.013026 H          1 MOL1         0.0752
      19    C7      18.447186   20.952349   25.071716 C.3        1 MOL1        -0.1834
      20    H11     17.741650   21.226145   24.275122 H          1 MOL1         0.0752
      21    H12     17.895415   21.039004   26.017901 H          1 MOL1         0.0752
      22    C8      19.623949   21.952095   25.089626 C.3        1 MOL1        -0.2849
      23    H13     20.135688   21.986314   24.119760 H          1 MOL1         0.0764
      24    H14     19.263494   22.965108   25.310470 H          1 MOL1         0.0764
      25    H15     20.359130   21.679985   25.858114 H          1 MOL1         0.0764
@<TRIPOS>BOND
    1     1     2    1
    2     1     3    2
    3     1     4    1
    4     4     5    1
    5     4     6    1
    6     4     7    1
    7     7     8    1
    8     7     9    1
    9     7    10    1
   10    10    11    1
   11    10    12    1
   12    10    13    1
   13    13    14    1
   14    13    15    1
   15    13    16    1
   16    16    17    1
   17    16    18    1
   18    16    19    1
   19    19    20    1
   20    19    21    1
   21    19    22    1
   22    22    23    1
   23    22    24    1
   24    22    25    1
@<TRIPOS>SUBSTRUCTURE
       1 MOL1            1 RESIDUE      1      MOL     
@<SCITEGIC>MOL_PROPERTY
VConf Rank
SciTegic.value.IntegerValue
108

@<SCITEGIC>MOL_PROPERTY
Conf_Id
SciTegic.value.IntegerValue
4

@<SCITEGIC>MOL_PROPERTY
Delta U+W
SciTegic.value.DoubleValue
0.189

@<SCITEGIC>MOL_PROPERTY
U+W
SciTegic.value.DoubleValue
-51.441

@<SCITEGIC>MOL_PROPERTY
Grad RMS
SciTegic.value.DoubleValue
0.000000

@<SCITEGIC>MOL_PROPERTY
U
SciTegic.value.DoubleValue
7.701

@<SCITEGIC>MOL_PROPERTY
W
SciTegic.value.DoubleValue
-59.141

@<SCITEGIC>MOL_PROPERTY
W(PB)
SciTegic.value.DoubleValue
-61.609

@<SCITEGIC>MOL_PROPERTY
W(SA)
SciTegic.value.DoubleValue
2.467

@<SCITEGIC>MOL_PROPERTY
Valence
SciTegic.value.DoubleValue
8.550

@<SCITEGIC>MOL_PROPERTY
Coulomb
SciTegic.value.DoubleValue
-1.988

@<SCITEGIC>MOL_PROPERTY
VdW
SciTegic.value.DoubleValue
1.139

@<SCITEGIC>MOL_PROPERTY
VdW6
SciTegic.value.DoubleValue
-8.988

@<SCITEGIC>MOL_PROPERTY
VdW12
SciTegic.value.DoubleValue
10.127

@<SCITEGIC>MOL_PROPERTY
Bond
SciTegic.value.DoubleValue
0.191

@<SCITEGIC>MOL_PROPERTY
Angle
SciTegic.value.DoubleValue
2.738

@<SCITEGIC>MOL_PROPERTY
Pdih
SciTegic.value.DoubleValue
5.621

@<SCITEGIC>MOL_PROPERTY
Idih
SciTegic.value.DoubleValue
0.001

@<SCITEGIC>MOL_PROPERTY
Tether
SciTegic.value.DoubleValue
0.000

@<TRIPOS>MOLECULE
guest-8_confgen4.mol2 : confsearch ligand conformer 109
          25          24           1
SMALL
USER_CHARGES
 
@<TRIPOS>ATOM
       1    C1      18.848782   19.665645   27.183860 C.2        1 MOL1         0.6168
       2    O1      18.148544   18.701313   27.421400 O.co2      1 MOL1        -0.6703
       3    O2      19.197952   20.468027   28.027070 O.co2      1 MOL1        -0.6703
       4    C2      19.335660   19.867195   25.753353 C.3        1 MOL1        -0.1963
       5    H1      19.435966   20.944763   25.576878 H          1 MOL1         0.0750
       6    H2      18.553400   19.498341   25.080496 H          1 MOL1         0.0750
       7    C3      20.682165   19.151014   25.471842 C.3        1 MOL1        -0.1860
       8    H3      21.416677   19.473556   26.222778 H          1 MOL1         0.0752
       9    H4      20.556642   18.067739   25.606342 H          1 MOL1         0.0752
      10    C4      21.253855   19.440289   24.063422 C.3        1 MOL1        -0.1858
      11    H5      22.255221   18.993495   23.995943 H          1 MOL1         0.0752
      12    H6      21.387454   20.523256   23.935726 H          1 MOL1         0.0752
      13    C5      20.376407   18.885297   22.917446 C.3        1 MOL1        -0.1858
      14    H7      20.203173   17.812060   23.074655 H          1 MOL1         0.0752
      15    H8      19.395907   19.376160   22.934808 H          1 MOL1         0.0752
      16    C6      21.037483   19.104490   21.536817 C.3        1 MOL1        -0.1858
      17    H9      22.044321   18.665184   21.548291 H          1 MOL1         0.0752
      18    H10     21.169426   20.180115   21.356512 H          1 MOL1         0.0752
      19    C7      20.242603   18.477700   20.367579 C.3        1 MOL1        -0.1834
      20    H11     20.835198   18.573759   19.447345 H          1 MOL1         0.0752
      21    H12     20.113286   17.400610   20.542112 H          1 MOL1         0.0752
      22    C8      18.864361   19.136545   20.141839 C.3        1 MOL1        -0.2849
      23    H13     18.965751   20.219914   19.996436 H          1 MOL1         0.0764
      24    H14     18.381355   18.719491   19.248717 H          1 MOL1         0.0764
      25    H15     18.193475   18.964226   20.992665 H          1 MOL1         0.0764
@<TRIPOS>BOND
    1     1     2    1
    2     1     3    2
    3     1     4    1
    4     4     5    1
    5     4     6    1
    6     4     7    1
    7     7     8    1
    8     7     9    1
    9     7    10    1
   10    10    11    1
   11    10    12    1
   12    10    13    1
   13    13    14    1
   14    13    15    1
   15    13    16    1
   16    16    17    1
   17    16    18    1
   18    16    19    1
   19    19    20    1
   20    19    21    1
   21    19    22    1
   22    22    23    1
   23    22    24    1
   24    22    25    1
@<TRIPOS>SUBSTRUCTURE
       1 MOL1            1 RESIDUE      1      MOL     
@<SCITEGIC>MOL_PROPERTY
VConf Rank
SciTegic.value.IntegerValue
109

@<SCITEGIC>MOL_PROPERTY
Conf_Id
SciTegic.value.IntegerValue
17

@<SCITEGIC>MOL_PROPERTY
Delta U+W
SciTegic.value.DoubleValue
0.219

@<SCITEGIC>MOL_PROPERTY
U+W
SciTegic.value.DoubleValue
-51.411

@<SCITEGIC>MOL_PROPERTY
Grad RMS
SciTegic.value.DoubleValue
0.000000

@<SCITEGIC>MOL_PROPERTY
U
SciTegic.value.DoubleValue
7.701

@<SCITEGIC>MOL_PROPERTY
W
SciTegic.value.DoubleValue
-59.111

@<SCITEGIC>MOL_PROPERTY
W(PB)
SciTegic.value.DoubleValue
-61.599

@<SCITEGIC>MOL_PROPERTY
W(SA)
SciTegic.value.DoubleValue
2.488

@<SCITEGIC>MOL_PROPERTY
Valence
SciTegic.value.DoubleValue
8.550

@<SCITEGIC>MOL_PROPERTY
Coulomb
SciTegic.value.DoubleValue
-1.988

@<SCITEGIC>MOL_PROPERTY
VdW
SciTegic.value.DoubleValue
1.139

@<SCITEGIC>MOL_PROPERTY
VdW6
SciTegic.value.DoubleValue
-8.988

@<SCITEGIC>MOL_PROPERTY
VdW12
SciTegic.value.DoubleValue
10.127

@<SCITEGIC>MOL_PROPERTY
Bond
SciTegic.value.DoubleValue
0.191

@<SCITEGIC>MOL_PROPERTY
Angle
SciTegic.value.DoubleValue
2.738

@<SCITEGIC>MOL_PROPERTY
Pdih
SciTegic.value.DoubleValue
5.621

@<SCITEGIC>MOL_PROPERTY
Idih
SciTegic.value.DoubleValue
0.001

@<SCITEGIC>MOL_PROPERTY
Tether
SciTegic.value.DoubleValue
0.000

@<TRIPOS>MOLECULE
guest-8_confgen4.mol2 : confsearch ligand conformer 110
          25          24           1
SMALL
USER_CHARGES
 
@<TRIPOS>ATOM
       1    C1      16.298202   18.555805   23.793616 C.2        1 MOL1         0.6168
       2    O1      16.099758   17.961235   24.834850 O.co2      1 MOL1        -0.6703
       3    O2      16.099007   18.074540   22.695535 O.co2      1 MOL1        -0.6703
       4    C2      16.807173   19.992638   23.867033 C.3        1 MOL1        -0.1963
       5    H1      16.594468   20.388593   24.867407 H          1 MOL1         0.0750
       6    H2      16.217498   20.586491   23.158791 H          1 MOL1         0.0750
       7    C3      18.315505   20.143207   23.539674 C.3        1 MOL1        -0.1860
       8    H3      18.506542   19.723154   22.543317 H          1 MOL1         0.0752
       9    H4      18.564383   21.211663   23.487448 H          1 MOL1         0.0752
      10    C4      19.220680   19.458510   24.591624 C.3        1 MOL1        -0.1858
      11    H5      19.028900   18.376640   24.601501 H          1 MOL1         0.0752
      12    H6      18.951058   19.829190   25.589996 H          1 MOL1         0.0752
      13    C5      20.729906   19.712140   24.364400 C.3        1 MOL1        -0.1858
      14    H7      20.925480   20.793157   24.362946 H          1 MOL1         0.0752
      15    H8      21.284325   19.297289   25.217265 H          1 MOL1         0.0752
      16    C6      21.270651   19.082455   23.059746 C.3        1 MOL1        -0.1858
      17    H9      20.780213   19.540602   22.191126 H          1 MOL1         0.0752
      18    H10     21.024807   18.011919   23.039562 H          1 MOL1         0.0752
      19    C7      22.797851   19.262771   22.929767 C.3        1 MOL1        -0.1834
      20    H11     23.047288   20.332710   22.951464 H          1 MOL1         0.0752
      21    H12     23.300588   18.800129   23.790371 H          1 MOL1         0.0752
      22    C8      23.335004   18.637618   21.626551 C.3        1 MOL1        -0.2849
      23    H13     22.872420   19.104535   20.747127 H          1 MOL1         0.0764
      24    H14     24.421540   18.774598   21.550838 H          1 MOL1         0.0764
      25    H15     23.125953   17.560344   21.592508 H          1 MOL1         0.0764
@<TRIPOS>BOND
    1     1     2    1
    2     1     3    2
    3     1     4    1
    4     4     5    1
    5     4     6    1
    6     4     7    1
    7     7     8    1
    8     7     9    1
    9     7    10    1
   10    10    11    1
   11    10    12    1
   12    10    13    1
   13    13    14    1
   14    13    15    1
   15    13    16    1
   16    16    17    1
   17    16    18    1
   18    16    19    1
   19    19    20    1
   20    19    21    1
   21    19    22    1
   22    22    23    1
   23    22    24    1
   24    22    25    1
@<TRIPOS>SUBSTRUCTURE
       1 MOL1            1 RESIDUE      1      MOL     
@<SCITEGIC>MOL_PROPERTY
VConf Rank
SciTegic.value.IntegerValue
110

@<SCITEGIC>MOL_PROPERTY
Conf_Id
SciTegic.value.IntegerValue
142

@<SCITEGIC>MOL_PROPERTY
Delta U+W
SciTegic.value.DoubleValue
0.593

@<SCITEGIC>MOL_PROPERTY
U+W
SciTegic.value.DoubleValue
-51.037

@<SCITEGIC>MOL_PROPERTY
Grad RMS
SciTegic.value.DoubleValue
0.000000

@<SCITEGIC>MOL_PROPERTY
U
SciTegic.value.DoubleValue
8.903

@<SCITEGIC>MOL_PROPERTY
W
SciTegic.value.DoubleValue
-59.940

@<SCITEGIC>MOL_PROPERTY
W(PB)
SciTegic.value.DoubleValue
-62.418

@<SCITEGIC>MOL_PROPERTY
W(SA)
SciTegic.value.DoubleValue
2.478

@<SCITEGIC>MOL_PROPERTY
Valence
SciTegic.value.DoubleValue
8.305

@<SCITEGIC>MOL_PROPERTY
Coulomb
SciTegic.value.DoubleValue
-0.223

@<SCITEGIC>MOL_PROPERTY
VdW
SciTegic.value.DoubleValue
0.821

@<SCITEGIC>MOL_PROPERTY
VdW6
SciTegic.value.DoubleValue
-9.236

@<SCITEGIC>MOL_PROPERTY
VdW12
SciTegic.value.DoubleValue
10.057

@<SCITEGIC>MOL_PROPERTY
Bond
SciTegic.value.DoubleValue
0.173

@<SCITEGIC>MOL_PROPERTY
Angle
SciTegic.value.DoubleValue
2.663

@<SCITEGIC>MOL_PROPERTY
Pdih
SciTegic.value.DoubleValue
5.469

@<SCITEGIC>MOL_PROPERTY
Idih
SciTegic.value.DoubleValue
0.001

@<SCITEGIC>MOL_PROPERTY
Tether
SciTegic.value.DoubleValue
0.000

@<TRIPOS>MOLECULE
guest-8_confgen4.mol2 : confsearch ligand conformer 111
          25          24           1
SMALL
USER_CHARGES
 
@<TRIPOS>ATOM
       1    C1      21.918661   22.233082   23.920870 C.2        1 MOL1         0.6168
       2    O1      22.241200   22.964731   24.836413 O.co2      1 MOL1        -0.6703
       3    O2      22.648103   21.963959   22.986770 O.co2      1 MOL1        -0.6703
       4    C2      20.510928   21.643964   23.933745 C.3        1 MOL1        -0.1963
       5    H1      20.284784   21.252177   22.935417 H          1 MOL1         0.0750
       6    H2      19.812773   22.470775   24.108338 H          1 MOL1         0.0750
       7    C3      20.291771   20.549021   25.013190 C.3        1 MOL1        -0.1860
       8    H3      20.459715   20.993128   26.004018 H          1 MOL1         0.0752
       9    H4      19.240579   20.233321   24.999864 H          1 MOL1         0.0752
      10    C4      21.211022   19.309127   24.863918 C.3        1 MOL1        -0.1858
      11    H5      20.983518   18.602055   25.673169 H          1 MOL1         0.0752
      12    H6      22.254412   19.617127   25.017412 H          1 MOL1         0.0752
      13    C5      21.108384   18.568493   23.506990 C.3        1 MOL1        -0.1858
      14    H7      21.441017   19.228930   22.694997 H          1 MOL1         0.0752
      15    H8      21.813114   17.726040   23.519694 H          1 MOL1         0.0752
      16    C6      19.690588   18.033123   23.200559 C.3        1 MOL1        -0.1858
      17    H9      18.986390   18.870653   23.112496 H          1 MOL1         0.0752
      18    H10     19.345369   17.408889   24.035922 H          1 MOL1         0.0752
      19    C7      19.661343   17.210648   21.895141 C.3        1 MOL1        -0.1834
      20    H11     20.008904   17.832576   21.058551 H          1 MOL1         0.0752
      21    H12     20.357346   16.364090   21.974468 H          1 MOL1         0.0752
      22    C8      18.245591   16.682584   21.587754 C.3        1 MOL1        -0.2849
      23    H13     17.534266   17.510725   21.471283 H          1 MOL1         0.0764
      24    H14     18.243367   16.100444   20.657086 H          1 MOL1         0.0764
      25    H15     17.885199   16.032097   22.395427 H          1 MOL1         0.0764
@<TRIPOS>BOND
    1     1     2    1
    2     1     3    2
    3     1     4    1
    4     4     5    1
    5     4     6    1
    6     4     7    1
    7     7     8    1
    8     7     9    1
    9     7    10    1
   10    10    11    1
   11    10    12    1
   12    10    13    1
   13    13    14    1
   14    13    15    1
   15    13    16    1
   16    16    17    1
   17    16    18    1
   18    16    19    1
   19    19    20    1
   20    19    21    1
   21    19    22    1
   22    22    23    1
   23    22    24    1
   24    22    25    1
@<TRIPOS>SUBSTRUCTURE
       1 MOL1            1 RESIDUE      1      MOL     
@<SCITEGIC>MOL_PROPERTY
VConf Rank
SciTegic.value.IntegerValue
111

@<SCITEGIC>MOL_PROPERTY
Conf_Id
SciTegic.value.IntegerValue
135

@<SCITEGIC>MOL_PROPERTY
Delta U+W
SciTegic.value.DoubleValue
1.314

@<SCITEGIC>MOL_PROPERTY
U+W
SciTegic.value.DoubleValue
-50.316

@<SCITEGIC>MOL_PROPERTY
Grad RMS
SciTegic.value.DoubleValue
0.000000

@<SCITEGIC>MOL_PROPERTY
U
SciTegic.value.DoubleValue
9.773

@<SCITEGIC>MOL_PROPERTY
W
SciTegic.value.DoubleValue
-60.088

@<SCITEGIC>MOL_PROPERTY
W(PB)
SciTegic.value.DoubleValue
-62.535

@<SCITEGIC>MOL_PROPERTY
W(SA)
SciTegic.value.DoubleValue
2.447

@<SCITEGIC>MOL_PROPERTY
Valence
SciTegic.value.DoubleValue
8.741

@<SCITEGIC>MOL_PROPERTY
Coulomb
SciTegic.value.DoubleValue
0.479

@<SCITEGIC>MOL_PROPERTY
VdW
SciTegic.value.DoubleValue
0.552

@<SCITEGIC>MOL_PROPERTY
VdW6
SciTegic.value.DoubleValue
-10.627

@<SCITEGIC>MOL_PROPERTY
VdW12
SciTegic.value.DoubleValue
11.179

@<SCITEGIC>MOL_PROPERTY
Bond
SciTegic.value.DoubleValue
0.227

@<SCITEGIC>MOL_PROPERTY
Angle
SciTegic.value.DoubleValue
3.155

@<SCITEGIC>MOL_PROPERTY
Pdih
SciTegic.value.DoubleValue
5.358

@<SCITEGIC>MOL_PROPERTY
Idih
SciTegic.value.DoubleValue
0.001

@<SCITEGIC>MOL_PROPERTY
Tether
SciTegic.value.DoubleValue
0.000

@<TRIPOS>MOLECULE
guest-8_confgen4.mol2 : confsearch ligand conformer 112
          25          24           1
SMALL
USER_CHARGES
 
@<TRIPOS>ATOM
       1    C1      22.179989   15.543091   23.083807 C.2        1 MOL1         0.6168
       2    O1      22.915417   15.449023   22.120980 O.co2      1 MOL1        -0.6703
       3    O2      22.289337   14.860777   24.083438 O.co2      1 MOL1        -0.6703
       4    C2      21.072990   16.590572   23.044842 C.3        1 MOL1        -0.1963
       5    H1      20.227141   16.212862   23.631546 H          1 MOL1         0.0750
       6    H2      20.735401   16.678427   22.006339 H          1 MOL1         0.0750
       7    C3      21.531583   17.967409   23.592419 C.3        1 MOL1        -0.1860
       8    H3      21.952621   17.821864   24.596904 H          1 MOL1         0.0752
       9    H4      22.347028   18.359004   22.968733 H          1 MOL1         0.0752
      10    C4      20.392615   19.011291   23.681834 C.3        1 MOL1        -0.1858
      11    H5      20.779451   19.885920   24.219767 H          1 MOL1         0.0752
      12    H6      19.567879   18.607870   24.284860 H          1 MOL1         0.0752
      13    C5      19.861361   19.464197   22.300853 C.3        1 MOL1        -0.1858
      14    H7      20.679815   19.920033   21.727321 H          1 MOL1         0.0752
      15    H8      19.534165   18.587787   21.727858 H          1 MOL1         0.0752
      16    C6      18.670295   20.453025   22.371912 C.3        1 MOL1        -0.1858
      17    H9      17.812016   19.973249   22.861890 H          1 MOL1         0.0752
      18    H10     18.348907   20.656934   21.341376 H          1 MOL1         0.0752
      19    C7      18.989484   21.807183   23.053510 C.3        1 MOL1        -0.1834
      20    H11     20.059010   22.039855   22.957521 H          1 MOL1         0.0752
      21    H12     18.454834   22.604561   22.519058 H          1 MOL1         0.0752
      22    C8      18.561030   21.856394   24.537178 C.3        1 MOL1        -0.2849
      23    H13     19.066351   21.088332   25.133710 H          1 MOL1         0.0764
      24    H14     18.802475   22.833782   24.974471 H          1 MOL1         0.0764
      25    H15     17.478518   21.702935   24.635663 H          1 MOL1         0.0764
@<TRIPOS>BOND
    1     1     2    1
    2     1     3    2
    3     1     4    1
    4     4     5    1
    5     4     6    1
    6     4     7    1
    7     7     8    1
    8     7     9    1
    9     7    10    1
   10    10    11    1
   11    10    12    1
   12    10    13    1
   13    13    14    1
   14    13    15    1
   15    13    16    1
   16    16    17    1
   17    16    18    1
   18    16    19    1
   19    19    20    1
   20    19    21    1
   21    19    22    1
   22    22    23    1
   23    22    24    1
   24    22    25    1
@<TRIPOS>SUBSTRUCTURE
       1 MOL1            1 RESIDUE      1      MOL     
@<SCITEGIC>MOL_PROPERTY
VConf Rank
SciTegic.value.IntegerValue
112

@<SCITEGIC>MOL_PROPERTY
Conf_Id
SciTegic.value.IntegerValue
19

@<SCITEGIC>MOL_PROPERTY
Delta U+W
SciTegic.value.DoubleValue
3.222

@<SCITEGIC>MOL_PROPERTY
U+W
SciTegic.value.DoubleValue
-48.407

@<SCITEGIC>MOL_PROPERTY
Grad RMS
SciTegic.value.DoubleValue
0.000000

@<SCITEGIC>MOL_PROPERTY
U
SciTegic.value.DoubleValue
10.617

@<SCITEGIC>MOL_PROPERTY
W
SciTegic.value.DoubleValue
-59.025

@<SCITEGIC>MOL_PROPERTY
W(PB)
SciTegic.value.DoubleValue
-61.462

@<SCITEGIC>MOL_PROPERTY
W(SA)
SciTegic.value.DoubleValue
2.437

@<SCITEGIC>MOL_PROPERTY
Valence
SciTegic.value.DoubleValue
11.188

@<SCITEGIC>MOL_PROPERTY
Coulomb
SciTegic.value.DoubleValue
-1.778

@<SCITEGIC>MOL_PROPERTY
VdW
SciTegic.value.DoubleValue
1.208

@<SCITEGIC>MOL_PROPERTY
VdW6
SciTegic.value.DoubleValue
-9.786

@<SCITEGIC>MOL_PROPERTY
VdW12
SciTegic.value.DoubleValue
10.993

@<SCITEGIC>MOL_PROPERTY
Bond
SciTegic.value.DoubleValue
0.241

@<SCITEGIC>MOL_PROPERTY
Angle
SciTegic.value.DoubleValue
3.294

@<SCITEGIC>MOL_PROPERTY
Pdih
SciTegic.value.DoubleValue
7.653

@<SCITEGIC>MOL_PROPERTY
Idih
SciTegic.value.DoubleValue
0.001

@<SCITEGIC>MOL_PROPERTY
Tether
SciTegic.value.DoubleValue
0.000

@<TRIPOS>MOLECULE
guest-8_confgen4.mol2 : confsearch ligand conformer 113
          25          24           1
SMALL
USER_CHARGES
 
@<TRIPOS>ATOM
       1    C1      20.627720   15.934470   25.870880 C.2        1 MOL1         0.6168
       2    O1      19.639558   15.236341   25.984427 O.co2      1 MOL1        -0.6703
       3    O2      21.539688   15.945761   26.673971 O.co2      1 MOL1        -0.6703
       4    C2      20.717702   16.864754   24.666448 C.3        1 MOL1        -0.1963
       5    H1      20.219025   16.369278   23.826211 H          1 MOL1         0.0750
       6    H2      21.775643   16.973274   24.399370 H          1 MOL1         0.0750
       7    C3      20.088494   18.256570   24.936215 C.3        1 MOL1        -0.1860
       8    H3      19.018075   18.140847   25.155520 H          1 MOL1         0.0752
       9    H4      20.546271   18.677911   25.841952 H          1 MOL1         0.0752
      10    C4      20.279788   19.260773   23.774355 C.3        1 MOL1        -0.1858
      11    H5      21.348740   19.355830   23.540079 H          1 MOL1         0.0752
      12    H6      19.943359   20.245584   24.122137 H          1 MOL1         0.0752
      13    C5      19.493281   18.882566   22.496532 C.3        1 MOL1        -0.1858
      14    H7      19.773632   17.870667   22.178822 H          1 MOL1         0.0752
      15    H8      18.419743   18.847615   22.726512 H          1 MOL1         0.0752
      16    C6      19.731761   19.836295   21.298616 C.3        1 MOL1        -0.1858
      17    H9      19.169250   19.438302   20.443014 H          1 MOL1         0.0752
      18    H10     20.788452   19.807285   20.999500 H          1 MOL1         0.0752
      19    C7      19.280233   21.299658   21.532909 C.3        1 MOL1        -0.1834
      20    H11     18.850985   21.689007   20.599392 H          1 MOL1         0.0752
      21    H12     18.473227   21.335298   22.277695 H          1 MOL1         0.0752
      22    C8      20.438134   22.232981   21.951762 C.3        1 MOL1        -0.2849
      23    H13     21.213806   22.264386   21.175600 H          1 MOL1         0.0764
      24    H14     20.071438   23.256701   22.101223 H          1 MOL1         0.0764
      25    H15     20.908641   21.905819   22.885949 H          1 MOL1         0.0764
@<TRIPOS>BOND
    1     1     2    1
    2     1     3    2
    3     1     4    1
    4     4     5    1
    5     4     6    1
    6     4     7    1
    7     7     8    1
    8     7     9    1
    9     7    10    1
   10    10    11    1
   11    10    12    1
   12    10    13    1
   13    13    14    1
   14    13    15    1
   15    13    16    1
   16    16    17    1
   17    16    18    1
   18    16    19    1
   19    19    20    1
   20    19    21    1
   21    19    22    1
   22    22    23    1
   23    22    24    1
   24    22    25    1
@<TRIPOS>SUBSTRUCTURE
       1 MOL1            1 RESIDUE      1      MOL     
@<SCITEGIC>MOL_PROPERTY
VConf Rank
SciTegic.value.IntegerValue
113

@<SCITEGIC>MOL_PROPERTY
Conf_Id
SciTegic.value.IntegerValue
20

@<SCITEGIC>MOL_PROPERTY
Delta U+W
SciTegic.value.DoubleValue
3.224

@<SCITEGIC>MOL_PROPERTY
U+W
SciTegic.value.DoubleValue
-48.406

@<SCITEGIC>MOL_PROPERTY
Grad RMS
SciTegic.value.DoubleValue
0.000000

@<SCITEGIC>MOL_PROPERTY
U
SciTegic.value.DoubleValue
10.617

@<SCITEGIC>MOL_PROPERTY
W
SciTegic.value.DoubleValue
-59.023

@<SCITEGIC>MOL_PROPERTY
W(PB)
SciTegic.value.DoubleValue
-61.467

@<SCITEGIC>MOL_PROPERTY
W(SA)
SciTegic.value.DoubleValue
2.444

@<SCITEGIC>MOL_PROPERTY
Valence
SciTegic.value.DoubleValue
11.188

@<SCITEGIC>MOL_PROPERTY
Coulomb
SciTegic.value.DoubleValue
-1.778

@<SCITEGIC>MOL_PROPERTY
VdW
SciTegic.value.DoubleValue
1.208

@<SCITEGIC>MOL_PROPERTY
VdW6
SciTegic.value.DoubleValue
-9.786

@<SCITEGIC>MOL_PROPERTY
VdW12
SciTegic.value.DoubleValue
10.993

@<SCITEGIC>MOL_PROPERTY
Bond
SciTegic.value.DoubleValue
0.241

@<SCITEGIC>MOL_PROPERTY
Angle
SciTegic.value.DoubleValue
3.294

@<SCITEGIC>MOL_PROPERTY
Pdih
SciTegic.value.DoubleValue
7.653

@<SCITEGIC>MOL_PROPERTY
Idih
SciTegic.value.DoubleValue
0.001

@<SCITEGIC>MOL_PROPERTY
Tether
SciTegic.value.DoubleValue
0.000

@<TRIPOS>MOLECULE
guest-8_confgen4.mol2 : confsearch ligand conformer 114
          25          24           1
SMALL
USER_CHARGES
 
@<TRIPOS>ATOM
       1    C1      21.266577   21.906295   22.383471 C.2        1 MOL1         0.6168
       2    O1      20.360769   22.612179   21.984869 O.co2      1 MOL1        -0.6703
       3    O2      21.967772   21.237126   21.650152 O.co2      1 MOL1        -0.6703
       4    C2      21.584787   21.909766   23.877499 C.3        1 MOL1        -0.1963
       5    H1      21.895944   22.931538   24.123735 H          1 MOL1         0.0750
       6    H2      22.453304   21.265016   24.058513 H          1 MOL1         0.0750
       7    C3      20.407672   21.501436   24.807432 C.3        1 MOL1        -0.1860
       8    H3      20.622155   21.884869   25.814112 H          1 MOL1         0.0752
       9    H4      19.484153   22.001714   24.484279 H          1 MOL1         0.0752
      10    C4      20.171634   19.975118   24.924582 C.3        1 MOL1        -0.1858
      11    H5      19.427234   19.803924   25.714230 H          1 MOL1         0.0752
      12    H6      21.094970   19.482800   25.259108 H          1 MOL1         0.0752
      13    C5      19.673123   19.312546   23.620315 C.3        1 MOL1        -0.1858
      14    H7      18.810860   19.870059   23.229511 H          1 MOL1         0.0752
      15    H8      20.458674   19.357595   22.855537 H          1 MOL1         0.0752
      16    C6      19.276999   17.836938   23.844451 C.3        1 MOL1        -0.1858
      17    H9      18.484319   17.779837   24.602979 H          1 MOL1         0.0752
      18    H10     20.138984   17.282193   24.239763 H          1 MOL1         0.0752
      19    C7      18.789878   17.171172   22.540287 C.3        1 MOL1        -0.1834
      20    H11     17.927058   17.723341   22.142658 H          1 MOL1         0.0752
      21    H12     19.580997   17.224881   21.779464 H          1 MOL1         0.0752
      22    C8      18.395595   15.697805   22.767005 C.3        1 MOL1        -0.2849
      23    H13     17.583356   15.617084   23.501255 H          1 MOL1         0.0764
      24    H14     18.052064   15.240652   21.829956 H          1 MOL1         0.0764
      25    H15     19.249933   15.114837   23.135286 H          1 MOL1         0.0764
@<TRIPOS>BOND
    1     1     2    1
    2     1     3    2
    3     1     4    1
    4     4     5    1
    5     4     6    1
    6     4     7    1
    7     7     8    1
    8     7     9    1
    9     7    10    1
   10    10    11    1
   11    10    12    1
   12    10    13    1
   13    13    14    1
   14    13    15    1
   15    13    16    1
   16    16    17    1
   17    16    18    1
   18    16    19    1
   19    19    20    1
   20    19    21    1
   21    19    22    1
   22    22    23    1
   23    22    24    1
   24    22    25    1
@<TRIPOS>SUBSTRUCTURE
       1 MOL1            1 RESIDUE      1      MOL     
@<SCITEGIC>MOL_PROPERTY
VConf Rank
SciTegic.value.IntegerValue
114

@<SCITEGIC>MOL_PROPERTY
Conf_Id
SciTegic.value.IntegerValue
24

@<SCITEGIC>MOL_PROPERTY
Delta U+W
SciTegic.value.DoubleValue
1.784

@<SCITEGIC>MOL_PROPERTY
U+W
SciTegic.value.DoubleValue
-49.846

@<SCITEGIC>MOL_PROPERTY
Grad RMS
SciTegic.value.DoubleValue
0.000000

@<SCITEGIC>MOL_PROPERTY
U
SciTegic.value.DoubleValue
10.904

@<SCITEGIC>MOL_PROPERTY
W
SciTegic.value.DoubleValue
-60.749

@<SCITEGIC>MOL_PROPERTY
W(PB)
SciTegic.value.DoubleValue
-63.220

@<SCITEGIC>MOL_PROPERTY
W(SA)
SciTegic.value.DoubleValue
2.471

@<SCITEGIC>MOL_PROPERTY
Valence
SciTegic.value.DoubleValue
9.445

@<SCITEGIC>MOL_PROPERTY
Coulomb
SciTegic.value.DoubleValue
0.780

@<SCITEGIC>MOL_PROPERTY
VdW
SciTegic.value.DoubleValue
0.679

@<SCITEGIC>MOL_PROPERTY
VdW6
SciTegic.value.DoubleValue
-10.008

@<SCITEGIC>MOL_PROPERTY
VdW12
SciTegic.value.DoubleValue
10.687

@<SCITEGIC>MOL_PROPERTY
Bond
SciTegic.value.DoubleValue
0.201

@<SCITEGIC>MOL_PROPERTY
Angle
SciTegic.value.DoubleValue
3.198

@<SCITEGIC>MOL_PROPERTY
Pdih
SciTegic.value.DoubleValue
6.039

@<SCITEGIC>MOL_PROPERTY
Idih
SciTegic.value.DoubleValue
0.006

@<SCITEGIC>MOL_PROPERTY
Tether
SciTegic.value.DoubleValue
0.000

@<TRIPOS>MOLECULE
guest-8_confgen4.mol2 : confsearch ligand conformer 115
          25          24           1
SMALL
USER_CHARGES
 
@<TRIPOS>ATOM
       1    C1      23.062775   20.328152   23.552254 C.2        1 MOL1         0.6168
       2    O1      23.380740   20.465183   24.717485 O.co2      1 MOL1        -0.6703
       3    O2      23.488629   19.439365   22.840971 O.co2      1 MOL1        -0.6703
       4    C2      22.130806   21.365213   22.928291 C.3        1 MOL1        -0.1963
       5    H1      21.987690   21.123832   21.868083 H          1 MOL1         0.0750
       6    H2      22.666387   22.320946   22.962844 H          1 MOL1         0.0750
       7    C3      20.755166   21.530409   23.633576 C.3        1 MOL1        -0.1860
       8    H3      20.894477   21.563651   24.723109 H          1 MOL1         0.0752
       9    H4      20.345112   22.509639   23.351807 H          1 MOL1         0.0752
      10    C4      19.703040   20.454970   23.265409 C.3        1 MOL1        -0.1858
      11    H5      19.559866   20.435356   22.176395 H          1 MOL1         0.0752
      12    H6      18.739412   20.757299   23.697846 H          1 MOL1         0.0752
      13    C5      20.049782   19.035588   23.769146 C.3        1 MOL1        -0.1858
      14    H7      20.940315   18.662350   23.247944 H          1 MOL1         0.0752
      15    H8      20.295295   19.073670   24.839342 H          1 MOL1         0.0752
      16    C6      18.885149   18.047799   23.540076 C.3        1 MOL1        -0.1858
      17    H9      18.637864   18.014742   22.470129 H          1 MOL1         0.0752
      18    H10     17.989285   18.407080   24.064777 H          1 MOL1         0.0752
      19    C7      19.234654   16.627603   24.032276 C.3        1 MOL1        -0.1834
      20    H11     20.129518   16.264065   23.508192 H          1 MOL1         0.0752
      21    H12     19.481879   16.657132   25.102540 H          1 MOL1         0.0752
      22    C8      18.070164   15.643447   23.801913 C.3        1 MOL1        -0.2849
      23    H13     17.822751   15.570666   22.734737 H          1 MOL1         0.0764
      24    H14     18.336068   14.639459   24.157396 H          1 MOL1         0.0764
      25    H15     17.170182   15.966685   24.341283 H          1 MOL1         0.0764
@<TRIPOS>BOND
    1     1     2    1
    2     1     3    2
    3     1     4    1
    4     4     5    1
    5     4     6    1
    6     4     7    1
    7     7     8    1
    8     7     9    1
    9     7    10    1
   10    10    11    1
   11    10    12    1
   12    10    13    1
   13    13    14    1
   14    13    15    1
   15    13    16    1
   16    16    17    1
   17    16    18    1
   18    16    19    1
   19    19    20    1
   20    19    21    1
   21    19    22    1
   22    22    23    1
   23    22    24    1
   24    22    25    1
@<TRIPOS>SUBSTRUCTURE
       1 MOL1            1 RESIDUE      1      MOL     
@<SCITEGIC>MOL_PROPERTY
VConf Rank
SciTegic.value.IntegerValue
115

@<SCITEGIC>MOL_PROPERTY
Conf_Id
SciTegic.value.IntegerValue
9

@<SCITEGIC>MOL_PROPERTY
Delta U+W
SciTegic.value.DoubleValue
1.764

@<SCITEGIC>MOL_PROPERTY
U+W
SciTegic.value.DoubleValue
-49.865

@<SCITEGIC>MOL_PROPERTY
Grad RMS
SciTegic.value.DoubleValue
0.000000

@<SCITEGIC>MOL_PROPERTY
U
SciTegic.value.DoubleValue
10.902

@<SCITEGIC>MOL_PROPERTY
W
SciTegic.value.DoubleValue
-60.768

@<SCITEGIC>MOL_PROPERTY
W(PB)
SciTegic.value.DoubleValue
-63.223

@<SCITEGIC>MOL_PROPERTY
W(SA)
SciTegic.value.DoubleValue
2.456

@<SCITEGIC>MOL_PROPERTY
Valence
SciTegic.value.DoubleValue
9.445

@<SCITEGIC>MOL_PROPERTY
Coulomb
SciTegic.value.DoubleValue
0.778

@<SCITEGIC>MOL_PROPERTY
VdW
SciTegic.value.DoubleValue
0.679

@<SCITEGIC>MOL_PROPERTY
VdW6
SciTegic.value.DoubleValue
-10.007

@<SCITEGIC>MOL_PROPERTY
VdW12
SciTegic.value.DoubleValue
10.687

@<SCITEGIC>MOL_PROPERTY
Bond
SciTegic.value.DoubleValue
0.201

@<SCITEGIC>MOL_PROPERTY
Angle
SciTegic.value.DoubleValue
3.198

@<SCITEGIC>MOL_PROPERTY
Pdih
SciTegic.value.DoubleValue
6.040

@<SCITEGIC>MOL_PROPERTY
Idih
SciTegic.value.DoubleValue
0.006

@<SCITEGIC>MOL_PROPERTY
Tether
SciTegic.value.DoubleValue
0.000

@<TRIPOS>MOLECULE
guest-8_confgen4.mol2 : confsearch ligand conformer 116
          25          24           1
SMALL
USER_CHARGES
 
@<TRIPOS>ATOM
       1    C1      17.257259   17.672204   25.399936 C.2        1 MOL1         0.6168
       2    O1      18.048231   17.171544   26.174732 O.co2      1 MOL1        -0.6703
       3    O2      16.070190   17.790019   25.631961 O.co2      1 MOL1        -0.6703
       4    C2      17.786461   18.200435   24.071541 C.3        1 MOL1        -0.1963
       5    H1      17.001293   18.066891   23.317927 H          1 MOL1         0.0750
       6    H2      18.627519   17.568046   23.771258 H          1 MOL1         0.0750
       7    C3      18.205672   19.692636   24.143979 C.3        1 MOL1        -0.1860
       8    H3      17.323849   20.276832   24.441536 H          1 MOL1         0.0752
       9    H4      18.950661   19.838272   24.938457 H          1 MOL1         0.0752
      10    C4      18.738758   20.250759   22.799877 C.3        1 MOL1        -0.1858
      11    H5      18.421239   21.299110   22.715851 H          1 MOL1         0.0752
      12    H6      18.267799   19.728112   21.956150 H          1 MOL1         0.0752
      13    C5      20.280892   20.219204   22.652949 C.3        1 MOL1        -0.1858
      14    H7      20.547385   20.711903   21.708079 H          1 MOL1         0.0752
      15    H8      20.729187   20.822363   23.453359 H          1 MOL1         0.0752
      16    C6      20.891397   18.797847   22.667087 C.3        1 MOL1        -0.1858
      17    H9      20.331974   18.159323   21.970143 H          1 MOL1         0.0752
      18    H10     20.778658   18.355397   23.665474 H          1 MOL1         0.0752
      19    C7      22.385789   18.770019   22.270160 C.3        1 MOL1        -0.1834
      20    H11     22.715167   17.723647   22.208683 H          1 MOL1         0.0752
      21    H12     22.510763   19.194102   21.264293 H          1 MOL1         0.0752
      22    C8      23.295092   19.521007   23.266910 C.3        1 MOL1        -0.2849
      23    H13     23.168286   19.130493   24.285027 H          1 MOL1         0.0764
      24    H14     24.350251   19.403105   22.988363 H          1 MOL1         0.0764
      25    H15     23.072579   20.595339   23.279972 H          1 MOL1         0.0764
@<TRIPOS>BOND
    1     1     2    1
    2     1     3    2
    3     1     4    1
    4     4     5    1
    5     4     6    1
    6     4     7    1
    7     7     8    1
    8     7     9    1
    9     7    10    1
   10    10    11    1
   11    10    12    1
   12    10    13    1
   13    13    14    1
   14    13    15    1
   15    13    16    1
   16    16    17    1
   17    16    18    1
   18    16    19    1
   19    19    20    1
   20    19    21    1
   21    19    22    1
   22    22    23    1
   23    22    24    1
   24    22    25    1
@<TRIPOS>SUBSTRUCTURE
       1 MOL1            1 RESIDUE      1      MOL     
@<SCITEGIC>MOL_PROPERTY
VConf Rank
SciTegic.value.IntegerValue
116

@<SCITEGIC>MOL_PROPERTY
Conf_Id
SciTegic.value.IntegerValue
89

@<SCITEGIC>MOL_PROPERTY
Delta U+W
SciTegic.value.DoubleValue
2.903

@<SCITEGIC>MOL_PROPERTY
U+W
SciTegic.value.DoubleValue
-48.726

@<SCITEGIC>MOL_PROPERTY
Grad RMS
SciTegic.value.DoubleValue
0.000000

@<SCITEGIC>MOL_PROPERTY
U
SciTegic.value.DoubleValue
10.996

@<SCITEGIC>MOL_PROPERTY
W
SciTegic.value.DoubleValue
-59.723

@<SCITEGIC>MOL_PROPERTY
W(PB)
SciTegic.value.DoubleValue
-62.151

@<SCITEGIC>MOL_PROPERTY
W(SA)
SciTegic.value.DoubleValue
2.428

@<SCITEGIC>MOL_PROPERTY
Valence
SciTegic.value.DoubleValue
10.985

@<SCITEGIC>MOL_PROPERTY
Coulomb
SciTegic.value.DoubleValue
-0.995

@<SCITEGIC>MOL_PROPERTY
VdW
SciTegic.value.DoubleValue
1.006

@<SCITEGIC>MOL_PROPERTY
VdW6
SciTegic.value.DoubleValue
-10.062

@<SCITEGIC>MOL_PROPERTY
VdW12
SciTegic.value.DoubleValue
11.069

@<SCITEGIC>MOL_PROPERTY
Bond
SciTegic.value.DoubleValue
0.238

@<SCITEGIC>MOL_PROPERTY
Angle
SciTegic.value.DoubleValue
3.202

@<SCITEGIC>MOL_PROPERTY
Pdih
SciTegic.value.DoubleValue
7.544

@<SCITEGIC>MOL_PROPERTY
Idih
SciTegic.value.DoubleValue
0.001

@<SCITEGIC>MOL_PROPERTY
Tether
SciTegic.value.DoubleValue
0.000

@<TRIPOS>MOLECULE
guest-8_confgen4.mol2 : confsearch ligand conformer 117
          25          24           1
SMALL
USER_CHARGES
 
@<TRIPOS>ATOM
       1    C1      18.594352   16.099130   22.378175 C.2        1 MOL1         0.6168
       2    O1      19.351359   15.834348   21.464889 O.co2      1 MOL1        -0.6703
       3    O2      18.469701   15.405107   23.368328 O.co2      1 MOL1        -0.6703
       4    C2      17.707280   17.335229   22.242486 C.3        1 MOL1        -0.1963
       5    H1      16.674765   16.969444   22.202603 H          1 MOL1         0.0750
       6    H2      17.907723   17.814170   21.276459 H          1 MOL1         0.0750
       7    C3      17.831991   18.371848   23.394636 C.3        1 MOL1        -0.1860
       8    H3      16.919120   18.982657   23.399394 H          1 MOL1         0.0752
       9    H4      17.853669   17.854846   24.364076 H          1 MOL1         0.0752
      10    C4      19.040483   19.334149   23.278633 C.3        1 MOL1        -0.1858
      11    H5      18.919960   20.112114   24.042678 H          1 MOL1         0.0752
      12    H6      19.012069   19.847421   22.307913 H          1 MOL1         0.0752
      13    C5      20.414429   18.645048   23.462465 C.3        1 MOL1        -0.1858
      14    H7      20.425989   18.079714   24.404290 H          1 MOL1         0.0752
      15    H8      20.562459   17.914210   22.658227 H          1 MOL1         0.0752
      16    C6      21.608657   19.629018   23.430866 C.3        1 MOL1        -0.1858
      17    H9      21.577406   20.216660   22.503220 H          1 MOL1         0.0752
      18    H10     22.537635   19.043646   23.395643 H          1 MOL1         0.0752
      19    C7      21.664148   20.577607   24.650103 C.3        1 MOL1        -0.1834
      20    H11     20.783925   21.233189   24.662392 H          1 MOL1         0.0752
      21    H12     21.639348   19.989864   25.578074 H          1 MOL1         0.0752
      22    C8      22.936159   21.449212   24.630410 C.3        1 MOL1        -0.2849
      23    H13     22.973533   22.068368   23.724531 H          1 MOL1         0.0764
      24    H14     22.959654   22.118884   25.499914 H          1 MOL1         0.0764
      25    H15     23.840082   20.826710   24.657947 H          1 MOL1         0.0764
@<TRIPOS>BOND
    1     1     2    1
    2     1     3    2
    3     1     4    1
    4     4     5    1
    5     4     6    1
    6     4     7    1
    7     7     8    1
    8     7     9    1
    9     7    10    1
   10    10    11    1
   11    10    12    1
   12    10    13    1
   13    13    14    1
   14    13    15    1
   15    13    16    1
   16    16    17    1
   17    16    18    1
   18    16    19    1
   19    19    20    1
   20    19    21    1
   21    19    22    1
   22    22    23    1
   23    22    24    1
   24    22    25    1
@<TRIPOS>SUBSTRUCTURE
       1 MOL1            1 RESIDUE      1      MOL     
@<SCITEGIC>MOL_PROPERTY
VConf Rank
SciTegic.value.IntegerValue
117

@<SCITEGIC>MOL_PROPERTY
Conf_Id
SciTegic.value.IntegerValue
114

@<SCITEGIC>MOL_PROPERTY
Delta U+W
SciTegic.value.DoubleValue
2.758

@<SCITEGIC>MOL_PROPERTY
U+W
SciTegic.value.DoubleValue
-48.871

@<SCITEGIC>MOL_PROPERTY
Grad RMS
SciTegic.value.DoubleValue
0.000000

@<SCITEGIC>MOL_PROPERTY
U
SciTegic.value.DoubleValue
11.422

@<SCITEGIC>MOL_PROPERTY
W
SciTegic.value.DoubleValue
-60.293

@<SCITEGIC>MOL_PROPERTY
W(PB)
SciTegic.value.DoubleValue
-62.719

@<SCITEGIC>MOL_PROPERTY
W(SA)
SciTegic.value.DoubleValue
2.425

@<SCITEGIC>MOL_PROPERTY
Valence
SciTegic.value.DoubleValue
10.135

@<SCITEGIC>MOL_PROPERTY
Coulomb
SciTegic.value.DoubleValue
0.369

@<SCITEGIC>MOL_PROPERTY
VdW
SciTegic.value.DoubleValue
0.918

@<SCITEGIC>MOL_PROPERTY
VdW6
SciTegic.value.DoubleValue
-10.482

@<SCITEGIC>MOL_PROPERTY
VdW12
SciTegic.value.DoubleValue
11.400

@<SCITEGIC>MOL_PROPERTY
Bond
SciTegic.value.DoubleValue
0.245

@<SCITEGIC>MOL_PROPERTY
Angle
SciTegic.value.DoubleValue
3.539

@<SCITEGIC>MOL_PROPERTY
Pdih
SciTegic.value.DoubleValue
6.346

@<SCITEGIC>MOL_PROPERTY
Idih
SciTegic.value.DoubleValue
0.006

@<SCITEGIC>MOL_PROPERTY
Tether
SciTegic.value.DoubleValue
0.000

@<TRIPOS>MOLECULE
guest-8_confgen4.mol2 : confsearch ligand conformer 118
          25          24           1
SMALL
USER_CHARGES
 
@<TRIPOS>ATOM
       1    C1      22.591961   16.252220   22.432196 C.2        1 MOL1         0.6168
       2    O1      23.250033   16.027042   23.428840 O.co2      1 MOL1        -0.6703
       3    O2      21.861212   15.433821   21.909390 O.co2      1 MOL1        -0.6703
       4    C2      22.703606   17.631262   21.788201 C.3        1 MOL1        -0.1963
       5    H1      22.812210   17.481251   20.707609 H          1 MOL1         0.0750
       6    H2      23.628307   18.106624   22.137107 H          1 MOL1         0.0750
       7    C3      21.488405   18.554500   22.063690 C.3        1 MOL1        -0.1860
       8    H3      21.590766   19.467744   21.462225 H          1 MOL1         0.0752
       9    H4      20.575065   18.049732   21.722595 H          1 MOL1         0.0752
      10    C4      21.363526   18.937934   23.557892 C.3        1 MOL1        -0.1858
      11    H5      22.321104   19.354344   23.899199 H          1 MOL1         0.0752
      12    H6      21.186065   18.037103   24.161473 H          1 MOL1         0.0752
      13    C5      20.250263   19.975088   23.840097 C.3        1 MOL1        -0.1858
      14    H7      20.337719   20.288967   24.887960 H          1 MOL1         0.0752
      15    H8      20.420403   20.872999   23.230728 H          1 MOL1         0.0752
      16    C6      18.822662   19.431954   23.584162 C.3        1 MOL1        -0.1858
      17    H9      18.654389   18.531956   24.191095 H          1 MOL1         0.0752
      18    H10     18.732290   19.121793   22.535497 H          1 MOL1         0.0752
      19    C7      17.710324   20.466926   23.873948 C.3        1 MOL1        -0.1834
      20    H11     17.881987   21.373294   23.277024 H          1 MOL1         0.0752
      21    H12     16.749372   20.052739   23.538896 H          1 MOL1         0.0752
      22    C8      17.593518   20.841571   25.367569 C.3        1 MOL1        -0.2849
      23    H13     16.731518   21.501217   25.531052 H          1 MOL1         0.0764
      24    H14     17.455935   19.946239   25.987701 H          1 MOL1         0.0764
      25    H15     18.487171   21.371198   25.720113 H          1 MOL1         0.0764
@<TRIPOS>BOND
    1     1     2    1
    2     1     3    2
    3     1     4    1
    4     4     5    1
    5     4     6    1
    6     4     7    1
    7     7     8    1
    8     7     9    1
    9     7    10    1
   10    10    11    1
   11    10    12    1
   12    10    13    1
   13    13    14    1
   14    13    15    1
   15    13    16    1
   16    16    17    1
   17    16    18    1
   18    16    19    1
   19    19    20    1
   20    19    21    1
   21    19    22    1
   22    22    23    1
   23    22    24    1
   24    22    25    1
@<TRIPOS>SUBSTRUCTURE
       1 MOL1            1 RESIDUE      1      MOL     
@<SCITEGIC>MOL_PROPERTY
VConf Rank
SciTegic.value.IntegerValue
118

@<SCITEGIC>MOL_PROPERTY
Conf_Id
SciTegic.value.IntegerValue
87

@<SCITEGIC>MOL_PROPERTY
Delta U+W
SciTegic.value.DoubleValue
1.453

@<SCITEGIC>MOL_PROPERTY
U+W
SciTegic.value.DoubleValue
-50.176

@<SCITEGIC>MOL_PROPERTY
Grad RMS
SciTegic.value.DoubleValue
0.000000

@<SCITEGIC>MOL_PROPERTY
U
SciTegic.value.DoubleValue
9.763

@<SCITEGIC>MOL_PROPERTY
W
SciTegic.value.DoubleValue
-59.940

@<SCITEGIC>MOL_PROPERTY
W(PB)
SciTegic.value.DoubleValue
-62.392

@<SCITEGIC>MOL_PROPERTY
W(SA)
SciTegic.value.DoubleValue
2.452

@<SCITEGIC>MOL_PROPERTY
Valence
SciTegic.value.DoubleValue
8.883

@<SCITEGIC>MOL_PROPERTY
Coulomb
SciTegic.value.DoubleValue
-0.122

@<SCITEGIC>MOL_PROPERTY
VdW
SciTegic.value.DoubleValue
1.003

@<SCITEGIC>MOL_PROPERTY
VdW6
SciTegic.value.DoubleValue
-9.782

@<SCITEGIC>MOL_PROPERTY
VdW12
SciTegic.value.DoubleValue
10.785

@<SCITEGIC>MOL_PROPERTY
Bond
SciTegic.value.DoubleValue
0.212

@<SCITEGIC>MOL_PROPERTY
Angle
SciTegic.value.DoubleValue
2.940

@<SCITEGIC>MOL_PROPERTY
Pdih
SciTegic.value.DoubleValue
5.730

@<SCITEGIC>MOL_PROPERTY
Idih
SciTegic.value.DoubleValue
0.001

@<SCITEGIC>MOL_PROPERTY
Tether
SciTegic.value.DoubleValue
0.000

@<TRIPOS>MOLECULE
guest-8_confgen4.mol2 : confsearch ligand conformer 119
          25          24           1
SMALL
USER_CHARGES
 
@<TRIPOS>ATOM
       1    C1      19.084574   18.928058   19.504982 C.2        1 MOL1         0.6168
       2    O1      17.887667   19.134655   19.542616 O.co2      1 MOL1        -0.6703
       3    O2      19.798246   19.270461   18.582933 O.co2      1 MOL1        -0.6703
       4    C2      19.729828   18.216023   20.688544 C.3        1 MOL1        -0.1963
       5    H1      20.568858   17.619445   20.310910 H          1 MOL1         0.0750
       6    H2      18.996135   17.516329   21.106512 H          1 MOL1         0.0750
       7    C3      20.219002   19.194188   21.784833 C.3        1 MOL1        -0.1860
       8    H3      20.946214   19.893635   21.350002 H          1 MOL1         0.0752
       9    H4      19.366653   19.792890   22.132455 H          1 MOL1         0.0752
      10    C4      20.862150   18.446290   22.975479 C.3        1 MOL1        -0.1858
      11    H5      21.666810   17.800207   22.599019 H          1 MOL1         0.0752
      12    H6      20.124204   17.776367   23.435962 H          1 MOL1         0.0752
      13    C5      21.457681   19.391964   24.048503 C.3        1 MOL1        -0.1858
      14    H7      21.944320   18.786198   24.824138 H          1 MOL1         0.0752
      15    H8      22.259272   19.986994   23.590397 H          1 MOL1         0.0752
      16    C6      20.443964   20.358593   24.716206 C.3        1 MOL1        -0.1858
      17    H9      20.078279   21.074751   23.968771 H          1 MOL1         0.0752
      18    H10     20.975713   20.959290   25.466469 H          1 MOL1         0.0752
      19    C7      19.229937   19.676236   25.393449 C.3        1 MOL1        -0.1834
      20    H11     18.574745   20.455927   25.805409 H          1 MOL1         0.0752
      21    H12     18.631165   19.140918   24.644624 H          1 MOL1         0.0752
      22    C8      19.628635   18.710259   26.530098 C.3        1 MOL1        -0.2849
      23    H13     20.242607   19.221597   27.282764 H          1 MOL1         0.0764
      24    H14     18.734962   18.317389   27.031824 H          1 MOL1         0.0764
      25    H15     20.197388   17.854707   26.144746 H          1 MOL1         0.0764
@<TRIPOS>BOND
    1     1     2    1
    2     1     3    2
    3     1     4    1
    4     4     5    1
    5     4     6    1
    6     4     7    1
    7     7     8    1
    8     7     9    1
    9     7    10    1
   10    10    11    1
   11    10    12    1
   12    10    13    1
   13    13    14    1
   14    13    15    1
   15    13    16    1
   16    16    17    1
   17    16    18    1
   18    16    19    1
   19    19    20    1
   20    19    21    1
   21    19    22    1
   22    22    23    1
   23    22    24    1
   24    22    25    1
@<TRIPOS>SUBSTRUCTURE
       1 MOL1            1 RESIDUE      1      MOL     
@<SCITEGIC>MOL_PROPERTY
VConf Rank
SciTegic.value.IntegerValue
119

@<SCITEGIC>MOL_PROPERTY
Conf_Id
SciTegic.value.IntegerValue
29

@<SCITEGIC>MOL_PROPERTY
Delta U+W
SciTegic.value.DoubleValue
0.850

@<SCITEGIC>MOL_PROPERTY
U+W
SciTegic.value.DoubleValue
-50.780

@<SCITEGIC>MOL_PROPERTY
Grad RMS
SciTegic.value.DoubleValue
0.000000

@<SCITEGIC>MOL_PROPERTY
U
SciTegic.value.DoubleValue
8.646

@<SCITEGIC>MOL_PROPERTY
W
SciTegic.value.DoubleValue
-59.426

@<SCITEGIC>MOL_PROPERTY
W(PB)
SciTegic.value.DoubleValue
-61.868

@<SCITEGIC>MOL_PROPERTY
W(SA)
SciTegic.value.DoubleValue
2.442

@<SCITEGIC>MOL_PROPERTY
Valence
SciTegic.value.DoubleValue
8.924

@<SCITEGIC>MOL_PROPERTY
Coulomb
SciTegic.value.DoubleValue
-1.171

@<SCITEGIC>MOL_PROPERTY
VdW
SciTegic.value.DoubleValue
0.894

@<SCITEGIC>MOL_PROPERTY
VdW6
SciTegic.value.DoubleValue
-10.223

@<SCITEGIC>MOL_PROPERTY
VdW12
SciTegic.value.DoubleValue
11.117

@<SCITEGIC>MOL_PROPERTY
Bond
SciTegic.value.DoubleValue
0.231

@<SCITEGIC>MOL_PROPERTY
Angle
SciTegic.value.DoubleValue
3.232

@<SCITEGIC>MOL_PROPERTY
Pdih
SciTegic.value.DoubleValue
5.461

@<SCITEGIC>MOL_PROPERTY
Idih
SciTegic.value.DoubleValue
0.001

@<SCITEGIC>MOL_PROPERTY
Tether
SciTegic.value.DoubleValue
0.000

@<TRIPOS>MOLECULE
guest-8_confgen4.mol2 : confsearch ligand conformer 120
          25          24           1
SMALL
USER_CHARGES
 
@<TRIPOS>ATOM
       1    C1      22.024810   22.133754   25.013844 C.2        1 MOL1         0.6168
       2    O1      21.361942   22.362307   26.006344 O.co2      1 MOL1        -0.6703
       3    O2      22.650193   22.983883   24.411419 O.co2      1 MOL1        -0.6703
       4    C2      22.058541   20.704670   24.483982 C.3        1 MOL1        -0.1963
       5    H1      21.971868   20.022436   25.338158 H          1 MOL1         0.0750
       6    H2      23.041762   20.532948   24.029813 H          1 MOL1         0.0750
       7    C3      20.936477   20.417834   23.456046 C.3        1 MOL1        -0.1860
       8    H3      19.964461   20.615639   23.927049 H          1 MOL1         0.0752
       9    H4      21.030910   21.113529   22.610923 H          1 MOL1         0.0752
      10    C4      20.989177   18.960971   22.940868 C.3        1 MOL1        -0.1858
      11    H5      20.854760   18.265124   23.779401 H          1 MOL1         0.0752
      12    H6      21.990789   18.760885   22.536690 H          1 MOL1         0.0752
      13    C5      19.947601   18.660281   21.834051 C.3        1 MOL1        -0.1858
      14    H7      20.157928   19.300444   20.966626 H          1 MOL1         0.0752
      15    H8      20.090308   17.629674   21.483530 H          1 MOL1         0.0752
      16    C6      18.465177   18.858737   22.247399 C.3        1 MOL1        -0.1858
      17    H9      17.826037   18.598019   21.392989 H          1 MOL1         0.0752
      18    H10     18.281205   19.923699   22.440471 H          1 MOL1         0.0752
      19    C7      18.008735   18.039210   23.479539 C.3        1 MOL1        -0.1834
      20    H11     18.574759   18.346988   24.368766 H          1 MOL1         0.0752
      21    H12     16.957680   18.279589   23.690263 H          1 MOL1         0.0752
      22    C8      18.139481   16.513691   23.280198 C.3        1 MOL1        -0.2849
      23    H13     19.189589   16.214591   23.171770 H          1 MOL1         0.0764
      24    H14     17.727612   15.976461   24.144187 H          1 MOL1         0.0764
      25    H15     17.593618   16.186285   22.385897 H          1 MOL1         0.0764
@<TRIPOS>BOND
    1     1     2    1
    2     1     3    2
    3     1     4    1
    4     4     5    1
    5     4     6    1
    6     4     7    1
    7     7     8    1
    8     7     9    1
    9     7    10    1
   10    10    11    1
   11    10    12    1
   12    10    13    1
   13    13    14    1
   14    13    15    1
   15    13    16    1
   16    16    17    1
   17    16    18    1
   18    16    19    1
   19    19    20    1
   20    19    21    1
   21    19    22    1
   22    22    23    1
   23    22    24    1
   24    22    25    1
@<TRIPOS>SUBSTRUCTURE
       1 MOL1            1 RESIDUE      1      MOL     
@<SCITEGIC>MOL_PROPERTY
VConf Rank
SciTegic.value.IntegerValue
120

@<SCITEGIC>MOL_PROPERTY
Conf_Id
SciTegic.value.IntegerValue
30

@<SCITEGIC>MOL_PROPERTY
Delta U+W
SciTegic.value.DoubleValue
0.843

@<SCITEGIC>MOL_PROPERTY
U+W
SciTegic.value.DoubleValue
-50.787

@<SCITEGIC>MOL_PROPERTY
Grad RMS
SciTegic.value.DoubleValue
0.000000

@<SCITEGIC>MOL_PROPERTY
U
SciTegic.value.DoubleValue
8.647

@<SCITEGIC>MOL_PROPERTY
W
SciTegic.value.DoubleValue
-59.434

@<SCITEGIC>MOL_PROPERTY
W(PB)
SciTegic.value.DoubleValue
-61.861

@<SCITEGIC>MOL_PROPERTY
W(SA)
SciTegic.value.DoubleValue
2.428

@<SCITEGIC>MOL_PROPERTY
Valence
SciTegic.value.DoubleValue
8.924

@<SCITEGIC>MOL_PROPERTY
Coulomb
SciTegic.value.DoubleValue
-1.170

@<SCITEGIC>MOL_PROPERTY
VdW
SciTegic.value.DoubleValue
0.894

@<SCITEGIC>MOL_PROPERTY
VdW6
SciTegic.value.DoubleValue
-10.224

@<SCITEGIC>MOL_PROPERTY
VdW12
SciTegic.value.DoubleValue
11.118

@<SCITEGIC>MOL_PROPERTY
Bond
SciTegic.value.DoubleValue
0.231

@<SCITEGIC>MOL_PROPERTY
Angle
SciTegic.value.DoubleValue
3.232

@<SCITEGIC>MOL_PROPERTY
Pdih
SciTegic.value.DoubleValue
5.460

@<SCITEGIC>MOL_PROPERTY
Idih
SciTegic.value.DoubleValue
0.000

@<SCITEGIC>MOL_PROPERTY
Tether
SciTegic.value.DoubleValue
0.000

@<TRIPOS>MOLECULE
guest-8_confgen4.mol2 : confsearch ligand conformer 121
          25          24           1
SMALL
USER_CHARGES
 
@<TRIPOS>ATOM
       1    C1      23.704868   21.112891   25.403659 C.2        1 MOL1         0.6168
       2    O1      23.103297   22.141190   25.647208 O.co2      1 MOL1        -0.6703
       3    O2      24.852575   20.917135   25.750886 O.co2      1 MOL1        -0.6703
       4    C2      23.010911   19.994367   24.624734 C.3        1 MOL1        -0.1963
       5    H1      23.041983   19.093539   25.248794 H          1 MOL1         0.0750
       6    H2      23.618401   19.789864   23.735329 H          1 MOL1         0.0750
       7    C3      21.546940   20.290545   24.203446 C.3        1 MOL1        -0.1860
       8    H3      20.945463   20.500812   25.098721 H          1 MOL1         0.0752
       9    H4      21.522396   21.197733   23.583839 H          1 MOL1         0.0752
      10    C4      20.923926   19.112010   23.423987 C.3        1 MOL1        -0.1858
      11    H5      20.949598   18.206234   24.045313 H          1 MOL1         0.0752
      12    H6      21.526878   18.903606   22.529474 H          1 MOL1         0.0752
      13    C5      19.467680   19.408769   23.005931 C.3        1 MOL1        -0.1858
      14    H7      18.864477   19.617180   23.900254 H          1 MOL1         0.0752
      15    H8      19.441699   20.314479   22.384548 H          1 MOL1         0.0752
      16    C6      18.844143   18.230778   22.226538 C.3        1 MOL1        -0.1858
      17    H9      18.869974   17.324961   22.847764 H          1 MOL1         0.0752
      18    H10     19.447136   18.022258   21.332104 H          1 MOL1         0.0752
      19    C7      17.388526   18.527276   21.808651 C.3        1 MOL1        -0.1834
      20    H11     16.781791   18.734529   22.701067 H          1 MOL1         0.0752
      21    H12     17.358944   19.431814   21.185415 H          1 MOL1         0.0752
      22    C8      16.769461   17.348661   21.030687 C.3        1 MOL1        -0.2849
      23    H13     16.757393   16.437170   21.642599 H          1 MOL1         0.0764
      24    H14     15.735217   17.576477   20.741675 H          1 MOL1         0.0764
      25    H15     17.338872   17.139714   20.115532 H          1 MOL1         0.0764
@<TRIPOS>BOND
    1     1     2    1
    2     1     3    2
    3     1     4    1
    4     4     5    1
    5     4     6    1
    6     4     7    1
    7     7     8    1
    8     7     9    1
    9     7    10    1
   10    10    11    1
   11    10    12    1
   12    10    13    1
   13    13    14    1
   14    13    15    1
   15    13    16    1
   16    16    17    1
   17    16    18    1
   18    16    19    1
   19    19    20    1
   20    19    21    1
   21    19    22    1
   22    22    23    1
   23    22    24    1
   24    22    25    1
@<TRIPOS>SUBSTRUCTURE
       1 MOL1            1 RESIDUE      1      MOL     
@<SCITEGIC>MOL_PROPERTY
VConf Rank
SciTegic.value.IntegerValue
121

@<SCITEGIC>MOL_PROPERTY
Conf_Id
SciTegic.value.IntegerValue
0

@<SCITEGIC>MOL_PROPERTY
Delta U+W
SciTegic.value.DoubleValue
0.000

@<SCITEGIC>MOL_PROPERTY
U+W
SciTegic.value.DoubleValue
-51.629

@<SCITEGIC>MOL_PROPERTY
Grad RMS
SciTegic.value.DoubleValue
0.000000

@<SCITEGIC>MOL_PROPERTY
U
SciTegic.value.DoubleValue
6.586

@<SCITEGIC>MOL_PROPERTY
W
SciTegic.value.DoubleValue
-58.216

@<SCITEGIC>MOL_PROPERTY
W(PB)
SciTegic.value.DoubleValue
-60.757

@<SCITEGIC>MOL_PROPERTY
W(SA)
SciTegic.value.DoubleValue
2.541

@<SCITEGIC>MOL_PROPERTY
Valence
SciTegic.value.DoubleValue
8.027

@<SCITEGIC>MOL_PROPERTY
Coulomb
SciTegic.value.DoubleValue
-2.892

@<SCITEGIC>MOL_PROPERTY
VdW
SciTegic.value.DoubleValue
1.451

@<SCITEGIC>MOL_PROPERTY
VdW6
SciTegic.value.DoubleValue
-7.931

@<SCITEGIC>MOL_PROPERTY
VdW12
SciTegic.value.DoubleValue
9.383

@<SCITEGIC>MOL_PROPERTY
Bond
SciTegic.value.DoubleValue
0.149

@<SCITEGIC>MOL_PROPERTY
Angle
SciTegic.value.DoubleValue
2.726

@<SCITEGIC>MOL_PROPERTY
Pdih
SciTegic.value.DoubleValue
5.152

@<SCITEGIC>MOL_PROPERTY
Idih
SciTegic.value.DoubleValue
0.000

@<SCITEGIC>MOL_PROPERTY
Tether
SciTegic.value.DoubleValue
0.000

@<TRIPOS>MOLECULE
guest-8_confgen4.mol2 : confsearch ligand conformer 122
          25          24           1
SMALL
USER_CHARGES
 
@<TRIPOS>ATOM
       1    C1      20.922703   21.404396   19.126401 C.2        1 MOL1         0.6168
       2    O1      19.926891   21.856439   18.596652 O.co2      1 MOL1        -0.6703
       3    O2      22.019385   21.922401   19.051695 O.co2      1 MOL1        -0.6703
       4    C2      20.783877   20.128827   19.949646 C.3        1 MOL1        -0.1963
       5    H1      21.722872   19.568008   19.869799 H          1 MOL1         0.0750
       6    H2      19.998761   19.513322   19.494288 H          1 MOL1         0.0750
       7    C3      20.451261   20.405941   21.436454 C.3        1 MOL1        -0.1860
       8    H3      21.239888   21.033953   21.873789 H          1 MOL1         0.0752
       9    H4      19.515895   20.979407   21.498264 H          1 MOL1         0.0752
      10    C4      20.315725   19.099655   22.248407 C.3        1 MOL1        -0.1858
      11    H5      21.251936   18.528252   22.183681 H          1 MOL1         0.0752
      12    H6      19.527596   18.473580   21.807882 H          1 MOL1         0.0752
      13    C5      19.983940   19.379045   23.730071 C.3        1 MOL1        -0.1858
      14    H7      20.771960   20.005037   24.170824 H          1 MOL1         0.0752
      15    H8      19.047767   19.950416   23.795021 H          1 MOL1         0.0752
      16    C6      19.848194   18.073216   24.542637 C.3        1 MOL1        -0.1858
      17    H9      20.784262   17.501648   24.477975 H          1 MOL1         0.0752
      18    H10     19.060222   17.446998   24.102130 H          1 MOL1         0.0752
      19    C7      19.516476   18.352290   26.023665 C.3        1 MOL1        -0.1834
      20    H11     20.303590   18.977009   26.468262 H          1 MOL1         0.0752
      21    H12     18.579557   18.922328   26.092423 H          1 MOL1         0.0752
      22    C8      19.381776   17.045909   26.831643 C.3        1 MOL1        -0.2849
      23    H13     19.146005   17.262918   27.881599 H          1 MOL1         0.0764
      24    H14     18.579238   16.415038   26.427499 H          1 MOL1         0.0764
      25    H15     20.316246   16.470138   26.806163 H          1 MOL1         0.0764
@<TRIPOS>BOND
    1     1     2    1
    2     1     3    2
    3     1     4    1
    4     4     5    1
    5     4     6    1
    6     4     7    1
    7     7     8    1
    8     7     9    1
    9     7    10    1
   10    10    11    1
   11    10    12    1
   12    10    13    1
   13    13    14    1
   14    13    15    1
   15    13    16    1
   16    16    17    1
   17    16    18    1
   18    16    19    1
   19    19    20    1
   20    19    21    1
   21    19    22    1
   22    22    23    1
   23    22    24    1
   24    22    25    1
@<TRIPOS>SUBSTRUCTURE
       1 MOL1            1 RESIDUE      1      MOL     
@<SCITEGIC>MOL_PROPERTY
VConf Rank
SciTegic.value.IntegerValue
122

@<SCITEGIC>MOL_PROPERTY
Conf_Id
SciTegic.value.IntegerValue
27

@<SCITEGIC>MOL_PROPERTY
Delta U+W
SciTegic.value.DoubleValue
-1.297

@<SCITEGIC>MOL_PROPERTY
U+W
SciTegic.value.DoubleValue
-52.926

@<SCITEGIC>MOL_PROPERTY
Grad RMS
SciTegic.value.DoubleValue
0.000000

@<SCITEGIC>MOL_PROPERTY
U
SciTegic.value.DoubleValue
5.617

@<SCITEGIC>MOL_PROPERTY
W
SciTegic.value.DoubleValue
-58.543

@<SCITEGIC>MOL_PROPERTY
W(PB)
SciTegic.value.DoubleValue
-61.065

@<SCITEGIC>MOL_PROPERTY
W(SA)
SciTegic.value.DoubleValue
2.522

@<SCITEGIC>MOL_PROPERTY
Valence
SciTegic.value.DoubleValue
7.531

@<SCITEGIC>MOL_PROPERTY
Coulomb
SciTegic.value.DoubleValue
-2.818

@<SCITEGIC>MOL_PROPERTY
VdW
SciTegic.value.DoubleValue
0.904

@<SCITEGIC>MOL_PROPERTY
VdW6
SciTegic.value.DoubleValue
-7.640

@<SCITEGIC>MOL_PROPERTY
VdW12
SciTegic.value.DoubleValue
8.544

@<SCITEGIC>MOL_PROPERTY
Bond
SciTegic.value.DoubleValue
0.115

@<SCITEGIC>MOL_PROPERTY
Angle
SciTegic.value.DoubleValue
2.271

@<SCITEGIC>MOL_PROPERTY
Pdih
SciTegic.value.DoubleValue
5.144

@<SCITEGIC>MOL_PROPERTY
Idih
SciTegic.value.DoubleValue
0.001

@<SCITEGIC>MOL_PROPERTY
Tether
SciTegic.value.DoubleValue
0.000

@<TRIPOS>MOLECULE
guest-8_confgen4.mol2 : confsearch ligand conformer 123
          25          24           1
SMALL
USER_CHARGES
 
@<TRIPOS>ATOM
       1    C1      17.173256   18.407627   25.878210 C.2        1 MOL1         0.6168
       2    O1      16.087539   18.364798   25.333730 O.co2      1 MOL1        -0.6703
       3    O2      17.698204   17.448417   26.408596 O.co2      1 MOL1        -0.6703
       4    C2      17.908449   19.744551   25.911192 C.3        1 MOL1        -0.1963
       5    H1      18.666474   19.707782   26.702957 H          1 MOL1         0.0750
       6    H2      17.181368   20.511419   26.203173 H          1 MOL1         0.0750
       7    C3      18.562455   20.137722   24.561141 C.3        1 MOL1        -0.1860
       8    H3      17.796159   20.143173   23.773466 H          1 MOL1         0.0752
       9    H4      18.945716   21.164365   24.636392 H          1 MOL1         0.0752
      10    C4      19.716641   19.191014   24.161932 C.3        1 MOL1        -0.1858
      11    H5      19.337316   18.164070   24.067475 H          1 MOL1         0.0752
      12    H6      20.473351   19.178672   24.958337 H          1 MOL1         0.0752
      13    C5      20.373562   19.619407   22.832058 C.3        1 MOL1        -0.1858
      14    H7      19.616121   19.631429   22.036303 H          1 MOL1         0.0752
      15    H8      20.756328   20.645012   22.925133 H          1 MOL1         0.0752
      16    C6      21.526371   18.673399   22.432106 C.3        1 MOL1        -0.1858
      17    H9      21.143755   17.647692   22.339058 H          1 MOL1         0.0752
      18    H10     22.283765   18.660952   23.227896 H          1 MOL1         0.0752
      19    C7      22.182972   19.100883   21.102631 C.3        1 MOL1        -0.1834
      20    H11     21.428496   19.112663   20.303814 H          1 MOL1         0.0752
      21    H12     22.568605   20.125900   21.192666 H          1 MOL1         0.0752
      22    C8      23.333437   18.153606   20.706773 C.3        1 MOL1        -0.2849
      23    H13     22.969542   17.125676   20.578957 H          1 MOL1         0.0764
      24    H14     23.788529   18.472157   19.759938 H          1 MOL1         0.0764
      25    H15     24.118233   18.146490   21.474522 H          1 MOL1         0.0764
@<TRIPOS>BOND
    1     1     2    1
    2     1     3    2
    3     1     4    1
    4     4     5    1
    5     4     6    1
    6     4     7    1
    7     7     8    1
    8     7     9    1
    9     7    10    1
   10    10    11    1
   11    10    12    1
   12    10    13    1
   13    13    14    1
   14    13    15    1
   15    13    16    1
   16    16    17    1
   17    16    18    1
   18    16    19    1
   19    19    20    1
   20    19    21    1
   21    19    22    1
   22    22    23    1
   23    22    24    1
   24    22    25    1
@<TRIPOS>SUBSTRUCTURE
       1 MOL1            1 RESIDUE      1      MOL     
@<SCITEGIC>MOL_PROPERTY
VConf Rank
SciTegic.value.IntegerValue
123

@<SCITEGIC>MOL_PROPERTY
Conf_Id
SciTegic.value.IntegerValue
37

@<SCITEGIC>MOL_PROPERTY
Delta U+W
SciTegic.value.DoubleValue
-0.230

@<SCITEGIC>MOL_PROPERTY
U+W
SciTegic.value.DoubleValue
-51.860

@<SCITEGIC>MOL_PROPERTY
Grad RMS
SciTegic.value.DoubleValue
0.000000

@<SCITEGIC>MOL_PROPERTY
U
SciTegic.value.DoubleValue
7.816

@<SCITEGIC>MOL_PROPERTY
W
SciTegic.value.DoubleValue
-59.675

@<SCITEGIC>MOL_PROPERTY
W(PB)
SciTegic.value.DoubleValue
-62.180

@<SCITEGIC>MOL_PROPERTY
W(SA)
SciTegic.value.DoubleValue
2.505

@<SCITEGIC>MOL_PROPERTY
Valence
SciTegic.value.DoubleValue
7.785

@<SCITEGIC>MOL_PROPERTY
Coulomb
SciTegic.value.DoubleValue
-0.713

@<SCITEGIC>MOL_PROPERTY
VdW
SciTegic.value.DoubleValue
0.744

@<SCITEGIC>MOL_PROPERTY
VdW6
SciTegic.value.DoubleValue
-8.514

@<SCITEGIC>MOL_PROPERTY
VdW12
SciTegic.value.DoubleValue
9.259

@<SCITEGIC>MOL_PROPERTY
Bond
SciTegic.value.DoubleValue
0.136

@<SCITEGIC>MOL_PROPERTY
Angle
SciTegic.value.DoubleValue
2.433

@<SCITEGIC>MOL_PROPERTY
Pdih
SciTegic.value.DoubleValue
5.216

@<SCITEGIC>MOL_PROPERTY
Idih
SciTegic.value.DoubleValue
0.000

@<SCITEGIC>MOL_PROPERTY
Tether
SciTegic.value.DoubleValue
0.000

@<TRIPOS>MOLECULE
guest-8_confgen4.mol2 : confsearch ligand conformer 124
          25          24           1
SMALL
USER_CHARGES
 
@<TRIPOS>ATOM
       1    C1      20.675564   18.277717   27.160117 C.2        1 MOL1         0.6168
       2    O1      20.033381   17.310782   27.520274 O.co2      1 MOL1        -0.6703
       3    O2      20.511689   19.397316   27.603520 O.co2      1 MOL1        -0.6703
       4    C2      21.757849   18.069082   26.104608 C.3        1 MOL1        -0.1963
       5    H1      22.329475   17.178998   26.392668 H          1 MOL1         0.0750
       6    H2      22.451496   18.917791   26.141941 H          1 MOL1         0.0750
       7    C3      21.208537   17.888956   24.665596 C.3        1 MOL1        -0.1860
       8    H3      22.036686   17.609295   24.000383 H          1 MOL1         0.0752
       9    H4      20.494777   17.053498   24.650433 H          1 MOL1         0.0752
      10    C4      20.529673   19.167205   24.124310 C.3        1 MOL1        -0.1858
      11    H5      21.242968   20.002281   24.154007 H          1 MOL1         0.0752
      12    H6      19.688679   19.443773   24.775203 H          1 MOL1         0.0752
      13    C5      20.018863   18.975527   22.680024 C.3        1 MOL1        -0.1858
      14    H7      20.858675   18.701751   22.026727 H          1 MOL1         0.0752
      15    H8      19.305582   18.140364   22.651368 H          1 MOL1         0.0752
      16    C6      19.339786   20.252138   22.138752 C.3        1 MOL1        -0.1858
      17    H9      20.052816   21.087505   22.167593 H          1 MOL1         0.0752
      18    H10     18.499989   20.526137   22.792046 H          1 MOL1         0.0752
      19    C7      18.828495   20.060838   20.695370 C.3        1 MOL1        -0.1834
      20    H11     19.666312   19.788402   20.038621 H          1 MOL1         0.0752
      21    H12     18.113411   19.227112   20.663126 H          1 MOL1         0.0752
      22    C8      18.151094   21.337820   20.158669 C.3        1 MOL1        -0.2849
      23    H13     18.853812   22.181329   20.150153 H          1 MOL1         0.0764
      24    H14     17.793790   21.184054   19.132135 H          1 MOL1         0.0764
      25    H15     17.289256   21.615845   20.779424 H          1 MOL1         0.0764
@<TRIPOS>BOND
    1     1     2    1
    2     1     3    2
    3     1     4    1
    4     4     5    1
    5     4     6    1
    6     4     7    1
    7     7     8    1
    8     7     9    1
    9     7    10    1
   10    10    11    1
   11    10    12    1
   12    10    13    1
   13    13    14    1
   14    13    15    1
   15    13    16    1
   16    16    17    1
   17    16    18    1
   18    16    19    1
   19    19    20    1
   20    19    21    1
   21    19    22    1
   22    22    23    1
   23    22    24    1
   24    22    25    1
@<TRIPOS>SUBSTRUCTURE
       1 MOL1            1 RESIDUE      1      MOL     
@<SCITEGIC>MOL_PROPERTY
VConf Rank
SciTegic.value.IntegerValue
124

@<SCITEGIC>MOL_PROPERTY
Conf_Id
SciTegic.value.IntegerValue
54

@<SCITEGIC>MOL_PROPERTY
Delta U+W
SciTegic.value.DoubleValue
-0.224

@<SCITEGIC>MOL_PROPERTY
U+W
SciTegic.value.DoubleValue
-51.854

@<SCITEGIC>MOL_PROPERTY
Grad RMS
SciTegic.value.DoubleValue
0.000000

@<SCITEGIC>MOL_PROPERTY
U
SciTegic.value.DoubleValue
7.816

@<SCITEGIC>MOL_PROPERTY
W
SciTegic.value.DoubleValue
-59.670

@<SCITEGIC>MOL_PROPERTY
W(PB)
SciTegic.value.DoubleValue
-62.157

@<SCITEGIC>MOL_PROPERTY
W(SA)
SciTegic.value.DoubleValue
2.487

@<SCITEGIC>MOL_PROPERTY
Valence
SciTegic.value.DoubleValue
7.785

@<SCITEGIC>MOL_PROPERTY
Coulomb
SciTegic.value.DoubleValue
-0.713

@<SCITEGIC>MOL_PROPERTY
VdW
SciTegic.value.DoubleValue
0.744

@<SCITEGIC>MOL_PROPERTY
VdW6
SciTegic.value.DoubleValue
-8.515

@<SCITEGIC>MOL_PROPERTY
VdW12
SciTegic.value.DoubleValue
9.259

@<SCITEGIC>MOL_PROPERTY
Bond
SciTegic.value.DoubleValue
0.136

@<SCITEGIC>MOL_PROPERTY
Angle
SciTegic.value.DoubleValue
2.433

@<SCITEGIC>MOL_PROPERTY
Pdih
SciTegic.value.DoubleValue
5.215

@<SCITEGIC>MOL_PROPERTY
Idih
SciTegic.value.DoubleValue
0.000

@<SCITEGIC>MOL_PROPERTY
Tether
SciTegic.value.DoubleValue
0.000

@<TRIPOS>MOLECULE
guest-8_confgen4.mol2 : confsearch ligand conformer 125
          25          24           1
SMALL
USER_CHARGES
 
@<TRIPOS>ATOM
       1    C1      19.028777   22.580921   25.121470 C.2        1 MOL1         0.6168
       2    O1      18.777294   23.342307   24.208180 O.co2      1 MOL1        -0.6703
       3    O2      18.280633   22.384788   26.058979 O.co2      1 MOL1        -0.6703
       4    C2      20.364882   21.843624   25.101434 C.3        1 MOL1        -0.1963
       5    H1      20.800979   21.930330   26.103567 H          1 MOL1         0.0750
       6    H2      21.042493   22.364560   24.414194 H          1 MOL1         0.0750
       7    C3      20.255095   20.346143   24.712640 C.3        1 MOL1        -0.1860
       8    H3      21.230907   19.872752   24.878462 H          1 MOL1         0.0752
       9    H4      19.541971   19.847574   25.383670 H          1 MOL1         0.0752
      10    C4      19.819533   20.145222   23.240951 C.3        1 MOL1        -0.1858
      11    H5      20.557320   20.604734   22.569165 H          1 MOL1         0.0752
      12    H6      18.873640   20.677445   23.070650 H          1 MOL1         0.0752
      13    C5      19.616872   18.661203   22.851628 C.3        1 MOL1        -0.1858
      14    H7      18.893216   18.197218   23.535452 H          1 MOL1         0.0752
      15    H8      19.163209   18.632792   21.852853 H          1 MOL1         0.0752
      16    C6      20.929532   17.839216   22.842123 C.3        1 MOL1        -0.1858
      17    H9      21.381392   17.859933   23.841757 H          1 MOL1         0.0752
      18    H10     21.654571   18.306526   22.162008 H          1 MOL1         0.0752
      19    C7      20.724603   16.359265   22.441831 C.3        1 MOL1        -0.1834
      20    H11     21.669994   15.820328   22.593580 H          1 MOL1         0.0752
      21    H12     19.990400   15.891614   23.112315 H          1 MOL1         0.0752
      22    C8      20.280686   16.175300   20.974169 C.3        1 MOL1        -0.2849
      23    H13     19.280851   16.592297   20.801405 H          1 MOL1         0.0764
      24    H14     20.982471   16.665496   20.286917 H          1 MOL1         0.0764
      25    H15     20.244047   15.109148   20.715549 H          1 MOL1         0.0764
@<TRIPOS>BOND
    1     1     2    1
    2     1     3    2
    3     1     4    1
    4     4     5    1
    5     4     6    1
    6     4     7    1
    7     7     8    1
    8     7     9    1
    9     7    10    1
   10    10    11    1
   11    10    12    1
   12    10    13    1
   13    13    14    1
   14    13    15    1
   15    13    16    1
   16    16    17    1
   17    16    18    1
   18    16    19    1
   19    19    20    1
   20    19    21    1
   21    19    22    1
   22    22    23    1
   23    22    24    1
   24    22    25    1
@<TRIPOS>SUBSTRUCTURE
       1 MOL1            1 RESIDUE      1      MOL     
@<SCITEGIC>MOL_PROPERTY
VConf Rank
SciTegic.value.IntegerValue
125

@<SCITEGIC>MOL_PROPERTY
Conf_Id
SciTegic.value.IntegerValue
101

@<SCITEGIC>MOL_PROPERTY
Delta U+W
SciTegic.value.DoubleValue
1.534

@<SCITEGIC>MOL_PROPERTY
U+W
SciTegic.value.DoubleValue
-50.095

@<SCITEGIC>MOL_PROPERTY
Grad RMS
SciTegic.value.DoubleValue
0.000000

@<SCITEGIC>MOL_PROPERTY
U
SciTegic.value.DoubleValue
9.416

@<SCITEGIC>MOL_PROPERTY
W
SciTegic.value.DoubleValue
-59.512

@<SCITEGIC>MOL_PROPERTY
W(PB)
SciTegic.value.DoubleValue
-61.988

@<SCITEGIC>MOL_PROPERTY
W(SA)
SciTegic.value.DoubleValue
2.476

@<SCITEGIC>MOL_PROPERTY
Valence
SciTegic.value.DoubleValue
8.939

@<SCITEGIC>MOL_PROPERTY
Coulomb
SciTegic.value.DoubleValue
-0.615

@<SCITEGIC>MOL_PROPERTY
VdW
SciTegic.value.DoubleValue
1.092

@<SCITEGIC>MOL_PROPERTY
VdW6
SciTegic.value.DoubleValue
-9.710

@<SCITEGIC>MOL_PROPERTY
VdW12
SciTegic.value.DoubleValue
10.802

@<SCITEGIC>MOL_PROPERTY
Bond
SciTegic.value.DoubleValue
0.216

@<SCITEGIC>MOL_PROPERTY
Angle
SciTegic.value.DoubleValue
2.979

@<SCITEGIC>MOL_PROPERTY
Pdih
SciTegic.value.DoubleValue
5.743

@<SCITEGIC>MOL_PROPERTY
Idih
SciTegic.value.DoubleValue
0.000

@<SCITEGIC>MOL_PROPERTY
Tether
SciTegic.value.DoubleValue
0.000

@<TRIPOS>MOLECULE
guest-8_confgen4.mol2 : confsearch ligand conformer 126
          25          24           1
SMALL
USER_CHARGES
 
@<TRIPOS>ATOM
       1    C1      20.240661   15.010647   23.424900 C.2        1 MOL1         0.6168
       2    O1      19.397632   14.587814   22.658577 O.co2      1 MOL1        -0.6703
       3    O2      21.187772   14.354981   23.812018 O.co2      1 MOL1        -0.6703
       4    C2      20.115759   16.450572   23.909855 C.3        1 MOL1        -0.1963
       5    H1      20.533005   16.505583   24.922386 H          1 MOL1         0.0750
       6    H2      19.048038   16.684638   23.984320 H          1 MOL1         0.0750
       7    C3      20.835453   17.460884   22.978799 C.3        1 MOL1        -0.1860
       8    H3      21.877918   17.138239   22.849987 H          1 MOL1         0.0752
       9    H4      20.376933   17.432356   21.980678 H          1 MOL1         0.0752
      10    C4      20.830553   18.912408   23.515234 C.3        1 MOL1        -0.1858
      11    H5      21.479122   19.515053   22.866645 H          1 MOL1         0.0752
      12    H6      21.280464   18.936942   24.517005 H          1 MOL1         0.0752
      13    C5      19.418966   19.547504   23.559680 C.3        1 MOL1        -0.1858
      14    H7      18.969618   19.523715   22.558412 H          1 MOL1         0.0752
      15    H8      18.766117   18.942094   24.200761 H          1 MOL1         0.0752
      16    C6      19.409676   20.996576   24.109644 C.3        1 MOL1        -0.1858
      17    H9      19.781672   20.986771   25.143181 H          1 MOL1         0.0752
      18    H10     18.368815   21.343085   24.166282 H          1 MOL1         0.0752
      19    C7      20.231996   22.024880   23.293652 C.3        1 MOL1        -0.1834
      20    H11     20.149615   23.004827   23.783509 H          1 MOL1         0.0752
      21    H12     21.298166   21.764059   23.318073 H          1 MOL1         0.0752
      22    C8      19.762231   22.161420   21.829201 C.3        1 MOL1        -0.2849
      23    H13     18.691570   22.398660   21.780420 H          1 MOL1         0.0764
      24    H14     20.310983   22.966032   21.323002 H          1 MOL1         0.0764
      25    H15     19.936568   21.235382   21.266939 H          1 MOL1         0.0764
@<TRIPOS>BOND
    1     1     2    1
    2     1     3    2
    3     1     4    1
    4     4     5    1
    5     4     6    1
    6     4     7    1
    7     7     8    1
    8     7     9    1
    9     7    10    1
   10    10    11    1
   11    10    12    1
   12    10    13    1
   13    13    14    1
   14    13    15    1
   15    13    16    1
   16    16    17    1
   17    16    18    1
   18    16    19    1
   19    19    20    1
   20    19    21    1
   21    19    22    1
   22    22    23    1
   23    22    24    1
   24    22    25    1
@<TRIPOS>SUBSTRUCTURE
       1 MOL1            1 RESIDUE      1      MOL     
@<SCITEGIC>MOL_PROPERTY
VConf Rank
SciTegic.value.IntegerValue
126

@<SCITEGIC>MOL_PROPERTY
Conf_Id
SciTegic.value.IntegerValue
75

@<SCITEGIC>MOL_PROPERTY
Delta U+W
SciTegic.value.DoubleValue
1.014

@<SCITEGIC>MOL_PROPERTY
U+W
SciTegic.value.DoubleValue
-50.615

@<SCITEGIC>MOL_PROPERTY
Grad RMS
SciTegic.value.DoubleValue
0.000000

@<SCITEGIC>MOL_PROPERTY
U
SciTegic.value.DoubleValue
8.474

@<SCITEGIC>MOL_PROPERTY
W
SciTegic.value.DoubleValue
-59.089

@<SCITEGIC>MOL_PROPERTY
W(PB)
SciTegic.value.DoubleValue
-61.530

@<SCITEGIC>MOL_PROPERTY
W(SA)
SciTegic.value.DoubleValue
2.441

@<SCITEGIC>MOL_PROPERTY
Valence
SciTegic.value.DoubleValue
9.080

@<SCITEGIC>MOL_PROPERTY
Coulomb
SciTegic.value.DoubleValue
-1.772

@<SCITEGIC>MOL_PROPERTY
VdW
SciTegic.value.DoubleValue
1.165

@<SCITEGIC>MOL_PROPERTY
VdW6
SciTegic.value.DoubleValue
-9.830

@<SCITEGIC>MOL_PROPERTY
VdW12
SciTegic.value.DoubleValue
10.996

@<SCITEGIC>MOL_PROPERTY
Bond
SciTegic.value.DoubleValue
0.240

@<SCITEGIC>MOL_PROPERTY
Angle
SciTegic.value.DoubleValue
3.225

@<SCITEGIC>MOL_PROPERTY
Pdih
SciTegic.value.DoubleValue
5.615

@<SCITEGIC>MOL_PROPERTY
Idih
SciTegic.value.DoubleValue
0.001

@<SCITEGIC>MOL_PROPERTY
Tether
SciTegic.value.DoubleValue
0.000

@<TRIPOS>MOLECULE
guest-8_confgen4.mol2 : confsearch ligand conformer 127
          25          24           1
SMALL
USER_CHARGES
 
@<TRIPOS>ATOM
       1    C1      16.601145   18.570392   25.605394 C.2        1 MOL1         0.6168
       2    O1      15.735072   19.315670   25.191717 O.co2      1 MOL1        -0.6703
       3    O2      16.371489   17.526497   26.183505 O.co2      1 MOL1        -0.6703
       4    C2      18.056687   18.955959   25.367033 C.3        1 MOL1        -0.1963
       5    H1      18.651419   18.577186   26.206905 H          1 MOL1         0.0750
       6    H2      18.126905   20.050156   25.387261 H          1 MOL1         0.0750
       7    C3      18.612370   18.409370   24.028923 C.3        1 MOL1        -0.1860
       8    H3      18.523104   17.314186   24.018985 H          1 MOL1         0.0752
       9    H4      17.998137   18.787221   23.199778 H          1 MOL1         0.0752
      10    C4      20.086239   18.814358   23.810183 C.3        1 MOL1        -0.1858
      11    H5      20.696191   18.435044   24.641382 H          1 MOL1         0.0752
      12    H6      20.168962   19.907454   23.832791 H          1 MOL1         0.0752
      13    C5      20.638325   18.261025   22.475357 C.3        1 MOL1        -0.1858
      14    H7      20.567645   17.165085   22.504277 H          1 MOL1         0.0752
      15    H8      20.008066   18.586348   21.636454 H          1 MOL1         0.0752
      16    C6      22.115227   18.651072   22.212590 C.3        1 MOL1        -0.1858
      17    H9      22.607419   17.806156   21.711858 H          1 MOL1         0.0752
      18    H10     22.648789   18.786102   23.163335 H          1 MOL1         0.0752
      19    C7      22.304613   19.898658   21.314500 C.3        1 MOL1        -0.1834
      20    H11     23.378929   20.034143   21.128323 H          1 MOL1         0.0752
      21    H12     21.843221   19.719512   20.333551 H          1 MOL1         0.0752
      22    C8      21.739155   21.202304   21.915444 C.3        1 MOL1        -0.2849
      23    H13     22.132449   21.373695   22.925843 H          1 MOL1         0.0764
      24    H14     22.015891   22.063304   21.293471 H          1 MOL1         0.0764
      25    H15     20.643731   21.171153   21.967438 H          1 MOL1         0.0764
@<TRIPOS>BOND
    1     1     2    1
    2     1     3    2
    3     1     4    1
    4     4     5    1
    5     4     6    1
    6     4     7    1
    7     7     8    1
    8     7     9    1
    9     7    10    1
   10    10    11    1
   11    10    12    1
   12    10    13    1
   13    13    14    1
   14    13    15    1
   15    13    16    1
   16    16    17    1
   17    16    18    1
   18    16    19    1
   19    19    20    1
   20    19    21    1
   21    19    22    1
   22    22    23    1
   23    22    24    1
   24    22    25    1
@<TRIPOS>SUBSTRUCTURE
       1 MOL1            1 RESIDUE      1      MOL     
@<SCITEGIC>MOL_PROPERTY
VConf Rank
SciTegic.value.IntegerValue
127

@<SCITEGIC>MOL_PROPERTY
Conf_Id
SciTegic.value.IntegerValue
125

@<SCITEGIC>MOL_PROPERTY
Delta U+W
SciTegic.value.DoubleValue
2.314

@<SCITEGIC>MOL_PROPERTY
U+W
SciTegic.value.DoubleValue
-49.315

@<SCITEGIC>MOL_PROPERTY
Grad RMS
SciTegic.value.DoubleValue
0.000000

@<SCITEGIC>MOL_PROPERTY
U
SciTegic.value.DoubleValue
9.740

@<SCITEGIC>MOL_PROPERTY
W
SciTegic.value.DoubleValue
-59.054

@<SCITEGIC>MOL_PROPERTY
W(PB)
SciTegic.value.DoubleValue
-61.488

@<SCITEGIC>MOL_PROPERTY
W(SA)
SciTegic.value.DoubleValue
2.433

@<SCITEGIC>MOL_PROPERTY
Valence
SciTegic.value.DoubleValue
10.506

@<SCITEGIC>MOL_PROPERTY
Coulomb
SciTegic.value.DoubleValue
-1.761

@<SCITEGIC>MOL_PROPERTY
VdW
SciTegic.value.DoubleValue
0.994

@<SCITEGIC>MOL_PROPERTY
VdW6
SciTegic.value.DoubleValue
-9.209

@<SCITEGIC>MOL_PROPERTY
VdW12
SciTegic.value.DoubleValue
10.203

@<SCITEGIC>MOL_PROPERTY
Bond
SciTegic.value.DoubleValue
0.193

@<SCITEGIC>MOL_PROPERTY
Angle
SciTegic.value.DoubleValue
2.979

@<SCITEGIC>MOL_PROPERTY
Pdih
SciTegic.value.DoubleValue
7.334

@<SCITEGIC>MOL_PROPERTY
Idih
SciTegic.value.DoubleValue
0.001

@<SCITEGIC>MOL_PROPERTY
Tether
SciTegic.value.DoubleValue
0.000

@<TRIPOS>MOLECULE
guest-8_confgen4.mol2 : confsearch ligand conformer 128
          25          24           1
SMALL
USER_CHARGES
 
@<TRIPOS>ATOM
       1    C1      16.681816   21.305851   23.859907 C.2        1 MOL1         0.6168
       2    O1      16.091683   20.747100   24.763364 O.co2      1 MOL1        -0.6703
       3    O2      16.209755   22.217913   23.210259 O.co2      1 MOL1        -0.6703
       4    C2      18.082691   20.819875   23.505795 C.3        1 MOL1        -0.1963
       5    H1      18.560963   20.480223   24.431328 H          1 MOL1         0.0750
       6    H2      18.657485   21.678097   23.137800 H          1 MOL1         0.0750
       7    C3      18.074388   19.687222   22.446422 C.3        1 MOL1        -0.1860
       8    H3      17.536032   18.816171   22.844882 H          1 MOL1         0.0752
       9    H4      17.506181   20.028505   21.570002 H          1 MOL1         0.0752
      10    C4      19.488653   19.261674   21.984991 C.3        1 MOL1        -0.1858
      11    H5      20.020718   20.132598   21.578336 H          1 MOL1         0.0752
      12    H6      19.384127   18.546963   21.157240 H          1 MOL1         0.0752
      13    C5      20.332560   18.613203   23.106820 C.3        1 MOL1        -0.1858
      14    H7      20.500172   19.342389   23.908582 H          1 MOL1         0.0752
      15    H8      19.776834   17.773203   23.545148 H          1 MOL1         0.0752
      16    C6      21.694810   18.109672   22.575844 C.3        1 MOL1        -0.1858
      17    H9      22.272717   18.955588   22.179187 H          1 MOL1         0.0752
      18    H10     21.520354   17.428915   21.731463 H          1 MOL1         0.0752
      19    C7      22.532984   17.364693   23.640874 C.3        1 MOL1        -0.1834
      20    H11     21.959919   16.514513   24.035965 H          1 MOL1         0.0752
      21    H12     23.422532   16.940204   23.155343 H          1 MOL1         0.0752
      22    C8      22.987675   18.270869   24.805643 C.3        1 MOL1        -0.2849
      23    H13     22.132842   18.625742   25.394721 H          1 MOL1         0.0764
      24    H14     23.652001   17.719775   25.483773 H          1 MOL1         0.0764
      25    H15     23.536062   19.145451   24.432165 H          1 MOL1         0.0764
@<TRIPOS>BOND
    1     1     2    1
    2     1     3    2
    3     1     4    1
    4     4     5    1
    5     4     6    1
    6     4     7    1
    7     7     8    1
    8     7     9    1
    9     7    10    1
   10    10    11    1
   11    10    12    1
   12    10    13    1
   13    13    14    1
   14    13    15    1
   15    13    16    1
   16    16    17    1
   17    16    18    1
   18    16    19    1
   19    19    20    1
   20    19    21    1
   21    19    22    1
   22    22    23    1
   23    22    24    1
   24    22    25    1
@<TRIPOS>SUBSTRUCTURE
       1 MOL1            1 RESIDUE      1      MOL     
@<SCITEGIC>MOL_PROPERTY
VConf Rank
SciTegic.value.IntegerValue
128

@<SCITEGIC>MOL_PROPERTY
Conf_Id
SciTegic.value.IntegerValue
4

@<SCITEGIC>MOL_PROPERTY
Delta U+W
SciTegic.value.DoubleValue
0.189

@<SCITEGIC>MOL_PROPERTY
U+W
SciTegic.value.DoubleValue
-51.441

@<SCITEGIC>MOL_PROPERTY
Grad RMS
SciTegic.value.DoubleValue
0.000000

@<SCITEGIC>MOL_PROPERTY
U
SciTegic.value.DoubleValue
7.701

@<SCITEGIC>MOL_PROPERTY
W
SciTegic.value.DoubleValue
-59.141

@<SCITEGIC>MOL_PROPERTY
W(PB)
SciTegic.value.DoubleValue
-61.609

@<SCITEGIC>MOL_PROPERTY
W(SA)
SciTegic.value.DoubleValue
2.467

@<SCITEGIC>MOL_PROPERTY
Valence
SciTegic.value.DoubleValue
8.550

@<SCITEGIC>MOL_PROPERTY
Coulomb
SciTegic.value.DoubleValue
-1.988

@<SCITEGIC>MOL_PROPERTY
VdW
SciTegic.value.DoubleValue
1.139

@<SCITEGIC>MOL_PROPERTY
VdW6
SciTegic.value.DoubleValue
-8.988

@<SCITEGIC>MOL_PROPERTY
VdW12
SciTegic.value.DoubleValue
10.127

@<SCITEGIC>MOL_PROPERTY
Bond
SciTegic.value.DoubleValue
0.191

@<SCITEGIC>MOL_PROPERTY
Angle
SciTegic.value.DoubleValue
2.738

@<SCITEGIC>MOL_PROPERTY
Pdih
SciTegic.value.DoubleValue
5.621

@<SCITEGIC>MOL_PROPERTY
Idih
SciTegic.value.DoubleValue
0.001

@<SCITEGIC>MOL_PROPERTY
Tether
SciTegic.value.DoubleValue
0.000

@<TRIPOS>MOLECULE
guest-8_confgen4.mol2 : confsearch ligand conformer 129
          25          24           1
SMALL
USER_CHARGES
 
@<TRIPOS>ATOM
       1    C1      16.878087   21.577024   24.371797 C.2        1 MOL1         0.6168
       2    O1      15.900474   21.054955   23.873388 O.co2      1 MOL1        -0.6703
       3    O2      16.821103   22.515513   25.141689 O.co2      1 MOL1        -0.6703
       4    C2      18.250780   21.008276   24.030827 C.3        1 MOL1        -0.1963
       5    H1      18.975768   21.830492   24.057470 H          1 MOL1         0.0750
       6    H2      18.212065   20.641427   22.999011 H          1 MOL1         0.0750
       7    C3      18.688182   19.877351   24.997743 C.3        1 MOL1        -0.1860
       8    H3      18.624563   20.251170   26.029081 H          1 MOL1         0.0752
       9    H4      17.980054   19.040142   24.927267 H          1 MOL1         0.0752
      10    C4      20.126947   19.368119   24.743196 C.3        1 MOL1        -0.1858
      11    H5      20.391516   18.660093   25.540450 H          1 MOL1         0.0752
      12    H6      20.833476   20.205520   24.824113 H          1 MOL1         0.0752
      13    C5      20.299696   18.671753   23.373369 C.3        1 MOL1        -0.1858
      14    H7      19.558847   17.866763   23.274892 H          1 MOL1         0.0752
      15    H8      20.103811   19.390517   22.568612 H          1 MOL1         0.0752
      16    C6      21.721727   18.087513   23.206955 C.3        1 MOL1        -0.1858
      17    H9      21.934355   17.417303   24.051024 H          1 MOL1         0.0752
      18    H10     22.462546   18.897106   23.258286 H          1 MOL1         0.0752
      19    C7      21.911474   17.295340   21.892317 C.3        1 MOL1        -0.1834
      20    H11     22.900984   16.818016   21.908410 H          1 MOL1         0.0752
      21    H12     21.175323   16.481300   21.840095 H          1 MOL1         0.0752
      22    C8      21.804576   18.174366   20.627218 C.3        1 MOL1        -0.2849
      23    H13     22.510108   19.014232   20.671474 H          1 MOL1         0.0764
      24    H14     22.035990   17.585577   19.730184 H          1 MOL1         0.0764
      25    H15     20.792612   18.580314   20.505465 H          1 MOL1         0.0764
@<TRIPOS>BOND
    1     1     2    1
    2     1     3    2
    3     1     4    1
    4     4     5    1
    5     4     6    1
    6     4     7    1
    7     7     8    1
    8     7     9    1
    9     7    10    1
   10    10    11    1
   11    10    12    1
   12    10    13    1
   13    13    14    1
   14    13    15    1
   15    13    16    1
   16    16    17    1
   17    16    18    1
   18    16    19    1
   19    19    20    1
   20    19    21    1
   21    19    22    1
   22    22    23    1
   23    22    24    1
   24    22    25    1
@<TRIPOS>SUBSTRUCTURE
       1 MOL1            1 RESIDUE      1      MOL     
@<SCITEGIC>MOL_PROPERTY
VConf Rank
SciTegic.value.IntegerValue
129

@<SCITEGIC>MOL_PROPERTY
Conf_Id
SciTegic.value.IntegerValue
17

@<SCITEGIC>MOL_PROPERTY
Delta U+W
SciTegic.value.DoubleValue
0.219

@<SCITEGIC>MOL_PROPERTY
U+W
SciTegic.value.DoubleValue
-51.411

@<SCITEGIC>MOL_PROPERTY
Grad RMS
SciTegic.value.DoubleValue
0.000000

@<SCITEGIC>MOL_PROPERTY
U
SciTegic.value.DoubleValue
7.701

@<SCITEGIC>MOL_PROPERTY
W
SciTegic.value.DoubleValue
-59.111

@<SCITEGIC>MOL_PROPERTY
W(PB)
SciTegic.value.DoubleValue
-61.599

@<SCITEGIC>MOL_PROPERTY
W(SA)
SciTegic.value.DoubleValue
2.488

@<SCITEGIC>MOL_PROPERTY
Valence
SciTegic.value.DoubleValue
8.550

@<SCITEGIC>MOL_PROPERTY
Coulomb
SciTegic.value.DoubleValue
-1.988

@<SCITEGIC>MOL_PROPERTY
VdW
SciTegic.value.DoubleValue
1.139

@<SCITEGIC>MOL_PROPERTY
VdW6
SciTegic.value.DoubleValue
-8.988

@<SCITEGIC>MOL_PROPERTY
VdW12
SciTegic.value.DoubleValue
10.127

@<SCITEGIC>MOL_PROPERTY
Bond
SciTegic.value.DoubleValue
0.191

@<SCITEGIC>MOL_PROPERTY
Angle
SciTegic.value.DoubleValue
2.738

@<SCITEGIC>MOL_PROPERTY
Pdih
SciTegic.value.DoubleValue
5.621

@<SCITEGIC>MOL_PROPERTY
Idih
SciTegic.value.DoubleValue
0.001

@<SCITEGIC>MOL_PROPERTY
Tether
SciTegic.value.DoubleValue
0.000

@<TRIPOS>MOLECULE
guest-8_confgen4.mol2 : confsearch ligand conformer 130
          25          24           1
SMALL
USER_CHARGES
 
@<TRIPOS>ATOM
       1    C1      17.191936   21.885474   23.330853 C.2        1 MOL1         0.6168
       2    O1      16.370965   21.638153   24.192190 O.co2      1 MOL1        -0.6703
       3    O2      16.949184   21.851736   22.140471 O.co2      1 MOL1        -0.6703
       4    C2      18.600627   22.279141   23.766223 C.3        1 MOL1        -0.1963
       5    H1      18.564534   22.608997   24.811529 H          1 MOL1         0.0750
       6    H2      18.897784   23.149240   23.169056 H          1 MOL1         0.0750
       7    C3      19.650307   21.150466   23.595453 C.3        1 MOL1        -0.1860
       8    H3      19.654124   20.824412   22.546958 H          1 MOL1         0.0752
       9    H4      20.648725   21.556907   23.805771 H          1 MOL1         0.0752
      10    C4      19.381711   19.946156   24.529393 C.3        1 MOL1        -0.1858
      11    H5      18.414754   19.488212   24.279186 H          1 MOL1         0.0752
      12    H6      19.293788   20.308470   25.562759 H          1 MOL1         0.0752
      13    C5      20.490544   18.868333   24.479307 C.3        1 MOL1        -0.1858
      14    H7      21.457052   19.322096   24.737784 H          1 MOL1         0.0752
      15    H8      20.281939   18.118778   25.254878 H          1 MOL1         0.0752
      16    C6      20.597389   18.157832   23.110071 C.3        1 MOL1        -0.1858
      17    H9      20.880147   18.880606   22.333814 H          1 MOL1         0.0752
      18    H10     19.615599   17.752751   22.829197 H          1 MOL1         0.0752
      19    C7      21.636191   17.016870   23.139128 C.3        1 MOL1        -0.1834
      20    H11     22.619201   17.418560   23.421605 H          1 MOL1         0.0752
      21    H12     21.358686   16.282013   23.907502 H          1 MOL1         0.0752
      22    C8      21.744255   16.311789   21.772049 C.3        1 MOL1        -0.2849
      23    H13     22.052223   17.017453   20.989376 H          1 MOL1         0.0764
      24    H14     22.486362   15.503818   21.810969 H          1 MOL1         0.0764
      25    H15     20.781175   15.873671   21.478942 H          1 MOL1         0.0764
@<TRIPOS>BOND
    1     1     2    1
    2     1     3    2
    3     1     4    1
    4     4     5    1
    5     4     6    1
    6     4     7    1
    7     7     8    1
    8     7     9    1
    9     7    10    1
   10    10    11    1
   11    10    12    1
   12    10    13    1
   13    13    14    1
   14    13    15    1
   15    13    16    1
   16    16    17    1
   17    16    18    1
   18    16    19    1
   19    19    20    1
   20    19    21    1
   21    19    22    1
   22    22    23    1
   23    22    24    1
   24    22    25    1
@<TRIPOS>SUBSTRUCTURE
       1 MOL1            1 RESIDUE      1      MOL     
@<SCITEGIC>MOL_PROPERTY
VConf Rank
SciTegic.value.IntegerValue
130

@<SCITEGIC>MOL_PROPERTY
Conf_Id
SciTegic.value.IntegerValue
142

@<SCITEGIC>MOL_PROPERTY
Delta U+W
SciTegic.value.DoubleValue
0.593

@<SCITEGIC>MOL_PROPERTY
U+W
SciTegic.value.DoubleValue
-51.037

@<SCITEGIC>MOL_PROPERTY
Grad RMS
SciTegic.value.DoubleValue
0.000000

@<SCITEGIC>MOL_PROPERTY
U
SciTegic.value.DoubleValue
8.903

@<SCITEGIC>MOL_PROPERTY
W
SciTegic.value.DoubleValue
-59.940

@<SCITEGIC>MOL_PROPERTY
W(PB)
SciTegic.value.DoubleValue
-62.418

@<SCITEGIC>MOL_PROPERTY
W(SA)
SciTegic.value.DoubleValue
2.478

@<SCITEGIC>MOL_PROPERTY
Valence
SciTegic.value.DoubleValue
8.305

@<SCITEGIC>MOL_PROPERTY
Coulomb
SciTegic.value.DoubleValue
-0.223

@<SCITEGIC>MOL_PROPERTY
VdW
SciTegic.value.DoubleValue
0.821

@<SCITEGIC>MOL_PROPERTY
VdW6
SciTegic.value.DoubleValue
-9.236

@<SCITEGIC>MOL_PROPERTY
VdW12
SciTegic.value.DoubleValue
10.057

@<SCITEGIC>MOL_PROPERTY
Bond
SciTegic.value.DoubleValue
0.173

@<SCITEGIC>MOL_PROPERTY
Angle
SciTegic.value.DoubleValue
2.663

@<SCITEGIC>MOL_PROPERTY
Pdih
SciTegic.value.DoubleValue
5.469

@<SCITEGIC>MOL_PROPERTY
Idih
SciTegic.value.DoubleValue
0.001

@<SCITEGIC>MOL_PROPERTY
Tether
SciTegic.value.DoubleValue
0.000

@<TRIPOS>MOLECULE
guest-8_confgen4.mol2 : confsearch ligand conformer 131
          25          24           1
SMALL
USER_CHARGES
 
@<TRIPOS>ATOM
       1    C1      22.558758   17.558819   21.310203 C.2        1 MOL1         0.6168
       2    O1      23.682583   17.098278   21.359959 O.co2      1 MOL1        -0.6703
       3    O2      21.631123   17.008337   20.750274 O.co2      1 MOL1        -0.6703
       4    C2      22.308591   18.915148   21.963446 C.3        1 MOL1        -0.1963
       5    H1      21.353174   19.309800   21.599130 H          1 MOL1         0.0750
       6    H2      23.085122   19.599394   21.602440 H          1 MOL1         0.0750
       7    C3      22.331054   18.884792   23.516091 C.3        1 MOL1        -0.1860
       8    H3      23.324004   18.550689   23.847152 H          1 MOL1         0.0752
       9    H4      22.214781   19.906715   23.899500 H          1 MOL1         0.0752
      10    C4      21.259985   17.962842   24.154418 C.3        1 MOL1        -0.1858
      11    H5      21.363148   18.006508   25.247143 H          1 MOL1         0.0752
      12    H6      21.470876   16.921902   23.873249 H          1 MOL1         0.0752
      13    C5      19.793872   18.290289   23.775446 C.3        1 MOL1        -0.1858
      14    H7      19.644827   18.142165   22.697485 H          1 MOL1         0.0752
      15    H8      19.138196   17.563741   24.274194 H          1 MOL1         0.0752
      16    C6      19.356463   19.718655   24.174332 C.3        1 MOL1        -0.1858
      17    H9      19.955336   20.458670   23.627674 H          1 MOL1         0.0752
      18    H10     19.548690   19.876130   25.244344 H          1 MOL1         0.0752
      19    C7      17.861686   19.961220   23.877282 C.3        1 MOL1        -0.1834
      20    H11     17.666728   19.801587   22.807710 H          1 MOL1         0.0752
      21    H12     17.251214   19.230542   24.425741 H          1 MOL1         0.0752
      22    C8      17.428483   21.388042   24.269972 C.3        1 MOL1        -0.2849
      23    H13     18.001472   22.140034   23.711800 H          1 MOL1         0.0764
      24    H14     16.363752   21.542858   24.052221 H          1 MOL1         0.0764
      25    H15     17.584425   21.564605   25.342287 H          1 MOL1         0.0764
@<TRIPOS>BOND
    1     1     2    1
    2     1     3    2
    3     1     4    1
    4     4     5    1
    5     4     6    1
    6     4     7    1
    7     7     8    1
    8     7     9    1
    9     7    10    1
   10    10    11    1
   11    10    12    1
   12    10    13    1
   13    13    14    1
   14    13    15    1
   15    13    16    1
   16    16    17    1
   17    16    18    1
   18    16    19    1
   19    19    20    1
   20    19    21    1
   21    19    22    1
   22    22    23    1
   23    22    24    1
   24    22    25    1
@<TRIPOS>SUBSTRUCTURE
       1 MOL1            1 RESIDUE      1      MOL     
@<SCITEGIC>MOL_PROPERTY
VConf Rank
SciTegic.value.IntegerValue
131

@<SCITEGIC>MOL_PROPERTY
Conf_Id
SciTegic.value.IntegerValue
135

@<SCITEGIC>MOL_PROPERTY
Delta U+W
SciTegic.value.DoubleValue
1.314

@<SCITEGIC>MOL_PROPERTY
U+W
SciTegic.value.DoubleValue
-50.316

@<SCITEGIC>MOL_PROPERTY
Grad RMS
SciTegic.value.DoubleValue
0.000000

@<SCITEGIC>MOL_PROPERTY
U
SciTegic.value.DoubleValue
9.773

@<SCITEGIC>MOL_PROPERTY
W
SciTegic.value.DoubleValue
-60.088

@<SCITEGIC>MOL_PROPERTY
W(PB)
SciTegic.value.DoubleValue
-62.535

@<SCITEGIC>MOL_PROPERTY
W(SA)
SciTegic.value.DoubleValue
2.447

@<SCITEGIC>MOL_PROPERTY
Valence
SciTegic.value.DoubleValue
8.741

@<SCITEGIC>MOL_PROPERTY
Coulomb
SciTegic.value.DoubleValue
0.479

@<SCITEGIC>MOL_PROPERTY
VdW
SciTegic.value.DoubleValue
0.552

@<SCITEGIC>MOL_PROPERTY
VdW6
SciTegic.value.DoubleValue
-10.627

@<SCITEGIC>MOL_PROPERTY
VdW12
SciTegic.value.DoubleValue
11.179

@<SCITEGIC>MOL_PROPERTY
Bond
SciTegic.value.DoubleValue
0.227

@<SCITEGIC>MOL_PROPERTY
Angle
SciTegic.value.DoubleValue
3.155

@<SCITEGIC>MOL_PROPERTY
Pdih
SciTegic.value.DoubleValue
5.358

@<SCITEGIC>MOL_PROPERTY
Idih
SciTegic.value.DoubleValue
0.001

@<SCITEGIC>MOL_PROPERTY
Tether
SciTegic.value.DoubleValue
0.000

@<TRIPOS>MOLECULE
guest-8_confgen4.mol2 : confsearch ligand conformer 132
          25          24           1
SMALL
USER_CHARGES
 
@<TRIPOS>ATOM
       1    C1      22.703498   16.082131   22.153100 C.2        1 MOL1         0.6168
       2    O1      23.848212   16.448122   21.973044 O.co2      1 MOL1        -0.6703
       3    O2      22.392072   14.927363   22.368268 O.co2      1 MOL1        -0.6703
       4    C2      21.599391   17.133136   22.130368 C.3        1 MOL1        -0.1963
       5    H1      20.686012   16.658163   21.752892 H          1 MOL1         0.0750
       6    H2      21.888781   17.903135   21.406817 H          1 MOL1         0.0750
       7    C3      21.339561   17.759246   23.525468 C.3        1 MOL1        -0.1860
       8    H3      21.149055   16.948861   24.242706 H          1 MOL1         0.0752
       9    H4      22.246092   18.273616   23.873182 H          1 MOL1         0.0752
      10    C4      20.139248   18.735634   23.554635 C.3        1 MOL1        -0.1858
      11    H5      19.944363   18.997865   24.602129 H          1 MOL1         0.0752
      12    H6      19.239577   18.226717   23.182917 H          1 MOL1         0.0752
      13    C5      20.380316   20.033564   22.747340 C.3        1 MOL1        -0.1858
      14    H7      21.246354   20.565874   23.163537 H          1 MOL1         0.0752
      15    H8      20.642694   19.779227   21.712959 H          1 MOL1         0.0752
      16    C6      19.161514   20.989633   22.703519 C.3        1 MOL1        -0.1858
      17    H9      18.315875   20.498123   22.203300 H          1 MOL1         0.0752
      18    H10     19.432394   21.840295   22.063307 H          1 MOL1         0.0752
      19    C7      18.721144   21.544964   24.081156 C.3        1 MOL1        -0.1834
      20    H11     19.572982   21.563790   24.774879 H          1 MOL1         0.0752
      21    H12     18.407547   22.590447   23.954964 H          1 MOL1         0.0752
      22    C8      17.541196   20.764144   24.701890 C.3        1 MOL1        -0.2849
      23    H13     17.789996   19.709175   24.863929 H          1 MOL1         0.0764
      24    H14     17.262639   21.196081   25.671758 H          1 MOL1         0.0764
      25    H15     16.659199   20.807068   24.049724 H          1 MOL1         0.0764
@<TRIPOS>BOND
    1     1     2    1
    2     1     3    2
    3     1     4    1
    4     4     5    1
    5     4     6    1
    6     4     7    1
    7     7     8    1
    8     7     9    1
    9     7    10    1
   10    10    11    1
   11    10    12    1
   12    10    13    1
   13    13    14    1
   14    13    15    1
   15    13    16    1
   16    16    17    1
   17    16    18    1
   18    16    19    1
   19    19    20    1
   20    19    21    1
   21    19    22    1
   22    22    23    1
   23    22    24    1
   24    22    25    1
@<TRIPOS>SUBSTRUCTURE
       1 MOL1            1 RESIDUE      1      MOL     
@<SCITEGIC>MOL_PROPERTY
VConf Rank
SciTegic.value.IntegerValue
132

@<SCITEGIC>MOL_PROPERTY
Conf_Id
SciTegic.value.IntegerValue
19

@<SCITEGIC>MOL_PROPERTY
Delta U+W
SciTegic.value.DoubleValue
3.222

@<SCITEGIC>MOL_PROPERTY
U+W
SciTegic.value.DoubleValue
-48.407

@<SCITEGIC>MOL_PROPERTY
Grad RMS
SciTegic.value.DoubleValue
0.000000

@<SCITEGIC>MOL_PROPERTY
U
SciTegic.value.DoubleValue
10.617

@<SCITEGIC>MOL_PROPERTY
W
SciTegic.value.DoubleValue
-59.025

@<SCITEGIC>MOL_PROPERTY
W(PB)
SciTegic.value.DoubleValue
-61.462

@<SCITEGIC>MOL_PROPERTY
W(SA)
SciTegic.value.DoubleValue
2.437

@<SCITEGIC>MOL_PROPERTY
Valence
SciTegic.value.DoubleValue
11.188

@<SCITEGIC>MOL_PROPERTY
Coulomb
SciTegic.value.DoubleValue
-1.778

@<SCITEGIC>MOL_PROPERTY
VdW
SciTegic.value.DoubleValue
1.208

@<SCITEGIC>MOL_PROPERTY
VdW6
SciTegic.value.DoubleValue
-9.786

@<SCITEGIC>MOL_PROPERTY
VdW12
SciTegic.value.DoubleValue
10.993

@<SCITEGIC>MOL_PROPERTY
Bond
SciTegic.value.DoubleValue
0.241

@<SCITEGIC>MOL_PROPERTY
Angle
SciTegic.value.DoubleValue
3.294

@<SCITEGIC>MOL_PROPERTY
Pdih
SciTegic.value.DoubleValue
7.653

@<SCITEGIC>MOL_PROPERTY
Idih
SciTegic.value.DoubleValue
0.001

@<SCITEGIC>MOL_PROPERTY
Tether
SciTegic.value.DoubleValue
0.000

@<TRIPOS>MOLECULE
guest-8_confgen4.mol2 : confsearch ligand conformer 133
          25          24           1
SMALL
USER_CHARGES
 
@<TRIPOS>ATOM
       1    C1      23.894037   17.382668   23.102812 C.2        1 MOL1         0.6168
       2    O1      23.928249   16.385475   22.409143 O.co2      1 MOL1        -0.6703
       3    O2      24.721429   17.638133   23.955414 O.co2      1 MOL1        -0.6703
       4    C2      22.736383   18.355492   22.908823 C.3        1 MOL1        -0.1963
       5    H1      22.462590   18.338526   21.848200 H          1 MOL1         0.0750
       6    H2      23.099448   19.365026   23.135481 H          1 MOL1         0.0750
       7    C3      21.512226   18.014895   23.798352 C.3        1 MOL1        -0.1860
       8    H3      21.126769   17.021533   23.530138 H          1 MOL1         0.0752
       9    H4      21.847027   17.945431   24.842636 H          1 MOL1         0.0752
      10    C4      20.373221   19.059184   23.714297 C.3        1 MOL1        -0.1858
      11    H5      20.766313   20.055440   23.958289 H          1 MOL1         0.0752
      12    H6      19.633602   18.813085   24.486558 H          1 MOL1         0.0752
      13    C5      19.669566   19.094741   22.336592 C.3        1 MOL1        -0.1858
      14    H7      20.412430   19.273397   21.549374 H          1 MOL1         0.0752
      15    H8      19.228533   18.110727   22.127299 H          1 MOL1         0.0752
      16    C6      18.576278   20.185694   22.210032 C.3        1 MOL1        -0.1858
      17    H9      18.191217   20.149120   21.181800 H          1 MOL1         0.0752
      18    H10     19.024403   21.182156   22.324725 H          1 MOL1         0.0752
      19    C7      17.378524   20.021088   23.178790 C.3        1 MOL1        -0.1834
      20    H11     16.458175   20.309277   22.652287 H          1 MOL1         0.0752
      21    H12     17.253722   18.965016   23.455144 H          1 MOL1         0.0752
      22    C8      17.497638   20.896619   24.446277 C.3        1 MOL1        -0.2849
      23    H13     17.543404   21.961092   24.181923 H          1 MOL1         0.0764
      24    H14     16.626503   20.749872   25.097733 H          1 MOL1         0.0764
      25    H15     18.394961   20.654289   25.026971 H          1 MOL1         0.0764
@<TRIPOS>BOND
    1     1     2    1
    2     1     3    2
    3     1     4    1
    4     4     5    1
    5     4     6    1
    6     4     7    1
    7     7     8    1
    8     7     9    1
    9     7    10    1
   10    10    11    1
   11    10    12    1
   12    10    13    1
   13    13    14    1
   14    13    15    1
   15    13    16    1
   16    16    17    1
   17    16    18    1
   18    16    19    1
   19    19    20    1
   20    19    21    1
   21    19    22    1
   22    22    23    1
   23    22    24    1
   24    22    25    1
@<TRIPOS>SUBSTRUCTURE
       1 MOL1            1 RESIDUE      1      MOL     
@<SCITEGIC>MOL_PROPERTY
VConf Rank
SciTegic.value.IntegerValue
133

@<SCITEGIC>MOL_PROPERTY
Conf_Id
SciTegic.value.IntegerValue
20

@<SCITEGIC>MOL_PROPERTY
Delta U+W
SciTegic.value.DoubleValue
3.224

@<SCITEGIC>MOL_PROPERTY
U+W
SciTegic.value.DoubleValue
-48.406

@<SCITEGIC>MOL_PROPERTY
Grad RMS
SciTegic.value.DoubleValue
0.000000

@<SCITEGIC>MOL_PROPERTY
U
SciTegic.value.DoubleValue
10.617

@<SCITEGIC>MOL_PROPERTY
W
SciTegic.value.DoubleValue
-59.023

@<SCITEGIC>MOL_PROPERTY
W(PB)
SciTegic.value.DoubleValue
-61.467

@<SCITEGIC>MOL_PROPERTY
W(SA)
SciTegic.value.DoubleValue
2.444

@<SCITEGIC>MOL_PROPERTY
Valence
SciTegic.value.DoubleValue
11.188

@<SCITEGIC>MOL_PROPERTY
Coulomb
SciTegic.value.DoubleValue
-1.778

@<SCITEGIC>MOL_PROPERTY
VdW
SciTegic.value.DoubleValue
1.208

@<SCITEGIC>MOL_PROPERTY
VdW6
SciTegic.value.DoubleValue
-9.786

@<SCITEGIC>MOL_PROPERTY
VdW12
SciTegic.value.DoubleValue
10.993

@<SCITEGIC>MOL_PROPERTY
Bond
SciTegic.value.DoubleValue
0.241

@<SCITEGIC>MOL_PROPERTY
Angle
SciTegic.value.DoubleValue
3.294

@<SCITEGIC>MOL_PROPERTY
Pdih
SciTegic.value.DoubleValue
7.653

@<SCITEGIC>MOL_PROPERTY
Idih
SciTegic.value.DoubleValue
0.001

@<SCITEGIC>MOL_PROPERTY
Tether
SciTegic.value.DoubleValue
0.000

@<TRIPOS>MOLECULE
guest-8_confgen4.mol2 : confsearch ligand conformer 134
          25          24           1
SMALL
USER_CHARGES
 
@<TRIPOS>ATOM
       1    C1      17.342721   17.498299   24.372835 C.2        1 MOL1         0.6168
       2    O1      17.779375   16.526054   24.957401 O.co2      1 MOL1        -0.6703
       3    O2      16.966227   17.473023   23.217486 O.co2      1 MOL1        -0.6703
       4    C2      17.196856   18.805888   25.148931 C.3        1 MOL1        -0.1963
       5    H1      16.472879   18.610409   25.948377 H          1 MOL1         0.0750
       6    H2      16.744987   19.560665   24.494015 H          1 MOL1         0.0750
       7    C3      18.508875   19.354131   25.777536 C.3        1 MOL1        -0.1860
       8    H3      18.234498   20.049116   26.582608 H          1 MOL1         0.0752
       9    H4      19.063017   18.536958   26.259976 H          1 MOL1         0.0752
      10    C4      19.432826   20.113670   24.793412 C.3        1 MOL1        -0.1858
      11    H5      20.240749   20.579966   25.373766 H          1 MOL1         0.0752
      12    H6      18.876207   20.936039   24.323606 H          1 MOL1         0.0752
      13    C5      20.059529   19.219421   23.699707 C.3        1 MOL1        -0.1858
      14    H7      20.527014   18.340659   24.164767 H          1 MOL1         0.0752
      15    H8      19.275841   18.848671   23.027114 H          1 MOL1         0.0752
      16    C6      21.111059   19.985971   22.868290 C.3        1 MOL1        -0.1858
      17    H9      21.906033   20.355164   23.530619 H          1 MOL1         0.0752
      18    H10     20.642953   20.866913   22.408017 H          1 MOL1         0.0752
      19    C7      21.729199   19.097226   21.768558 C.3        1 MOL1        -0.1834
      20    H11     22.199020   18.215396   22.225835 H          1 MOL1         0.0752
      21    H12     20.936959   18.727315   21.102880 H          1 MOL1         0.0752
      22    C8      22.778305   19.865383   20.939715 C.3        1 MOL1        -0.2849
      23    H13     23.599227   20.219957   21.576689 H          1 MOL1         0.0764
      24    H14     23.206942   19.218653   20.163137 H          1 MOL1         0.0764
      25    H15     22.327513   20.735777   20.445169 H          1 MOL1         0.0764
@<TRIPOS>BOND
    1     1     2    1
    2     1     3    2
    3     1     4    1
    4     4     5    1
    5     4     6    1
    6     4     7    1
    7     7     8    1
    8     7     9    1
    9     7    10    1
   10    10    11    1
   11    10    12    1
   12    10    13    1
   13    13    14    1
   14    13    15    1
   15    13    16    1
   16    16    17    1
   17    16    18    1
   18    16    19    1
   19    19    20    1
   20    19    21    1
   21    19    22    1
   22    22    23    1
   23    22    24    1
   24    22    25    1
@<TRIPOS>SUBSTRUCTURE
       1 MOL1            1 RESIDUE      1      MOL     
@<SCITEGIC>MOL_PROPERTY
VConf Rank
SciTegic.value.IntegerValue
134

@<SCITEGIC>MOL_PROPERTY
Conf_Id
SciTegic.value.IntegerValue
24

@<SCITEGIC>MOL_PROPERTY
Delta U+W
SciTegic.value.DoubleValue
1.784

@<SCITEGIC>MOL_PROPERTY
U+W
SciTegic.value.DoubleValue
-49.846

@<SCITEGIC>MOL_PROPERTY
Grad RMS
SciTegic.value.DoubleValue
0.000000

@<SCITEGIC>MOL_PROPERTY
U
SciTegic.value.DoubleValue
10.904

@<SCITEGIC>MOL_PROPERTY
W
SciTegic.value.DoubleValue
-60.749

@<SCITEGIC>MOL_PROPERTY
W(PB)
SciTegic.value.DoubleValue
-63.220

@<SCITEGIC>MOL_PROPERTY
W(SA)
SciTegic.value.DoubleValue
2.471

@<SCITEGIC>MOL_PROPERTY
Valence
SciTegic.value.DoubleValue
9.445

@<SCITEGIC>MOL_PROPERTY
Coulomb
SciTegic.value.DoubleValue
0.780

@<SCITEGIC>MOL_PROPERTY
VdW
SciTegic.value.DoubleValue
0.679

@<SCITEGIC>MOL_PROPERTY
VdW6
SciTegic.value.DoubleValue
-10.008

@<SCITEGIC>MOL_PROPERTY
VdW12
SciTegic.value.DoubleValue
10.687

@<SCITEGIC>MOL_PROPERTY
Bond
SciTegic.value.DoubleValue
0.201

@<SCITEGIC>MOL_PROPERTY
Angle
SciTegic.value.DoubleValue
3.198

@<SCITEGIC>MOL_PROPERTY
Pdih
SciTegic.value.DoubleValue
6.039

@<SCITEGIC>MOL_PROPERTY
Idih
SciTegic.value.DoubleValue
0.006

@<SCITEGIC>MOL_PROPERTY
Tether
SciTegic.value.DoubleValue
0.000

@<TRIPOS>MOLECULE
guest-8_confgen4.mol2 : confsearch ligand conformer 135
          25          24           1
SMALL
USER_CHARGES
 
@<TRIPOS>ATOM
       1    C1      21.844239   19.990094   21.043320 C.2        1 MOL1         0.6168
       2    O1      22.304524   18.989130   20.529655 O.co2      1 MOL1        -0.6703
       3    O2      20.880626   20.586689   20.604296 O.co2      1 MOL1        -0.6703
       4    C2      22.552760   20.568496   22.266774 C.3        1 MOL1        -0.1963
       5    H1      22.043166   21.490746   22.571003 H          1 MOL1         0.0750
       6    H2      23.555409   20.859638   21.933010 H          1 MOL1         0.0750
       7    C3      22.683418   19.601005   23.476730 C.3        1 MOL1        -0.1860
       8    H3      22.999924   18.607613   23.129468 H          1 MOL1         0.0752
       9    H4      23.495027   19.968883   24.118902 H          1 MOL1         0.0752
      10    C4      21.410239   19.477376   24.350123 C.3        1 MOL1        -0.1858
      11    H5      21.106373   20.472120   24.703655 H          1 MOL1         0.0752
      12    H6      21.665814   18.896126   25.246679 H          1 MOL1         0.0752
      13    C5      20.221136   18.793949   23.637672 C.3        1 MOL1        -0.1858
      14    H7      19.865421   19.427339   22.815302 H          1 MOL1         0.0752
      15    H8      20.552954   17.845517   23.193352 H          1 MOL1         0.0752
      16    C6      19.049522   18.529047   24.608094 C.3        1 MOL1        -0.1858
      17    H9      18.722328   19.477839   25.055048 H          1 MOL1         0.0752
      18    H10     19.391927   17.888207   25.432139 H          1 MOL1         0.0752
      19    C7      17.857237   17.857068   23.895161 C.3        1 MOL1        -0.1834
      20    H11     17.510755   18.496212   23.071118 H          1 MOL1         0.0752
      21    H12     18.181115   16.907242   23.447510 H          1 MOL1         0.0752
      22    C8      16.688815   17.594167   24.866419 C.3        1 MOL1        -0.2849
      23    H13     16.324170   18.532206   25.305157 H          1 MOL1         0.0764
      24    H14     15.850498   17.116519   24.342835 H          1 MOL1         0.0764
      25    H15     16.999611   16.931074   25.684395 H          1 MOL1         0.0764
@<TRIPOS>BOND
    1     1     2    1
    2     1     3    2
    3     1     4    1
    4     4     5    1
    5     4     6    1
    6     4     7    1
    7     7     8    1
    8     7     9    1
    9     7    10    1
   10    10    11    1
   11    10    12    1
   12    10    13    1
   13    13    14    1
   14    13    15    1
   15    13    16    1
   16    16    17    1
   17    16    18    1
   18    16    19    1
   19    19    20    1
   20    19    21    1
   21    19    22    1
   22    22    23    1
   23    22    24    1
   24    22    25    1
@<TRIPOS>SUBSTRUCTURE
       1 MOL1            1 RESIDUE      1      MOL     
@<SCITEGIC>MOL_PROPERTY
VConf Rank
SciTegic.value.IntegerValue
135

@<SCITEGIC>MOL_PROPERTY
Conf_Id
SciTegic.value.IntegerValue
9

@<SCITEGIC>MOL_PROPERTY
Delta U+W
SciTegic.value.DoubleValue
1.764

@<SCITEGIC>MOL_PROPERTY
U+W
SciTegic.value.DoubleValue
-49.865

@<SCITEGIC>MOL_PROPERTY
Grad RMS
SciTegic.value.DoubleValue
0.000000

@<SCITEGIC>MOL_PROPERTY
U
SciTegic.value.DoubleValue
10.902

@<SCITEGIC>MOL_PROPERTY
W
SciTegic.value.DoubleValue
-60.768

@<SCITEGIC>MOL_PROPERTY
W(PB)
SciTegic.value.DoubleValue
-63.223

@<SCITEGIC>MOL_PROPERTY
W(SA)
SciTegic.value.DoubleValue
2.456

@<SCITEGIC>MOL_PROPERTY
Valence
SciTegic.value.DoubleValue
9.445

@<SCITEGIC>MOL_PROPERTY
Coulomb
SciTegic.value.DoubleValue
0.778

@<SCITEGIC>MOL_PROPERTY
VdW
SciTegic.value.DoubleValue
0.679

@<SCITEGIC>MOL_PROPERTY
VdW6
SciTegic.value.DoubleValue
-10.007

@<SCITEGIC>MOL_PROPERTY
VdW12
SciTegic.value.DoubleValue
10.687

@<SCITEGIC>MOL_PROPERTY
Bond
SciTegic.value.DoubleValue
0.201

@<SCITEGIC>MOL_PROPERTY
Angle
SciTegic.value.DoubleValue
3.198

@<SCITEGIC>MOL_PROPERTY
Pdih
SciTegic.value.DoubleValue
6.040

@<SCITEGIC>MOL_PROPERTY
Idih
SciTegic.value.DoubleValue
0.006

@<SCITEGIC>MOL_PROPERTY
Tether
SciTegic.value.DoubleValue
0.000

@<TRIPOS>MOLECULE
guest-8_confgen4.mol2 : confsearch ligand conformer 136
          25          24           1
SMALL
USER_CHARGES
 
@<TRIPOS>ATOM
       1    C1      19.097680   17.531854   26.599946 C.2        1 MOL1         0.6168
       2    O1      19.718319   16.529831   26.304374 O.co2      1 MOL1        -0.6703
       3    O2      18.723959   17.783983   27.728490 O.co2      1 MOL1        -0.6703
       4    C2      18.788249   18.538608   25.497941 C.3        1 MOL1        -0.1963
       5    H1      17.825898   19.009567   25.731043 H          1 MOL1         0.0750
       6    H2      18.653504   17.982618   24.565106 H          1 MOL1         0.0750
       7    C3      19.888659   19.622506   25.349911 C.3        1 MOL1        -0.1860
       8    H3      19.974016   20.150065   26.310032 H          1 MOL1         0.0752
       9    H4      20.864617   19.149344   25.173735 H          1 MOL1         0.0752
      10    C4      19.587753   20.661054   24.239433 C.3        1 MOL1        -0.1858
      11    H5      19.966683   21.636762   24.573085 H          1 MOL1         0.0752
      12    H6      18.503147   20.787714   24.119318 H          1 MOL1         0.0752
      13    C5      20.243388   20.351593   22.870077 C.3        1 MOL1        -0.1858
      14    H7      20.034539   21.189058   22.190677 H          1 MOL1         0.0752
      15    H8      21.333748   20.318853   22.994452 H          1 MOL1         0.0752
      16    C6      19.753986   19.039078   22.213600 C.3        1 MOL1        -0.1858
      17    H9      18.656090   19.014491   22.234007 H          1 MOL1         0.0752
      18    H10     20.103147   18.178565   22.799135 H          1 MOL1         0.0752
      19    C7      20.223736   18.875332   20.749340 C.3        1 MOL1        -0.1834
      20    H11     19.756303   17.974997   20.327359 H          1 MOL1         0.0752
      21    H12     19.865389   19.721897   20.147555 H          1 MOL1         0.0752
      22    C8      21.756756   18.752295   20.611362 C.3        1 MOL1        -0.2849
      23    H13     22.141209   17.927162   21.224955 H          1 MOL1         0.0764
      24    H14     22.034020   18.555437   19.567704 H          1 MOL1         0.0764
      25    H15     22.261559   19.675944   20.921069 H          1 MOL1         0.0764
@<TRIPOS>BOND
    1     1     2    1
    2     1     3    2
    3     1     4    1
    4     4     5    1
    5     4     6    1
    6     4     7    1
    7     7     8    1
    8     7     9    1
    9     7    10    1
   10    10    11    1
   11    10    12    1
   12    10    13    1
   13    13    14    1
   14    13    15    1
   15    13    16    1
   16    16    17    1
   17    16    18    1
   18    16    19    1
   19    19    20    1
   20    19    21    1
   21    19    22    1
   22    22    23    1
   23    22    24    1
   24    22    25    1
@<TRIPOS>SUBSTRUCTURE
       1 MOL1            1 RESIDUE      1      MOL     
@<SCITEGIC>MOL_PROPERTY
VConf Rank
SciTegic.value.IntegerValue
136

@<SCITEGIC>MOL_PROPERTY
Conf_Id
SciTegic.value.IntegerValue
89

@<SCITEGIC>MOL_PROPERTY
Delta U+W
SciTegic.value.DoubleValue
2.903

@<SCITEGIC>MOL_PROPERTY
U+W
SciTegic.value.DoubleValue
-48.726

@<SCITEGIC>MOL_PROPERTY
Grad RMS
SciTegic.value.DoubleValue
0.000000

@<SCITEGIC>MOL_PROPERTY
U
SciTegic.value.DoubleValue
10.996

@<SCITEGIC>MOL_PROPERTY
W
SciTegic.value.DoubleValue
-59.723

@<SCITEGIC>MOL_PROPERTY
W(PB)
SciTegic.value.DoubleValue
-62.151

@<SCITEGIC>MOL_PROPERTY
W(SA)
SciTegic.value.DoubleValue
2.428

@<SCITEGIC>MOL_PROPERTY
Valence
SciTegic.value.DoubleValue
10.985

@<SCITEGIC>MOL_PROPERTY
Coulomb
SciTegic.value.DoubleValue
-0.995

@<SCITEGIC>MOL_PROPERTY
VdW
SciTegic.value.DoubleValue
1.006

@<SCITEGIC>MOL_PROPERTY
VdW6
SciTegic.value.DoubleValue
-10.062

@<SCITEGIC>MOL_PROPERTY
VdW12
SciTegic.value.DoubleValue
11.069

@<SCITEGIC>MOL_PROPERTY
Bond
SciTegic.value.DoubleValue
0.238

@<SCITEGIC>MOL_PROPERTY
Angle
SciTegic.value.DoubleValue
3.202

@<SCITEGIC>MOL_PROPERTY
Pdih
SciTegic.value.DoubleValue
7.544

@<SCITEGIC>MOL_PROPERTY
Idih
SciTegic.value.DoubleValue
0.001

@<SCITEGIC>MOL_PROPERTY
Tether
SciTegic.value.DoubleValue
0.000

@<TRIPOS>MOLECULE
guest-8_confgen4.mol2 : confsearch ligand conformer 137
          25          24           1
SMALL
USER_CHARGES
 
@<TRIPOS>ATOM
       1    C1      17.404865   20.773446   22.139476 C.2        1 MOL1         0.6168
       2    O1      17.713922   21.894370   22.493417 O.co2      1 MOL1        -0.6703
       3    O2      17.342910   20.431340   20.974687 O.co2      1 MOL1        -0.6703
       4    C2      17.011679   19.761924   23.214407 C.3        1 MOL1        -0.1963
       5    H1      15.954203   19.528701   23.044614 H          1 MOL1         0.0750
       6    H2      17.072429   20.244042   24.197586 H          1 MOL1         0.0750
       7    C3      17.827849   18.438506   23.211284 C.3        1 MOL1        -0.1860
       8    H3      17.233350   17.674087   23.729626 H          1 MOL1         0.0752
       9    H4      17.951993   18.076437   22.181202 H          1 MOL1         0.0752
      10    C4      19.205328   18.519704   23.915479 C.3        1 MOL1        -0.1858
      11    H5      19.597923   17.498453   23.995694 H          1 MOL1         0.0752
      12    H6      19.073511   18.881716   24.944131 H          1 MOL1         0.0752
      13    C5      20.237569   19.408289   23.179763 C.3        1 MOL1        -0.1858
      14    H7      20.327558   19.088049   22.132806 H          1 MOL1         0.0752
      15    H8      19.874093   20.442843   23.159282 H          1 MOL1         0.0752
      16    C6      21.634967   19.412754   23.845071 C.3        1 MOL1        -0.1858
      17    H9      21.539530   19.701653   24.900654 H          1 MOL1         0.0752
      18    H10     22.243709   20.190946   23.364704 H          1 MOL1         0.0752
      19    C7      22.378540   18.061882   23.736985 C.3        1 MOL1        -0.1834
      20    H11     21.831012   17.281668   24.281237 H          1 MOL1         0.0752
      21    H12     22.424257   17.747389   22.685229 H          1 MOL1         0.0752
      22    C8      23.809018   18.157297   24.305073 C.3        1 MOL1        -0.2849
      23    H13     23.792052   18.444479   25.364604 H          1 MOL1         0.0764
      24    H14     24.322622   17.190495   24.224100 H          1 MOL1         0.0764
      25    H15     24.401010   18.902124   23.757240 H          1 MOL1         0.0764
@<TRIPOS>BOND
    1     1     2    1
    2     1     3    2
    3     1     4    1
    4     4     5    1
    5     4     6    1
    6     4     7    1
    7     7     8    1
    8     7     9    1
    9     7    10    1
   10    10    11    1
   11    10    12    1
   12    10    13    1
   13    13    14    1
   14    13    15    1
   15    13    16    1
   16    16    17    1
   17    16    18    1
   18    16    19    1
   19    19    20    1
   20    19    21    1
   21    19    22    1
   22    22    23    1
   23    22    24    1
   24    22    25    1
@<TRIPOS>SUBSTRUCTURE
       1 MOL1            1 RESIDUE      1      MOL     
@<SCITEGIC>MOL_PROPERTY
VConf Rank
SciTegic.value.IntegerValue
137

@<SCITEGIC>MOL_PROPERTY
Conf_Id
SciTegic.value.IntegerValue
114

@<SCITEGIC>MOL_PROPERTY
Delta U+W
SciTegic.value.DoubleValue
2.758

@<SCITEGIC>MOL_PROPERTY
U+W
SciTegic.value.DoubleValue
-48.871

@<SCITEGIC>MOL_PROPERTY
Grad RMS
SciTegic.value.DoubleValue
0.000000

@<SCITEGIC>MOL_PROPERTY
U
SciTegic.value.DoubleValue
11.422

@<SCITEGIC>MOL_PROPERTY
W
SciTegic.value.DoubleValue
-60.293

@<SCITEGIC>MOL_PROPERTY
W(PB)
SciTegic.value.DoubleValue
-62.719

@<SCITEGIC>MOL_PROPERTY
W(SA)
SciTegic.value.DoubleValue
2.425

@<SCITEGIC>MOL_PROPERTY
Valence
SciTegic.value.DoubleValue
10.135

@<SCITEGIC>MOL_PROPERTY
Coulomb
SciTegic.value.DoubleValue
0.369

@<SCITEGIC>MOL_PROPERTY
VdW
SciTegic.value.DoubleValue
0.918

@<SCITEGIC>MOL_PROPERTY
VdW6
SciTegic.value.DoubleValue
-10.482

@<SCITEGIC>MOL_PROPERTY
VdW12
SciTegic.value.DoubleValue
11.400

@<SCITEGIC>MOL_PROPERTY
Bond
SciTegic.value.DoubleValue
0.245

@<SCITEGIC>MOL_PROPERTY
Angle
SciTegic.value.DoubleValue
3.539

@<SCITEGIC>MOL_PROPERTY
Pdih
SciTegic.value.DoubleValue
6.346

@<SCITEGIC>MOL_PROPERTY
Idih
SciTegic.value.DoubleValue
0.006

@<SCITEGIC>MOL_PROPERTY
Tether
SciTegic.value.DoubleValue
0.000

@<TRIPOS>MOLECULE
guest-8_confgen4.mol2 : confsearch ligand conformer 138
          25          24           1
SMALL
USER_CHARGES
 
@<TRIPOS>ATOM
       1    C1      18.207043   16.004649   22.325787 C.2        1 MOL1         0.6168
       2    O1      18.468160   15.145625   23.144907 O.co2      1 MOL1        -0.6703
       3    O2      17.088404   16.444012   22.144942 O.co2      1 MOL1        -0.6703
       4    C2      19.341158   16.548232   21.461349 C.3        1 MOL1        -0.1963
       5    H1      18.978209   16.583187   20.427413 H          1 MOL1         0.0750
       6    H2      20.171329   15.831883   21.482201 H          1 MOL1         0.0750
       7    C3      19.835871   17.955691   21.884783 C.3        1 MOL1        -0.1860
       8    H3      20.553887   18.320862   21.138222 H          1 MOL1         0.0752
       9    H4      18.984726   18.649048   21.873219 H          1 MOL1         0.0752
      10    C4      20.506260   17.952195   23.279710 C.3        1 MOL1        -0.1858
      11    H5      21.292136   17.184715   23.294435 H          1 MOL1         0.0752
      12    H6      19.774610   17.659457   24.045408 H          1 MOL1         0.0752
      13    C5      21.140655   19.309976   23.665271 C.3        1 MOL1        -0.1858
      14    H7      21.710938   19.166287   24.591725 H          1 MOL1         0.0752
      15    H8      21.865762   19.609244   22.896389 H          1 MOL1         0.0752
      16    C6      20.101266   20.439348   23.871982 C.3        1 MOL1        -0.1858
      17    H9      19.374300   20.138015   24.638403 H          1 MOL1         0.0752
      18    H10     19.533179   20.587250   22.944908 H          1 MOL1         0.0752
      19    C7      20.735839   21.794110   24.264888 C.3        1 MOL1        -0.1834
      20    H11     21.472180   22.093054   23.506124 H          1 MOL1         0.0752
      21    H12     19.952365   22.564396   24.256629 H          1 MOL1         0.0752
      22    C8      21.400833   21.780021   25.658620 C.3        1 MOL1        -0.2849
      23    H13     21.748289   22.785873   25.927766 H          1 MOL1         0.0764
      24    H14     20.691718   21.450350   26.429065 H          1 MOL1         0.0764
      25    H15     22.270694   21.112041   25.682112 H          1 MOL1         0.0764
@<TRIPOS>BOND
    1     1     2    1
    2     1     3    2
    3     1     4    1
    4     4     5    1
    5     4     6    1
    6     4     7    1
    7     7     8    1
    8     7     9    1
    9     7    10    1
   10    10    11    1
   11    10    12    1
   12    10    13    1
   13    13    14    1
   14    13    15    1
   15    13    16    1
   16    16    17    1
   17    16    18    1
   18    16    19    1
   19    19    20    1
   20    19    21    1
   21    19    22    1
   22    22    23    1
   23    22    24    1
   24    22    25    1
@<TRIPOS>SUBSTRUCTURE
       1 MOL1            1 RESIDUE      1      MOL     
@<SCITEGIC>MOL_PROPERTY
VConf Rank
SciTegic.value.IntegerValue
138

@<SCITEGIC>MOL_PROPERTY
Conf_Id
SciTegic.value.IntegerValue
87

@<SCITEGIC>MOL_PROPERTY
Delta U+W
SciTegic.value.DoubleValue
1.453

@<SCITEGIC>MOL_PROPERTY
U+W
SciTegic.value.DoubleValue
-50.176

@<SCITEGIC>MOL_PROPERTY
Grad RMS
SciTegic.value.DoubleValue
0.000000

@<SCITEGIC>MOL_PROPERTY
U
SciTegic.value.DoubleValue
9.763

@<SCITEGIC>MOL_PROPERTY
W
SciTegic.value.DoubleValue
-59.940

@<SCITEGIC>MOL_PROPERTY
W(PB)
SciTegic.value.DoubleValue
-62.392

@<SCITEGIC>MOL_PROPERTY
W(SA)
SciTegic.value.DoubleValue
2.452

@<SCITEGIC>MOL_PROPERTY
Valence
SciTegic.value.DoubleValue
8.883

@<SCITEGIC>MOL_PROPERTY
Coulomb
SciTegic.value.DoubleValue
-0.122

@<SCITEGIC>MOL_PROPERTY
VdW
SciTegic.value.DoubleValue
1.003

@<SCITEGIC>MOL_PROPERTY
VdW6
SciTegic.value.DoubleValue
-9.782

@<SCITEGIC>MOL_PROPERTY
VdW12
SciTegic.value.DoubleValue
10.785

@<SCITEGIC>MOL_PROPERTY
Bond
SciTegic.value.DoubleValue
0.212

@<SCITEGIC>MOL_PROPERTY
Angle
SciTegic.value.DoubleValue
2.940

@<SCITEGIC>MOL_PROPERTY
Pdih
SciTegic.value.DoubleValue
5.730

@<SCITEGIC>MOL_PROPERTY
Idih
SciTegic.value.DoubleValue
0.001

@<SCITEGIC>MOL_PROPERTY
Tether
SciTegic.value.DoubleValue
0.000

@<TRIPOS>MOLECULE
guest-8_confgen4.mol2 : confsearch ligand conformer 139
          25          24           1
SMALL
USER_CHARGES
 
@<TRIPOS>ATOM
       1    C1      17.164153   20.551858   25.610677 C.2        1 MOL1         0.6168
       2    O1      17.675362   21.559532   26.057826 O.co2      1 MOL1        -0.6703
       3    O2      15.975402   20.444214   25.382588 O.co2      1 MOL1        -0.6703
       4    C2      18.066886   19.362907   25.301426 C.3        1 MOL1        -0.1963
       5    H1      17.492161   18.445028   25.473683 H          1 MOL1         0.0750
       6    H2      18.894681   19.367426   26.020668 H          1 MOL1         0.0750
       7    C3      18.617354   19.386283   23.854226 C.3        1 MOL1        -0.1860
       8    H3      17.777630   19.390074   23.145713 H          1 MOL1         0.0752
       9    H4      19.171104   20.321903   23.700078 H          1 MOL1         0.0752
      10    C4      19.534507   18.174470   23.569677 C.3        1 MOL1        -0.1858
      11    H5      18.985811   17.250150   23.795919 H          1 MOL1         0.0752
      12    H6      20.395402   18.191843   24.250826 H          1 MOL1         0.0752
      13    C5      20.024944   18.103638   22.101756 C.3        1 MOL1        -0.1858
      14    H7      20.617101   17.188617   21.969597 H          1 MOL1         0.0752
      15    H8      19.153695   17.990967   21.442436 H          1 MOL1         0.0752
      16    C6      20.854880   19.323291   21.620641 C.3        1 MOL1        -0.1858
      17    H9      20.212461   20.213222   21.596415 H          1 MOL1         0.0752
      18    H10     21.159964   19.149957   20.579791 H          1 MOL1         0.0752
      19    C7      22.115391   19.637115   22.463705 C.3        1 MOL1        -0.1834
      20    H11     22.603121   20.528498   22.046020 H          1 MOL1         0.0752
      21    H12     21.827409   19.901341   23.489904 H          1 MOL1         0.0752
      22    C8      23.135729   18.478560   22.490195 C.3        1 MOL1        -0.2849
      23    H13     23.425350   18.186973   21.472339 H          1 MOL1         0.0764
      24    H14     24.044180   18.778669   23.028135 H          1 MOL1         0.0764
      25    H15     22.724331   17.596837   22.997407 H          1 MOL1         0.0764
@<TRIPOS>BOND
    1     1     2    1
    2     1     3    2
    3     1     4    1
    4     4     5    1
    5     4     6    1
    6     4     7    1
    7     7     8    1
    8     7     9    1
    9     7    10    1
   10    10    11    1
   11    10    12    1
   12    10    13    1
   13    13    14    1
   14    13    15    1
   15    13    16    1
   16    16    17    1
   17    16    18    1
   18    16    19    1
   19    19    20    1
   20    19    21    1
   21    19    22    1
   22    22    23    1
   23    22    24    1
   24    22    25    1
@<TRIPOS>SUBSTRUCTURE
       1 MOL1            1 RESIDUE      1      MOL     
@<SCITEGIC>MOL_PROPERTY
VConf Rank
SciTegic.value.IntegerValue
139

@<SCITEGIC>MOL_PROPERTY
Conf_Id
SciTegic.value.IntegerValue
29

@<SCITEGIC>MOL_PROPERTY
Delta U+W
SciTegic.value.DoubleValue
0.850

@<SCITEGIC>MOL_PROPERTY
U+W
SciTegic.value.DoubleValue
-50.780

@<SCITEGIC>MOL_PROPERTY
Grad RMS
SciTegic.value.DoubleValue
0.000000

@<SCITEGIC>MOL_PROPERTY
U
SciTegic.value.DoubleValue
8.646

@<SCITEGIC>MOL_PROPERTY
W
SciTegic.value.DoubleValue
-59.426

@<SCITEGIC>MOL_PROPERTY
W(PB)
SciTegic.value.DoubleValue
-61.868

@<SCITEGIC>MOL_PROPERTY
W(SA)
SciTegic.value.DoubleValue
2.442

@<SCITEGIC>MOL_PROPERTY
Valence
SciTegic.value.DoubleValue
8.924

@<SCITEGIC>MOL_PROPERTY
Coulomb
SciTegic.value.DoubleValue
-1.171

@<SCITEGIC>MOL_PROPERTY
VdW
SciTegic.value.DoubleValue
0.894

@<SCITEGIC>MOL_PROPERTY
VdW6
SciTegic.value.DoubleValue
-10.223

@<SCITEGIC>MOL_PROPERTY
VdW12
SciTegic.value.DoubleValue
11.117

@<SCITEGIC>MOL_PROPERTY
Bond
SciTegic.value.DoubleValue
0.231

@<SCITEGIC>MOL_PROPERTY
Angle
SciTegic.value.DoubleValue
3.232

@<SCITEGIC>MOL_PROPERTY
Pdih
SciTegic.value.DoubleValue
5.461

@<SCITEGIC>MOL_PROPERTY
Idih
SciTegic.value.DoubleValue
0.001

@<SCITEGIC>MOL_PROPERTY
Tether
SciTegic.value.DoubleValue
0.000

@<TRIPOS>MOLECULE
guest-8_confgen4.mol2 : confsearch ligand conformer 140
          25          24           1
SMALL
USER_CHARGES
 
@<TRIPOS>ATOM
       1    C1      16.514083   17.510377   24.234943 C.2        1 MOL1         0.6168
       2    O1      16.600106   17.384023   25.440480 O.co2      1 MOL1        -0.6703
       3    O2      15.898831   16.744284   23.519887 O.co2      1 MOL1        -0.6703
       4    C2      17.233676   18.684538   23.580952 C.3        1 MOL1        -0.1963
       5    H1      17.235102   19.521033   24.290069 H          1 MOL1         0.0750
       6    H2      16.648575   18.999446   22.708615 H          1 MOL1         0.0750
       7    C3      18.683198   18.341280   23.157849 C.3        1 MOL1        -0.1860
       8    H3      19.242461   18.010319   24.042991 H          1 MOL1         0.0752
       9    H4      18.666636   17.497170   22.454753 H          1 MOL1         0.0752
      10    C4      19.391723   19.550427   22.504709 C.3        1 MOL1        -0.1858
      11    H5      19.444487   20.381360   23.220371 H          1 MOL1         0.0752
      12    H6      18.782597   19.910432   21.664480 H          1 MOL1         0.0752
      13    C5      20.809408   19.221252   21.973529 C.3        1 MOL1        -0.1858
      14    H7      20.725198   18.455246   21.190832 H          1 MOL1         0.0752
      15    H8      21.216662   20.110780   21.475267 H          1 MOL1         0.0752
      16    C6      21.819579   18.727008   23.042687 C.3        1 MOL1        -0.1858
      17    H9      22.786275   18.546553   22.553377 H          1 MOL1         0.0752
      18    H10     21.494877   17.750657   23.425537 H          1 MOL1         0.0752
      19    C7      22.037566   19.687387   24.237796 C.3        1 MOL1        -0.1834
      20    H11     21.100951   19.813262   24.797030 H          1 MOL1         0.0752
      21    H12     22.747792   19.222825   24.935410 H          1 MOL1         0.0752
      22    C8      22.584370   21.069099   23.818376 C.3        1 MOL1        -0.2849
      23    H13     21.857658   21.615473   23.204120 H          1 MOL1         0.0764
      24    H14     22.800143   21.681796   24.703120 H          1 MOL1         0.0764
      25    H15     23.513466   20.965623   23.243042 H          1 MOL1         0.0764
@<TRIPOS>BOND
    1     1     2    1
    2     1     3    2
    3     1     4    1
    4     4     5    1
    5     4     6    1
    6     4     7    1
    7     7     8    1
    8     7     9    1
    9     7    10    1
   10    10    11    1
   11    10    12    1
   12    10    13    1
   13    13    14    1
   14    13    15    1
   15    13    16    1
   16    16    17    1
   17    16    18    1
   18    16    19    1
   19    19    20    1
   20    19    21    1
   21    19    22    1
   22    22    23    1
   23    22    24    1
   24    22    25    1
@<TRIPOS>SUBSTRUCTURE
       1 MOL1            1 RESIDUE      1      MOL     
@<SCITEGIC>MOL_PROPERTY
VConf Rank
SciTegic.value.IntegerValue
140

@<SCITEGIC>MOL_PROPERTY
Conf_Id
SciTegic.value.IntegerValue
30

@<SCITEGIC>MOL_PROPERTY
Delta U+W
SciTegic.value.DoubleValue
0.843

@<SCITEGIC>MOL_PROPERTY
U+W
SciTegic.value.DoubleValue
-50.787

@<SCITEGIC>MOL_PROPERTY
Grad RMS
SciTegic.value.DoubleValue
0.000000

@<SCITEGIC>MOL_PROPERTY
U
SciTegic.value.DoubleValue
8.647

@<SCITEGIC>MOL_PROPERTY
W
SciTegic.value.DoubleValue
-59.434

@<SCITEGIC>MOL_PROPERTY
W(PB)
SciTegic.value.DoubleValue
-61.861

@<SCITEGIC>MOL_PROPERTY
W(SA)
SciTegic.value.DoubleValue
2.428

@<SCITEGIC>MOL_PROPERTY
Valence
SciTegic.value.DoubleValue
8.924

@<SCITEGIC>MOL_PROPERTY
Coulomb
SciTegic.value.DoubleValue
-1.170

@<SCITEGIC>MOL_PROPERTY
VdW
SciTegic.value.DoubleValue
0.894

@<SCITEGIC>MOL_PROPERTY
VdW6
SciTegic.value.DoubleValue
-10.224

@<SCITEGIC>MOL_PROPERTY
VdW12
SciTegic.value.DoubleValue
11.118

@<SCITEGIC>MOL_PROPERTY
Bond
SciTegic.value.DoubleValue
0.231

@<SCITEGIC>MOL_PROPERTY
Angle
SciTegic.value.DoubleValue
3.232

@<SCITEGIC>MOL_PROPERTY
Pdih
SciTegic.value.DoubleValue
5.460

@<SCITEGIC>MOL_PROPERTY
Idih
SciTegic.value.DoubleValue
0.000

@<SCITEGIC>MOL_PROPERTY
Tether
SciTegic.value.DoubleValue
0.000

@<TRIPOS>MOLECULE
guest-8_confgen4.mol2 : confsearch ligand conformer 141
          25          24           1
SMALL
USER_CHARGES
 
@<TRIPOS>ATOM
       1    C1      23.209838   22.327597   21.598044 C.2        1 MOL1         0.6168
       2    O1      23.309012   21.811284   20.501601 O.co2      1 MOL1        -0.6703
       3    O2      23.830570   23.320197   21.922935 O.co2      1 MOL1        -0.6703
       4    C2      22.267381   21.721861   22.639321 C.3        1 MOL1        -0.1963
       5    H1      21.555826   22.503540   22.930138 H          1 MOL1         0.0750
       6    H2      22.867481   21.487831   23.526460 H          1 MOL1         0.0750
       7    C3      21.496836   20.456124   22.178247 C.3        1 MOL1        -0.1860
       8    H3      20.902814   20.696071   21.285460 H          1 MOL1         0.0752
       9    H4      22.215645   19.679414   21.882373 H          1 MOL1         0.0752
      10    C4      20.570768   19.911559   23.287523 C.3        1 MOL1        -0.1858
      11    H5      19.853106   20.689725   23.581728 H          1 MOL1         0.0752
      12    H6      21.166760   19.672413   24.179004 H          1 MOL1         0.0752
      13    C5      19.805264   18.652529   22.826725 C.3        1 MOL1        -0.1858
      14    H7      19.209150   18.891386   21.935266 H          1 MOL1         0.0752
      15    H8      20.522676   17.874163   22.532496 H          1 MOL1         0.0752
      16    C6      18.879117   18.107525   23.935388 C.3        1 MOL1        -0.1858
      17    H9      18.161579   18.885723   24.229737 H          1 MOL1         0.0752
      18    H10     19.475046   17.868500   24.826920 H          1 MOL1         0.0752
      19    C7      18.113868   16.849074   23.474892 C.3        1 MOL1        -0.1834
      20    H11     17.515045   17.084848   22.584212 H          1 MOL1         0.0752
      21    H12     18.828495   16.067629   23.181397 H          1 MOL1         0.0752
      22    C8      17.190199   16.307947   24.584676 C.3        1 MOL1        -0.2849
      23    H13     16.444205   17.059031   24.875815 H          1 MOL1         0.0764
      24    H14     16.654333   15.413884   24.240314 H          1 MOL1         0.0764
      25    H15     17.767536   16.034138   25.477484 H          1 MOL1         0.0764
@<TRIPOS>BOND
    1     1     2    1
    2     1     3    2
    3     1     4    1
    4     4     5    1
    5     4     6    1
    6     4     7    1
    7     7     8    1
    8     7     9    1
    9     7    10    1
   10    10    11    1
   11    10    12    1
   12    10    13    1
   13    13    14    1
   14    13    15    1
   15    13    16    1
   16    16    17    1
   17    16    18    1
   18    16    19    1
   19    19    20    1
   20    19    21    1
   21    19    22    1
   22    22    23    1
   23    22    24    1
   24    22    25    1
@<TRIPOS>SUBSTRUCTURE
       1 MOL1            1 RESIDUE      1      MOL     
@<SCITEGIC>MOL_PROPERTY
VConf Rank
SciTegic.value.IntegerValue
141

@<SCITEGIC>MOL_PROPERTY
Conf_Id
SciTegic.value.IntegerValue
0

@<SCITEGIC>MOL_PROPERTY
Delta U+W
SciTegic.value.DoubleValue
0.000

@<SCITEGIC>MOL_PROPERTY
U+W
SciTegic.value.DoubleValue
-51.629

@<SCITEGIC>MOL_PROPERTY
Grad RMS
SciTegic.value.DoubleValue
0.000000

@<SCITEGIC>MOL_PROPERTY
U
SciTegic.value.DoubleValue
6.586

@<SCITEGIC>MOL_PROPERTY
W
SciTegic.value.DoubleValue
-58.216

@<SCITEGIC>MOL_PROPERTY
W(PB)
SciTegic.value.DoubleValue
-60.757

@<SCITEGIC>MOL_PROPERTY
W(SA)
SciTegic.value.DoubleValue
2.541

@<SCITEGIC>MOL_PROPERTY
Valence
SciTegic.value.DoubleValue
8.027

@<SCITEGIC>MOL_PROPERTY
Coulomb
SciTegic.value.DoubleValue
-2.892

@<SCITEGIC>MOL_PROPERTY
VdW
SciTegic.value.DoubleValue
1.451

@<SCITEGIC>MOL_PROPERTY
VdW6
SciTegic.value.DoubleValue
-7.931

@<SCITEGIC>MOL_PROPERTY
VdW12
SciTegic.value.DoubleValue
9.383

@<SCITEGIC>MOL_PROPERTY
Bond
SciTegic.value.DoubleValue
0.149

@<SCITEGIC>MOL_PROPERTY
Angle
SciTegic.value.DoubleValue
2.726

@<SCITEGIC>MOL_PROPERTY
Pdih
SciTegic.value.DoubleValue
5.152

@<SCITEGIC>MOL_PROPERTY
Idih
SciTegic.value.DoubleValue
0.000

@<SCITEGIC>MOL_PROPERTY
Tether
SciTegic.value.DoubleValue
0.000

@<TRIPOS>MOLECULE
guest-8_confgen4.mol2 : confsearch ligand conformer 142
          25          24           1
SMALL
USER_CHARGES
 
@<TRIPOS>ATOM
       1    C1      19.260589   23.598309   21.999321 C.2        1 MOL1         0.6168
       2    O1      19.922802   24.410927   22.613930 O.co2      1 MOL1        -0.6703
       3    O2      18.888315   23.760820   20.854060 O.co2      1 MOL1        -0.6703
       4    C2      18.896040   22.292277   22.696076 C.3        1 MOL1        -0.1963
       5    H1      17.921447   21.963703   22.315536 H          1 MOL1         0.0750
       6    H2      18.773332   22.499698   23.765901 H          1 MOL1         0.0750
       7    C3      19.954666   21.182051   22.484576 C.3        1 MOL1        -0.1860
       8    H3      20.075107   20.995767   21.408293 H          1 MOL1         0.0752
       9    H4      20.927005   21.531825   22.858485 H          1 MOL1         0.0752
      10    C4      19.563129   19.870630   23.199346 C.3        1 MOL1        -0.1858
      11    H5      18.590279   19.524257   22.824153 H          1 MOL1         0.0752
      12    H6      19.442183   20.060539   24.274746 H          1 MOL1         0.0752
      13    C5      20.620377   18.765839   22.986903 C.3        1 MOL1        -0.1858
      14    H7      20.741440   18.575708   21.911590 H          1 MOL1         0.0752
      15    H8      21.593285   19.111999   23.362040 H          1 MOL1         0.0752
      16    C6      20.229544   17.454135   23.701439 C.3        1 MOL1        -0.1858
      17    H9      19.256703   17.107647   23.326442 H          1 MOL1         0.0752
      18    H10     20.108417   17.643939   24.776799 H          1 MOL1         0.0752
      19    C7      21.286257   16.349735   23.489263 C.3        1 MOL1        -0.1834
      20    H11     21.408800   16.155786   22.414621 H          1 MOL1         0.0752
      21    H12     22.260493   16.692056   23.864989 H          1 MOL1         0.0752
      22    C8      20.892341   15.041600   24.204256 C.3        1 MOL1        -0.2849
      23    H13     21.654231   14.267919   24.042919 H          1 MOL1         0.0764
      24    H14     20.793670   15.199653   25.286236 H          1 MOL1         0.0764
      25    H15     19.935570   14.659354   23.824949 H          1 MOL1         0.0764
@<TRIPOS>BOND
    1     1     2    1
    2     1     3    2
    3     1     4    1
    4     4     5    1
    5     4     6    1
    6     4     7    1
    7     7     8    1
    8     7     9    1
    9     7    10    1
   10    10    11    1
   11    10    12    1
   12    10    13    1
   13    13    14    1
   14    13    15    1
   15    13    16    1
   16    16    17    1
   17    16    18    1
   18    16    19    1
   19    19    20    1
   20    19    21    1
   21    19    22    1
   22    22    23    1
   23    22    24    1
   24    22    25    1
@<TRIPOS>SUBSTRUCTURE
       1 MOL1            1 RESIDUE      1      MOL     
@<SCITEGIC>MOL_PROPERTY
VConf Rank
SciTegic.value.IntegerValue
142

@<SCITEGIC>MOL_PROPERTY
Conf_Id
SciTegic.value.IntegerValue
27

@<SCITEGIC>MOL_PROPERTY
Delta U+W
SciTegic.value.DoubleValue
-1.297

@<SCITEGIC>MOL_PROPERTY
U+W
SciTegic.value.DoubleValue
-52.926

@<SCITEGIC>MOL_PROPERTY
Grad RMS
SciTegic.value.DoubleValue
0.000000

@<SCITEGIC>MOL_PROPERTY
U
SciTegic.value.DoubleValue
5.617

@<SCITEGIC>MOL_PROPERTY
W
SciTegic.value.DoubleValue
-58.543

@<SCITEGIC>MOL_PROPERTY
W(PB)
SciTegic.value.DoubleValue
-61.065

@<SCITEGIC>MOL_PROPERTY
W(SA)
SciTegic.value.DoubleValue
2.522

@<SCITEGIC>MOL_PROPERTY
Valence
SciTegic.value.DoubleValue
7.531

@<SCITEGIC>MOL_PROPERTY
Coulomb
SciTegic.value.DoubleValue
-2.818

@<SCITEGIC>MOL_PROPERTY
VdW
SciTegic.value.DoubleValue
0.904

@<SCITEGIC>MOL_PROPERTY
VdW6
SciTegic.value.DoubleValue
-7.640

@<SCITEGIC>MOL_PROPERTY
VdW12
SciTegic.value.DoubleValue
8.544

@<SCITEGIC>MOL_PROPERTY
Bond
SciTegic.value.DoubleValue
0.115

@<SCITEGIC>MOL_PROPERTY
Angle
SciTegic.value.DoubleValue
2.271

@<SCITEGIC>MOL_PROPERTY
Pdih
SciTegic.value.DoubleValue
5.144

@<SCITEGIC>MOL_PROPERTY
Idih
SciTegic.value.DoubleValue
0.001

@<SCITEGIC>MOL_PROPERTY
Tether
SciTegic.value.DoubleValue
0.000

@<TRIPOS>MOLECULE
guest-8_confgen4.mol2 : confsearch ligand conformer 143
          25          24           1
SMALL
USER_CHARGES
 
@<TRIPOS>ATOM
       1    C1      18.374150   17.820376   19.996427 C.2        1 MOL1         0.6168
       2    O1      19.120998   17.288973   19.198366 O.co2      1 MOL1        -0.6703
       3    O2      17.492779   17.229928   20.589319 O.co2      1 MOL1        -0.6703
       4    C2      18.543405   19.315020   20.254024 C.3        1 MOL1        -0.1963
       5    H1      17.619570   19.699742   20.702760 H          1 MOL1         0.0750
       6    H2      18.651161   19.805528   19.279460 H          1 MOL1         0.0750
       7    C3      19.760410   19.666620   21.148574 C.3        1 MOL1        -0.1860
       8    H3      20.673677   19.251011   20.700372 H          1 MOL1         0.0752
       9    H4      19.885698   20.757723   21.167132 H          1 MOL1         0.0752
      10    C4      19.604258   19.147048   22.595444 C.3        1 MOL1        -0.1858
      11    H5      19.495893   18.053613   22.586510 H          1 MOL1         0.0752
      12    H6      18.683157   19.554467   23.034312 H          1 MOL1         0.0752
      13    C5      20.811514   19.535564   23.475911 C.3        1 MOL1        -0.1858
      14    H7      21.732089   19.127707   23.036274 H          1 MOL1         0.0752
      15    H8      20.920002   20.628772   23.488778 H          1 MOL1         0.0752
      16    C6      20.656566   19.016000   24.921561 C.3        1 MOL1        -0.1858
      17    H9      20.547989   17.922758   24.908850 H          1 MOL1         0.0752
      18    H10     19.735852   19.423458   25.361270 H          1 MOL1         0.0752
      19    C7      21.863271   19.403641   25.801883 C.3        1 MOL1        -0.1834
      20    H11     22.785952   18.996081   25.365949 H          1 MOL1         0.0752
      21    H12     21.973772   20.496799   25.818461 H          1 MOL1         0.0752
      22    C8      21.704696   18.882810   27.244518 C.3        1 MOL1        -0.2849
      23    H13     21.623611   17.788015   27.260198 H          1 MOL1         0.0764
      24    H14     22.570893   19.167233   27.855981 H          1 MOL1         0.0764
      25    H15     20.805282   19.299987   27.716124 H          1 MOL1         0.0764
@<TRIPOS>BOND
    1     1     2    1
    2     1     3    2
    3     1     4    1
    4     4     5    1
    5     4     6    1
    6     4     7    1
    7     7     8    1
    8     7     9    1
    9     7    10    1
   10    10    11    1
   11    10    12    1
   12    10    13    1
   13    13    14    1
   14    13    15    1
   15    13    16    1
   16    16    17    1
   17    16    18    1
   18    16    19    1
   19    19    20    1
   20    19    21    1
   21    19    22    1
   22    22    23    1
   23    22    24    1
   24    22    25    1
@<TRIPOS>SUBSTRUCTURE
       1 MOL1            1 RESIDUE      1      MOL     
@<SCITEGIC>MOL_PROPERTY
VConf Rank
SciTegic.value.IntegerValue
143

@<SCITEGIC>MOL_PROPERTY
Conf_Id
SciTegic.value.IntegerValue
37

@<SCITEGIC>MOL_PROPERTY
Delta U+W
SciTegic.value.DoubleValue
-0.230

@<SCITEGIC>MOL_PROPERTY
U+W
SciTegic.value.DoubleValue
-51.860

@<SCITEGIC>MOL_PROPERTY
Grad RMS
SciTegic.value.DoubleValue
0.000000

@<SCITEGIC>MOL_PROPERTY
U
SciTegic.value.DoubleValue
7.816

@<SCITEGIC>MOL_PROPERTY
W
SciTegic.value.DoubleValue
-59.675

@<SCITEGIC>MOL_PROPERTY
W(PB)
SciTegic.value.DoubleValue
-62.180

@<SCITEGIC>MOL_PROPERTY
W(SA)
SciTegic.value.DoubleValue
2.505

@<SCITEGIC>MOL_PROPERTY
Valence
SciTegic.value.DoubleValue
7.785

@<SCITEGIC>MOL_PROPERTY
Coulomb
SciTegic.value.DoubleValue
-0.713

@<SCITEGIC>MOL_PROPERTY
VdW
SciTegic.value.DoubleValue
0.744

@<SCITEGIC>MOL_PROPERTY
VdW6
SciTegic.value.DoubleValue
-8.514

@<SCITEGIC>MOL_PROPERTY
VdW12
SciTegic.value.DoubleValue
9.259

@<SCITEGIC>MOL_PROPERTY
Bond
SciTegic.value.DoubleValue
0.136

@<SCITEGIC>MOL_PROPERTY
Angle
SciTegic.value.DoubleValue
2.433

@<SCITEGIC>MOL_PROPERTY
Pdih
SciTegic.value.DoubleValue
5.216

@<SCITEGIC>MOL_PROPERTY
Idih
SciTegic.value.DoubleValue
0.000

@<SCITEGIC>MOL_PROPERTY
Tether
SciTegic.value.DoubleValue
0.000

@<TRIPOS>MOLECULE
guest-8_confgen4.mol2 : confsearch ligand conformer 144
          25          24           1
SMALL
USER_CHARGES
 
@<TRIPOS>ATOM
       1    C1      22.702650   19.319650   26.311591 C.2        1 MOL1         0.6168
       2    O1      22.295883   18.811705   27.338044 O.co2      1 MOL1        -0.6703
       3    O2      22.972584   20.499885   26.206031 O.co2      1 MOL1        -0.6703
       4    C2      22.900002   18.420888   25.094115 C.3        1 MOL1        -0.1963
       5    H1      23.418997   17.517126   25.434472 H          1 MOL1         0.0750
       6    H2      23.572027   18.927080   24.390554 H          1 MOL1         0.0750
       7    C3      21.580222   18.023921   24.383101 C.3        1 MOL1        -0.1860
       8    H3      21.802461   17.273927   23.611954 H          1 MOL1         0.0752
       9    H4      20.907179   17.543462   25.106872 H          1 MOL1         0.0752
      10    C4      20.870618   19.231287   23.730032 C.3        1 MOL1        -0.1858
      11    H5      21.551974   19.716006   23.017413 H          1 MOL1         0.0752
      12    H6      20.629256   19.978870   24.498333 H          1 MOL1         0.0752
      13    C5      19.576743   18.808541   23.001471 C.3        1 MOL1        -0.1858
      14    H7      19.816060   18.063113   22.230692 H          1 MOL1         0.0752
      15    H8      18.896013   18.324058   23.714893 H          1 MOL1         0.0752
      16    C6      18.866784   20.014546   22.349269 C.3        1 MOL1        -0.1858
      17    H9      19.547451   20.499356   21.636014 H          1 MOL1         0.0752
      18    H10     18.627504   20.760163   23.119936 H          1 MOL1         0.0752
      19    C7      17.573117   19.592582   21.621439 C.3        1 MOL1        -0.1834
      20    H11     17.808942   18.848009   20.848474 H          1 MOL1         0.0752
      21    H12     16.888978   19.108927   22.332435 H          1 MOL1         0.0752
      22    C8      16.867271   20.799696   20.971622 C.3        1 MOL1        -0.2849
      23    H13     17.518325   21.284050   20.232078 H          1 MOL1         0.0764
      24    H14     15.950108   20.481702   20.459009 H          1 MOL1         0.0764
      25    H15     16.591505   21.546966   21.727227 H          1 MOL1         0.0764
@<TRIPOS>BOND
    1     1     2    1
    2     1     3    2
    3     1     4    1
    4     4     5    1
    5     4     6    1
    6     4     7    1
    7     7     8    1
    8     7     9    1
    9     7    10    1
   10    10    11    1
   11    10    12    1
   12    10    13    1
   13    13    14    1
   14    13    15    1
   15    13    16    1
   16    16    17    1
   17    16    18    1
   18    16    19    1
   19    19    20    1
   20    19    21    1
   21    19    22    1
   22    22    23    1
   23    22    24    1
   24    22    25    1
@<TRIPOS>SUBSTRUCTURE
       1 MOL1            1 RESIDUE      1      MOL     
@<SCITEGIC>MOL_PROPERTY
VConf Rank
SciTegic.value.IntegerValue
144

@<SCITEGIC>MOL_PROPERTY
Conf_Id
SciTegic.value.IntegerValue
54

@<SCITEGIC>MOL_PROPERTY
Delta U+W
SciTegic.value.DoubleValue
-0.224

@<SCITEGIC>MOL_PROPERTY
U+W
SciTegic.value.DoubleValue
-51.854

@<SCITEGIC>MOL_PROPERTY
Grad RMS
SciTegic.value.DoubleValue
0.000000

@<SCITEGIC>MOL_PROPERTY
U
SciTegic.value.DoubleValue
7.816

@<SCITEGIC>MOL_PROPERTY
W
SciTegic.value.DoubleValue
-59.670

@<SCITEGIC>MOL_PROPERTY
W(PB)
SciTegic.value.DoubleValue
-62.157

@<SCITEGIC>MOL_PROPERTY
W(SA)
SciTegic.value.DoubleValue
2.487

@<SCITEGIC>MOL_PROPERTY
Valence
SciTegic.value.DoubleValue
7.785

@<SCITEGIC>MOL_PROPERTY
Coulomb
SciTegic.value.DoubleValue
-0.713

@<SCITEGIC>MOL_PROPERTY
VdW
SciTegic.value.DoubleValue
0.744

@<SCITEGIC>MOL_PROPERTY
VdW6
SciTegic.value.DoubleValue
-8.515

@<SCITEGIC>MOL_PROPERTY
VdW12
SciTegic.value.DoubleValue
9.259

@<SCITEGIC>MOL_PROPERTY
Bond
SciTegic.value.DoubleValue
0.136

@<SCITEGIC>MOL_PROPERTY
Angle
SciTegic.value.DoubleValue
2.433

@<SCITEGIC>MOL_PROPERTY
Pdih
SciTegic.value.DoubleValue
5.215

@<SCITEGIC>MOL_PROPERTY
Idih
SciTegic.value.DoubleValue
0.000

@<SCITEGIC>MOL_PROPERTY
Tether
SciTegic.value.DoubleValue
0.000

@<TRIPOS>MOLECULE
guest-8_confgen4.mol2 : confsearch ligand conformer 145
          25          24           1
SMALL
USER_CHARGES
 
@<TRIPOS>ATOM
       1    C1      23.005237   21.353011   21.515343 C.2        1 MOL1         0.6168
       2    O1      23.694242   20.550037   20.917386 O.co2      1 MOL1        -0.6703
       3    O2      22.547569   22.357298   21.006365 O.co2      1 MOL1        -0.6703
       4    C2      22.712801   21.097731   22.991316 C.3        1 MOL1        -0.1963
       5    H1      22.882787   22.039762   23.525782 H          1 MOL1         0.0750
       6    H2      23.446477   20.378342   23.374760 H          1 MOL1         0.0750
       7    C3      21.272640   20.595508   23.273048 C.3        1 MOL1        -0.1860
       8    H3      21.112753   20.593081   24.358514 H          1 MOL1         0.0752
       9    H4      20.550133   21.305386   22.847072 H          1 MOL1         0.0752
      10    C4      21.015562   19.179458   22.703255 C.3        1 MOL1        -0.1858
      11    H5      21.708484   18.462240   23.163946 H          1 MOL1         0.0752
      12    H6      21.240747   19.178835   21.627955 H          1 MOL1         0.0752
      13    C5      19.559874   18.689747   22.893283 C.3        1 MOL1        -0.1858
      14    H7      18.866464   19.416660   22.449035 H          1 MOL1         0.0752
      15    H8      19.439819   17.758418   22.325495 H          1 MOL1         0.0752
      16    C6      19.179246   18.440387   24.373747 C.3        1 MOL1        -0.1858
      17    H9      19.291393   19.372115   24.942237 H          1 MOL1         0.0752
      18    H10     19.876072   17.717256   24.818866 H          1 MOL1         0.0752
      19    C7      17.727234   17.940488   24.558805 C.3        1 MOL1        -0.1834
      20    H11     17.496355   17.922255   25.632866 H          1 MOL1         0.0752
      21    H12     17.027724   18.655244   24.103711 H          1 MOL1         0.0752
      22    C8      17.483549   16.530978   23.976708 C.3        1 MOL1        -0.2849
      23    H13     17.582778   16.524635   22.884226 H          1 MOL1         0.0764
      24    H14     18.195369   15.805781   24.392056 H          1 MOL1         0.0764
      25    H15     16.470058   16.186084   24.219174 H          1 MOL1         0.0764
@<TRIPOS>BOND
    1     1     2    1
    2     1     3    2
    3     1     4    1
    4     4     5    1
    5     4     6    1
    6     4     7    1
    7     7     8    1
    8     7     9    1
    9     7    10    1
   10    10    11    1
   11    10    12    1
   12    10    13    1
   13    13    14    1
   14    13    15    1
   15    13    16    1
   16    16    17    1
   17    16    18    1
   18    16    19    1
   19    19    20    1
   20    19    21    1
   21    19    22    1
   22    22    23    1
   23    22    24    1
   24    22    25    1
@<TRIPOS>SUBSTRUCTURE
       1 MOL1            1 RESIDUE      1      MOL     
@<SCITEGIC>MOL_PROPERTY
VConf Rank
SciTegic.value.IntegerValue
145

@<SCITEGIC>MOL_PROPERTY
Conf_Id
SciTegic.value.IntegerValue
101

@<SCITEGIC>MOL_PROPERTY
Delta U+W
SciTegic.value.DoubleValue
1.534

@<SCITEGIC>MOL_PROPERTY
U+W
SciTegic.value.DoubleValue
-50.095

@<SCITEGIC>MOL_PROPERTY
Grad RMS
SciTegic.value.DoubleValue
0.000000

@<SCITEGIC>MOL_PROPERTY
U
SciTegic.value.DoubleValue
9.416

@<SCITEGIC>MOL_PROPERTY
W
SciTegic.value.DoubleValue
-59.512

@<SCITEGIC>MOL_PROPERTY
W(PB)
SciTegic.value.DoubleValue
-61.988

@<SCITEGIC>MOL_PROPERTY
W(SA)
SciTegic.value.DoubleValue
2.476

@<SCITEGIC>MOL_PROPERTY
Valence
SciTegic.value.DoubleValue
8.939

@<SCITEGIC>MOL_PROPERTY
Coulomb
SciTegic.value.DoubleValue
-0.615

@<SCITEGIC>MOL_PROPERTY
VdW
SciTegic.value.DoubleValue
1.092

@<SCITEGIC>MOL_PROPERTY
VdW6
SciTegic.value.DoubleValue
-9.710

@<SCITEGIC>MOL_PROPERTY
VdW12
SciTegic.value.DoubleValue
10.802

@<SCITEGIC>MOL_PROPERTY
Bond
SciTegic.value.DoubleValue
0.216

@<SCITEGIC>MOL_PROPERTY
Angle
SciTegic.value.DoubleValue
2.979

@<SCITEGIC>MOL_PROPERTY
Pdih
SciTegic.value.DoubleValue
5.743

@<SCITEGIC>MOL_PROPERTY
Idih
SciTegic.value.DoubleValue
0.000

@<SCITEGIC>MOL_PROPERTY
Tether
SciTegic.value.DoubleValue
0.000

@<TRIPOS>MOLECULE
guest-8_confgen4.mol2 : confsearch ligand conformer 146
          25          24           1
SMALL
USER_CHARGES
 
@<TRIPOS>ATOM
       1    C1      22.467965   21.297363   26.007771 C.2        1 MOL1         0.6168
       2    O1      21.719403   21.881161   26.766435 O.co2      1 MOL1        -0.6703
       3    O2      23.628971   21.048704   26.266633 O.co2      1 MOL1        -0.6703
       4    C2      21.913852   20.831130   24.666221 C.3        1 MOL1        -0.1963
       5    H1      22.729626   20.857238   23.933985 H          1 MOL1         0.0750
       6    H2      21.163760   21.562021   24.344474 H          1 MOL1         0.0750
       7    C3      21.300242   19.408269   24.733331 C.3        1 MOL1        -0.1860
       8    H3      22.049637   18.722364   25.152103 H          1 MOL1         0.0752
       9    H4      20.452970   19.405706   25.432920 H          1 MOL1         0.0752
      10    C4      20.845005   18.862586   23.358669 C.3        1 MOL1        -0.1858
      11    H5      20.562993   17.809980   23.488971 H          1 MOL1         0.0752
      12    H6      21.691067   18.875211   22.658250 H          1 MOL1         0.0752
      13    C5      19.651565   19.640765   22.752007 C.3        1 MOL1        -0.1858
      14    H7      18.805755   19.627509   23.451611 H          1 MOL1         0.0752
      15    H8      19.928019   20.695310   22.628610 H          1 MOL1         0.0752
      16    C6      19.202643   19.104766   21.368702 C.3        1 MOL1        -0.1858
      17    H9      20.036076   19.207047   20.660461 H          1 MOL1         0.0752
      18    H10     18.400212   19.750284   20.986499 H          1 MOL1         0.0752
      19    C7      18.710242   17.636208   21.350279 C.3        1 MOL1        -0.1834
      20    H11     18.426756   17.376313   20.321136 H          1 MOL1         0.0752
      21    H12     19.530292   16.957087   21.617966 H          1 MOL1         0.0752
      22    C8      17.501023   17.383762   22.276562 C.3        1 MOL1        -0.2849
      23    H13     16.676495   18.069458   22.042137 H          1 MOL1         0.0764
      24    H14     17.132425   16.356923   22.156128 H          1 MOL1         0.0764
      25    H15     17.772308   17.517957   23.331301 H          1 MOL1         0.0764
@<TRIPOS>BOND
    1     1     2    1
    2     1     3    2
    3     1     4    1
    4     4     5    1
    5     4     6    1
    6     4     7    1
    7     7     8    1
    8     7     9    1
    9     7    10    1
   10    10    11    1
   11    10    12    1
   12    10    13    1
   13    13    14    1
   14    13    15    1
   15    13    16    1
   16    16    17    1
   17    16    18    1
   18    16    19    1
   19    19    20    1
   20    19    21    1
   21    19    22    1
   22    22    23    1
   23    22    24    1
   24    22    25    1
@<TRIPOS>SUBSTRUCTURE
       1 MOL1            1 RESIDUE      1      MOL     
@<SCITEGIC>MOL_PROPERTY
VConf Rank
SciTegic.value.IntegerValue
146

@<SCITEGIC>MOL_PROPERTY
Conf_Id
SciTegic.value.IntegerValue
75

@<SCITEGIC>MOL_PROPERTY
Delta U+W
SciTegic.value.DoubleValue
1.014

@<SCITEGIC>MOL_PROPERTY
U+W
SciTegic.value.DoubleValue
-50.615

@<SCITEGIC>MOL_PROPERTY
Grad RMS
SciTegic.value.DoubleValue
0.000000

@<SCITEGIC>MOL_PROPERTY
U
SciTegic.value.DoubleValue
8.474

@<SCITEGIC>MOL_PROPERTY
W
SciTegic.value.DoubleValue
-59.089

@<SCITEGIC>MOL_PROPERTY
W(PB)
SciTegic.value.DoubleValue
-61.530

@<SCITEGIC>MOL_PROPERTY
W(SA)
SciTegic.value.DoubleValue
2.441

@<SCITEGIC>MOL_PROPERTY
Valence
SciTegic.value.DoubleValue
9.080

@<SCITEGIC>MOL_PROPERTY
Coulomb
SciTegic.value.DoubleValue
-1.772

@<SCITEGIC>MOL_PROPERTY
VdW
SciTegic.value.DoubleValue
1.165

@<SCITEGIC>MOL_PROPERTY
VdW6
SciTegic.value.DoubleValue
-9.830

@<SCITEGIC>MOL_PROPERTY
VdW12
SciTegic.value.DoubleValue
10.996

@<SCITEGIC>MOL_PROPERTY
Bond
SciTegic.value.DoubleValue
0.240

@<SCITEGIC>MOL_PROPERTY
Angle
SciTegic.value.DoubleValue
3.225

@<SCITEGIC>MOL_PROPERTY
Pdih
SciTegic.value.DoubleValue
5.615

@<SCITEGIC>MOL_PROPERTY
Idih
SciTegic.value.DoubleValue
0.001

@<SCITEGIC>MOL_PROPERTY
Tether
SciTegic.value.DoubleValue
0.000

@<TRIPOS>MOLECULE
guest-8_confgen4.mol2 : confsearch ligand conformer 147
          25          24           1
SMALL
USER_CHARGES
 
@<TRIPOS>ATOM
       1    C1      24.015585   20.761972   23.141698 C.2        1 MOL1         0.6168
       2    O1      24.339056   21.076798   24.269928 O.co2      1 MOL1        -0.6703
       3    O2      24.810289   20.468558   22.270479 O.co2      1 MOL1        -0.6703
       4    C2      22.529215   20.711640   22.806658 C.3        1 MOL1        -0.1963
       5    H1      22.408550   20.982653   21.750934 H          1 MOL1         0.0750
       6    H2      22.020208   21.481230   23.399322 H          1 MOL1         0.0750
       7    C3      21.898117   19.323753   23.077886 C.3        1 MOL1        -0.1860
       8    H3      22.426912   18.562740   22.487352 H          1 MOL1         0.0752
       9    H4      22.039059   19.061719   24.135718 H          1 MOL1         0.0752
      10    C4      20.393365   19.298994   22.732546 C.3        1 MOL1        -0.1858
      11    H5      20.257313   19.561907   21.674633 H          1 MOL1         0.0752
      12    H6      19.874668   20.068220   23.316891 H          1 MOL1         0.0752
      13    C5      19.769103   17.909109   22.999474 C.3        1 MOL1        -0.1858
      14    H7      20.293083   17.173238   22.374290 H          1 MOL1         0.0752
      15    H8      19.942951   17.605196   24.040739 H          1 MOL1         0.0752
      16    C6      18.255516   17.842377   22.672325 C.3        1 MOL1        -0.1858
      17    H9      18.039122   16.847533   22.259616 H          1 MOL1         0.0752
      18    H10     18.005854   18.556412   21.875671 H          1 MOL1         0.0752
      19    C7      17.320960   18.054742   23.889045 C.3        1 MOL1        -0.1834
      20    H11     16.282860   17.906426   23.561137 H          1 MOL1         0.0752
      21    H12     17.517977   17.281097   24.643959 H          1 MOL1         0.0752
      22    C8      17.438666   19.447912   24.541422 C.3        1 MOL1        -0.2849
      23    H13     17.312079   20.244066   23.796387 H          1 MOL1         0.0764
      24    H14     16.666748   19.577901   25.310836 H          1 MOL1         0.0764
      25    H15     18.413923   19.575855   25.027354 H          1 MOL1         0.0764
@<TRIPOS>BOND
    1     1     2    1
    2     1     3    2
    3     1     4    1
    4     4     5    1
    5     4     6    1
    6     4     7    1
    7     7     8    1
    8     7     9    1
    9     7    10    1
   10    10    11    1
   11    10    12    1
   12    10    13    1
   13    13    14    1
   14    13    15    1
   15    13    16    1
   16    16    17    1
   17    16    18    1
   18    16    19    1
   19    19    20    1
   20    19    21    1
   21    19    22    1
   22    22    23    1
   23    22    24    1
   24    22    25    1
@<TRIPOS>SUBSTRUCTURE
       1 MOL1            1 RESIDUE      1      MOL     
@<SCITEGIC>MOL_PROPERTY
VConf Rank
SciTegic.value.IntegerValue
147

@<SCITEGIC>MOL_PROPERTY
Conf_Id
SciTegic.value.IntegerValue
125

@<SCITEGIC>MOL_PROPERTY
Delta U+W
SciTegic.value.DoubleValue
2.314

@<SCITEGIC>MOL_PROPERTY
U+W
SciTegic.value.DoubleValue
-49.315

@<SCITEGIC>MOL_PROPERTY
Grad RMS
SciTegic.value.DoubleValue
0.000000

@<SCITEGIC>MOL_PROPERTY
U
SciTegic.value.DoubleValue
9.740

@<SCITEGIC>MOL_PROPERTY
W
SciTegic.value.DoubleValue
-59.054

@<SCITEGIC>MOL_PROPERTY
W(PB)
SciTegic.value.DoubleValue
-61.488

@<SCITEGIC>MOL_PROPERTY
W(SA)
SciTegic.value.DoubleValue
2.433

@<SCITEGIC>MOL_PROPERTY
Valence
SciTegic.value.DoubleValue
10.506

@<SCITEGIC>MOL_PROPERTY
Coulomb
SciTegic.value.DoubleValue
-1.761

@<SCITEGIC>MOL_PROPERTY
VdW
SciTegic.value.DoubleValue
0.994

@<SCITEGIC>MOL_PROPERTY
VdW6
SciTegic.value.DoubleValue
-9.209

@<SCITEGIC>MOL_PROPERTY
VdW12
SciTegic.value.DoubleValue
10.203

@<SCITEGIC>MOL_PROPERTY
Bond
SciTegic.value.DoubleValue
0.193

@<SCITEGIC>MOL_PROPERTY
Angle
SciTegic.value.DoubleValue
2.979

@<SCITEGIC>MOL_PROPERTY
Pdih
SciTegic.value.DoubleValue
7.334

@<SCITEGIC>MOL_PROPERTY
Idih
SciTegic.value.DoubleValue
0.001

@<SCITEGIC>MOL_PROPERTY
Tether
SciTegic.value.DoubleValue
0.000

@<TRIPOS>MOLECULE
guest-8_confgen4.mol2 : confsearch ligand conformer 148
          25          24           1
SMALL
USER_CHARGES
 
@<TRIPOS>ATOM
       1    C1      17.106378   16.361563   23.331524 C.2        1 MOL1         0.6168
       2    O1      16.933620   16.087721   24.502788 O.co2      1 MOL1        -0.6703
       3    O2      16.566598   15.772577   22.415841 O.co2      1 MOL1        -0.6703
       4    C2      18.072294   17.490709   22.990858 C.3        1 MOL1        -0.1963
       5    H1      18.007358   18.236868   23.790701 H          1 MOL1         0.0750
       6    H2      17.723208   17.970239   22.068608 H          1 MOL1         0.0750
       7    C3      19.532937   16.998670   22.818624 C.3        1 MOL1        -0.1860
       8    H3      19.886982   16.562767   23.763065 H          1 MOL1         0.0752
       9    H4      19.546381   16.186817   22.078246 H          1 MOL1         0.0752
      10    C4      20.508431   18.107143   22.356184 C.3        1 MOL1        -0.1858
      11    H5      20.156936   18.534244   21.406970 H          1 MOL1         0.0752
      12    H6      21.484059   17.647161   22.147672 H          1 MOL1         0.0752
      13    C5      20.695625   19.235312   23.397042 C.3        1 MOL1        -0.1858
      14    H7      19.739092   19.745842   23.561452 H          1 MOL1         0.0752
      15    H8      20.999190   18.800453   24.358972 H          1 MOL1         0.0752
      16    C6      21.755639   20.263360   22.938029 C.3        1 MOL1        -0.1858
      17    H9      21.432097   20.734348   21.999745 H          1 MOL1         0.0752
      18    H10     22.692740   19.735554   22.714185 H          1 MOL1         0.0752
      19    C7      22.048752   21.356979   23.991548 C.3        1 MOL1        -0.1834
      20    H11     22.377907   20.889535   24.929876 H          1 MOL1         0.0752
      21    H12     22.889779   21.969637   23.638632 H          1 MOL1         0.0752
      22    C8      20.842340   22.280811   24.266662 C.3        1 MOL1        -0.2849
      23    H13     20.014513   21.731301   24.731880 H          1 MOL1         0.0764
      24    H14     21.127677   23.091462   24.949539 H          1 MOL1         0.0764
      25    H15     20.475421   22.735338   23.337208 H          1 MOL1         0.0764
@<TRIPOS>BOND
    1     1     2    1
    2     1     3    2
    3     1     4    1
    4     4     5    1
    5     4     6    1
    6     4     7    1
    7     7     8    1
    8     7     9    1
    9     7    10    1
   10    10    11    1
   11    10    12    1
   12    10    13    1
   13    13    14    1
   14    13    15    1
   15    13    16    1
   16    16    17    1
   17    16    18    1
   18    16    19    1
   19    19    20    1
   20    19    21    1
   21    19    22    1
   22    22    23    1
   23    22    24    1
   24    22    25    1
@<TRIPOS>SUBSTRUCTURE
       1 MOL1            1 RESIDUE      1      MOL     
@<SCITEGIC>MOL_PROPERTY
VConf Rank
SciTegic.value.IntegerValue
148

@<SCITEGIC>MOL_PROPERTY
Conf_Id
SciTegic.value.IntegerValue
4

@<SCITEGIC>MOL_PROPERTY
Delta U+W
SciTegic.value.DoubleValue
0.189

@<SCITEGIC>MOL_PROPERTY
U+W
SciTegic.value.DoubleValue
-51.441

@<SCITEGIC>MOL_PROPERTY
Grad RMS
SciTegic.value.DoubleValue
0.000000

@<SCITEGIC>MOL_PROPERTY
U
SciTegic.value.DoubleValue
7.701

@<SCITEGIC>MOL_PROPERTY
W
SciTegic.value.DoubleValue
-59.141

@<SCITEGIC>MOL_PROPERTY
W(PB)
SciTegic.value.DoubleValue
-61.609

@<SCITEGIC>MOL_PROPERTY
W(SA)
SciTegic.value.DoubleValue
2.467

@<SCITEGIC>MOL_PROPERTY
Valence
SciTegic.value.DoubleValue
8.550

@<SCITEGIC>MOL_PROPERTY
Coulomb
SciTegic.value.DoubleValue
-1.988

@<SCITEGIC>MOL_PROPERTY
VdW
SciTegic.value.DoubleValue
1.139

@<SCITEGIC>MOL_PROPERTY
VdW6
SciTegic.value.DoubleValue
-8.988

@<SCITEGIC>MOL_PROPERTY
VdW12
SciTegic.value.DoubleValue
10.127

@<SCITEGIC>MOL_PROPERTY
Bond
SciTegic.value.DoubleValue
0.191

@<SCITEGIC>MOL_PROPERTY
Angle
SciTegic.value.DoubleValue
2.738

@<SCITEGIC>MOL_PROPERTY
Pdih
SciTegic.value.DoubleValue
5.621

@<SCITEGIC>MOL_PROPERTY
Idih
SciTegic.value.DoubleValue
0.001

@<SCITEGIC>MOL_PROPERTY
Tether
SciTegic.value.DoubleValue
0.000

@<TRIPOS>MOLECULE
guest-8_confgen4.mol2 : confsearch ligand conformer 149
          25          24           1
SMALL
USER_CHARGES
 
@<TRIPOS>ATOM
       1    C1      23.506418   20.562212   24.985661 C.2        1 MOL1         0.6168
       2    O1      24.300808   19.651077   24.861279 O.co2      1 MOL1        -0.6703
       3    O2      23.806509   21.665351   25.397693 O.co2      1 MOL1        -0.6703
       4    C2      22.057785   20.314983   24.580244 C.3        1 MOL1        -0.1963
       5    H1      21.415492   20.931136   25.220690 H          1 MOL1         0.0750
       6    H2      21.825501   19.266536   24.798249 H          1 MOL1         0.0750
       7    C3      21.790133   20.635746   23.086687 C.3        1 MOL1        -0.1860
       8    H3      22.121923   21.663080   22.881873 H          1 MOL1         0.0752
       9    H4      22.404666   19.979752   22.454746 H          1 MOL1         0.0752
      10    C4      20.301961   20.506029   22.683360 C.3        1 MOL1        -0.1858
      11    H5      20.189087   20.862912   21.650497 H          1 MOL1         0.0752
      12    H6      19.691476   21.170354   23.310219 H          1 MOL1         0.0752
      13    C5      19.762665   19.059886   22.778356 C.3        1 MOL1        -0.1858
      14    H7      20.404346   18.389567   22.190579 H          1 MOL1         0.0752
      15    H8      19.807899   18.718633   23.819570 H          1 MOL1         0.0752
      16    C6      18.306784   18.960377   22.266777 C.3        1 MOL1        -0.1858
      17    H9      18.257870   19.362949   21.245803 H          1 MOL1         0.0752
      18    H10     17.654204   19.594168   22.882678 H          1 MOL1         0.0752
      19    C7      17.757883   17.514606   22.250322 C.3        1 MOL1        -0.1834
      20    H11     16.771595   17.517801   21.766119 H          1 MOL1         0.0752
      21    H12     18.405437   16.878904   21.630754 H          1 MOL1         0.0752
      22    C8      17.617747   16.897096   23.658737 C.3        1 MOL1        -0.2849
      23    H13     16.999658   17.532215   24.306579 H          1 MOL1         0.0764
      24    H14     17.141264   15.910019   23.599263 H          1 MOL1         0.0764
      25    H15     18.595949   16.764795   24.137594 H          1 MOL1         0.0764
@<TRIPOS>BOND
    1     1     2    1
    2     1     3    2
    3     1     4    1
    4     4     5    1
    5     4     6    1
    6     4     7    1
    7     7     8    1
    8     7     9    1
    9     7    10    1
   10    10    11    1
   11    10    12    1
   12    10    13    1
   13    13    14    1
   14    13    15    1
   15    13    16    1
   16    16    17    1
   17    16    18    1
   18    16    19    1
   19    19    20    1
   20    19    21    1
   21    19    22    1
   22    22    23    1
   23    22    24    1
   24    22    25    1
@<TRIPOS>SUBSTRUCTURE
       1 MOL1            1 RESIDUE      1      MOL     
@<SCITEGIC>MOL_PROPERTY
VConf Rank
SciTegic.value.IntegerValue
149

@<SCITEGIC>MOL_PROPERTY
Conf_Id
SciTegic.value.IntegerValue
17

@<SCITEGIC>MOL_PROPERTY
Delta U+W
SciTegic.value.DoubleValue
0.219

@<SCITEGIC>MOL_PROPERTY
U+W
SciTegic.value.DoubleValue
-51.411

@<SCITEGIC>MOL_PROPERTY
Grad RMS
SciTegic.value.DoubleValue
0.000000

@<SCITEGIC>MOL_PROPERTY
U
SciTegic.value.DoubleValue
7.701

@<SCITEGIC>MOL_PROPERTY
W
SciTegic.value.DoubleValue
-59.111

@<SCITEGIC>MOL_PROPERTY
W(PB)
SciTegic.value.DoubleValue
-61.599

@<SCITEGIC>MOL_PROPERTY
W(SA)
SciTegic.value.DoubleValue
2.488

@<SCITEGIC>MOL_PROPERTY
Valence
SciTegic.value.DoubleValue
8.550

@<SCITEGIC>MOL_PROPERTY
Coulomb
SciTegic.value.DoubleValue
-1.988

@<SCITEGIC>MOL_PROPERTY
VdW
SciTegic.value.DoubleValue
1.139

@<SCITEGIC>MOL_PROPERTY
VdW6
SciTegic.value.DoubleValue
-8.988

@<SCITEGIC>MOL_PROPERTY
VdW12
SciTegic.value.DoubleValue
10.127

@<SCITEGIC>MOL_PROPERTY
Bond
SciTegic.value.DoubleValue
0.191

@<SCITEGIC>MOL_PROPERTY
Angle
SciTegic.value.DoubleValue
2.738

@<SCITEGIC>MOL_PROPERTY
Pdih
SciTegic.value.DoubleValue
5.621

@<SCITEGIC>MOL_PROPERTY
Idih
SciTegic.value.DoubleValue
0.001

@<SCITEGIC>MOL_PROPERTY
Tether
SciTegic.value.DoubleValue
0.000

@<TRIPOS>MOLECULE
guest-8_confgen4.mol2 : confsearch ligand conformer 150
          25          24           1
SMALL
USER_CHARGES
 
@<TRIPOS>ATOM
       1    C1      21.692552   16.133594   22.295654 C.2        1 MOL1         0.6168
       2    O1      22.746336   15.992279   22.884406 O.co2      1 MOL1        -0.6703
       3    O2      21.609577   16.293723   21.093760 O.co2      1 MOL1        -0.6703
       4    C2      20.399955   16.088470   23.105647 C.3        1 MOL1        -0.1963
       5    H1      20.603884   15.593659   24.062908 H          1 MOL1         0.0750
       6    H2      19.694038   15.449432   22.562237 H          1 MOL1         0.0750
       7    C3      19.759581   17.480169   23.346465 C.3        1 MOL1        -0.1860
       8    H3      19.582972   17.962777   22.376122 H          1 MOL1         0.0752
       9    H4      18.776818   17.344065   23.817545 H          1 MOL1         0.0752
      10    C4      20.635161   18.387294   24.243815 C.3        1 MOL1        -0.1858
      11    H5      21.595179   18.587561   23.748255 H          1 MOL1         0.0752
      12    H6      20.872749   17.849122   25.171592 H          1 MOL1         0.0752
      13    C5      19.956629   19.727730   24.613339 C.3        1 MOL1        -0.1858
      14    H7      19.000539   19.529917   25.116937 H          1 MOL1         0.0752
      15    H8      20.590653   20.248437   25.343912 H          1 MOL1         0.0752
      16    C6      19.724123   20.655771   23.398549 C.3        1 MOL1        -0.1858
      17    H9      19.030975   20.181471   22.691787 H          1 MOL1         0.0752
      18    H10     20.672669   20.806973   22.865359 H          1 MOL1         0.0752
      19    C7      19.150394   22.022931   23.826867 C.3        1 MOL1        -0.1834
      20    H11     18.202244   21.875012   24.362207 H          1 MOL1         0.0752
      21    H12     19.840534   22.511438   24.528644 H          1 MOL1         0.0752
      22    C8      18.915620   22.945840   22.614084 C.3        1 MOL1        -0.2849
      23    H13     18.203290   22.495903   21.910149 H          1 MOL1         0.0764
      24    H14     18.508285   23.912793   22.936786 H          1 MOL1         0.0764
      25    H15     19.854444   23.135574   22.077435 H          1 MOL1         0.0764
@<TRIPOS>BOND
    1     1     2    1
    2     1     3    2
    3     1     4    1
    4     4     5    1
    5     4     6    1
    6     4     7    1
    7     7     8    1
    8     7     9    1
    9     7    10    1
   10    10    11    1
   11    10    12    1
   12    10    13    1
   13    13    14    1
   14    13    15    1
   15    13    16    1
   16    16    17    1
   17    16    18    1
   18    16    19    1
   19    19    20    1
   20    19    21    1
   21    19    22    1
   22    22    23    1
   23    22    24    1
   24    22    25    1
@<TRIPOS>SUBSTRUCTURE
       1 MOL1            1 RESIDUE      1      MOL     
@<SCITEGIC>MOL_PROPERTY
VConf Rank
SciTegic.value.IntegerValue
150

@<SCITEGIC>MOL_PROPERTY
Conf_Id
SciTegic.value.IntegerValue
142

@<SCITEGIC>MOL_PROPERTY
Delta U+W
SciTegic.value.DoubleValue
0.593

@<SCITEGIC>MOL_PROPERTY
U+W
SciTegic.value.DoubleValue
-51.037

@<SCITEGIC>MOL_PROPERTY
Grad RMS
SciTegic.value.DoubleValue
0.000000

@<SCITEGIC>MOL_PROPERTY
U
SciTegic.value.DoubleValue
8.903

@<SCITEGIC>MOL_PROPERTY
W
SciTegic.value.DoubleValue
-59.940

@<SCITEGIC>MOL_PROPERTY
W(PB)
SciTegic.value.DoubleValue
-62.418

@<SCITEGIC>MOL_PROPERTY
W(SA)
SciTegic.value.DoubleValue
2.478

@<SCITEGIC>MOL_PROPERTY
Valence
SciTegic.value.DoubleValue
8.305

@<SCITEGIC>MOL_PROPERTY
Coulomb
SciTegic.value.DoubleValue
-0.223

@<SCITEGIC>MOL_PROPERTY
VdW
SciTegic.value.DoubleValue
0.821

@<SCITEGIC>MOL_PROPERTY
VdW6
SciTegic.value.DoubleValue
-9.236

@<SCITEGIC>MOL_PROPERTY
VdW12
SciTegic.value.DoubleValue
10.057

@<SCITEGIC>MOL_PROPERTY
Bond
SciTegic.value.DoubleValue
0.173

@<SCITEGIC>MOL_PROPERTY
Angle
SciTegic.value.DoubleValue
2.663

@<SCITEGIC>MOL_PROPERTY
Pdih
SciTegic.value.DoubleValue
5.469

@<SCITEGIC>MOL_PROPERTY
Idih
SciTegic.value.DoubleValue
0.001

@<SCITEGIC>MOL_PROPERTY
Tether
SciTegic.value.DoubleValue
0.000

@<TRIPOS>MOLECULE
guest-8_confgen4.mol2 : confsearch ligand conformer 151
          25          24           1
SMALL
USER_CHARGES
 
@<TRIPOS>ATOM
       1    C1      22.702897   20.490947   21.263373 C.2        1 MOL1         0.6168
       2    O1      23.679616   20.116016   20.644500 O.co2      1 MOL1        -0.6703
       3    O2      21.867750   21.246926   20.807214 O.co2      1 MOL1        -0.6703
       4    C2      22.533315   20.006250   22.700471 C.3        1 MOL1        -0.1963
       5    H1      21.785562   20.634886   23.197443 H          1 MOL1         0.0750
       6    H2      23.482560   20.184051   23.218966 H          1 MOL1         0.0750
       7    C3      22.153761   18.505201   22.822622 C.3        1 MOL1        -0.1860
       8    H3      22.956181   17.901913   22.376145 H          1 MOL1         0.0752
       9    H4      22.122411   18.225279   23.883522 H          1 MOL1         0.0752
      10    C4      20.812470   18.126166   22.142977 C.3        1 MOL1        -0.1858
      11    H5      20.639713   17.050021   22.279594 H          1 MOL1         0.0752
      12    H6      20.904488   18.281332   21.059214 H          1 MOL1         0.0752
      13    C5      19.570963   18.901923   22.650116 C.3        1 MOL1        -0.1858
      14    H7      19.678219   19.970263   22.419249 H          1 MOL1         0.0752
      15    H8      18.694266   18.556879   22.085423 H          1 MOL1         0.0752
      16    C6      19.300542   18.716094   24.161078 C.3        1 MOL1        -0.1858
      17    H9      20.137740   19.123195   24.742862 H          1 MOL1         0.0752
      18    H10     19.238012   17.644358   24.393774 H          1 MOL1         0.0752
      19    C7      17.996188   19.415946   24.597316 C.3        1 MOL1        -0.1834
      20    H11     18.055634   20.487869   24.362959 H          1 MOL1         0.0752
      21    H12     17.149113   19.010747   24.026659 H          1 MOL1         0.0752
      22    C8      17.731080   19.234862   26.105500 C.3        1 MOL1        -0.2849
      23    H13     18.548663   19.660649   26.701847 H          1 MOL1         0.0764
      24    H14     16.800448   19.738280   26.397954 H          1 MOL1         0.0764
      25    H15     17.636749   18.171709   26.362716 H          1 MOL1         0.0764
@<TRIPOS>BOND
    1     1     2    1
    2     1     3    2
    3     1     4    1
    4     4     5    1
    5     4     6    1
    6     4     7    1
    7     7     8    1
    8     7     9    1
    9     7    10    1
   10    10    11    1
   11    10    12    1
   12    10    13    1
   13    13    14    1
   14    13    15    1
   15    13    16    1
   16    16    17    1
   17    16    18    1
   18    16    19    1
   19    19    20    1
   20    19    21    1
   21    19    22    1
   22    22    23    1
   23    22    24    1
   24    22    25    1
@<TRIPOS>SUBSTRUCTURE
       1 MOL1            1 RESIDUE      1      MOL     
@<SCITEGIC>MOL_PROPERTY
VConf Rank
SciTegic.value.IntegerValue
151

@<SCITEGIC>MOL_PROPERTY
Conf_Id
SciTegic.value.IntegerValue
135

@<SCITEGIC>MOL_PROPERTY
Delta U+W
SciTegic.value.DoubleValue
1.314

@<SCITEGIC>MOL_PROPERTY
U+W
SciTegic.value.DoubleValue
-50.316

@<SCITEGIC>MOL_PROPERTY
Grad RMS
SciTegic.value.DoubleValue
0.000000

@<SCITEGIC>MOL_PROPERTY
U
SciTegic.value.DoubleValue
9.773

@<SCITEGIC>MOL_PROPERTY
W
SciTegic.value.DoubleValue
-60.088

@<SCITEGIC>MOL_PROPERTY
W(PB)
SciTegic.value.DoubleValue
-62.535

@<SCITEGIC>MOL_PROPERTY
W(SA)
SciTegic.value.DoubleValue
2.447

@<SCITEGIC>MOL_PROPERTY
Valence
SciTegic.value.DoubleValue
8.741

@<SCITEGIC>MOL_PROPERTY
Coulomb
SciTegic.value.DoubleValue
0.479

@<SCITEGIC>MOL_PROPERTY
VdW
SciTegic.value.DoubleValue
0.552

@<SCITEGIC>MOL_PROPERTY
VdW6
SciTegic.value.DoubleValue
-10.627

@<SCITEGIC>MOL_PROPERTY
VdW12
SciTegic.value.DoubleValue
11.179

@<SCITEGIC>MOL_PROPERTY
Bond
SciTegic.value.DoubleValue
0.227

@<SCITEGIC>MOL_PROPERTY
Angle
SciTegic.value.DoubleValue
3.155

@<SCITEGIC>MOL_PROPERTY
Pdih
SciTegic.value.DoubleValue
5.358

@<SCITEGIC>MOL_PROPERTY
Idih
SciTegic.value.DoubleValue
0.001

@<SCITEGIC>MOL_PROPERTY
Tether
SciTegic.value.DoubleValue
0.000

@<TRIPOS>MOLECULE
guest-8_confgen4.mol2 : confsearch ligand conformer 152
          25          24           1
SMALL
USER_CHARGES
 
@<TRIPOS>ATOM
       1    C1      24.039515   20.584956   22.754259 C.2        1 MOL1         0.6168
       2    O1      24.107409   21.674830   22.221054 O.co2      1 MOL1        -0.6703
       3    O2      24.939339   20.099996   23.411451 O.co2      1 MOL1        -0.6703
       4    C2      22.745546   19.791897   22.609753 C.3        1 MOL1        -0.1963
       5    H1      22.998092   18.724914   22.620436 H          1 MOL1         0.0750
       6    H2      22.326378   20.017325   21.623015 H          1 MOL1         0.0750
       7    C3      21.719770   20.110157   23.728825 C.3        1 MOL1        -0.1860
       8    H3      22.208026   19.965389   24.702527 H          1 MOL1         0.0752
       9    H4      21.437142   21.170775   23.678908 H          1 MOL1         0.0752
      10    C4      20.450254   19.226611   23.677759 C.3        1 MOL1        -0.1858
      11    H5      19.869812   19.418833   24.588872 H          1 MOL1         0.0752
      12    H6      20.736463   18.166396   23.702377 H          1 MOL1         0.0752
      13    C5      19.556884   19.501350   22.444523 C.3        1 MOL1        -0.1858
      14    H7      19.227010   20.548988   22.459803 H          1 MOL1         0.0752
      15    H8      20.147451   19.377404   21.528366 H          1 MOL1         0.0752
      16    C6      18.319775   18.574219   22.337490 C.3        1 MOL1        -0.1858
      17    H9      18.641257   17.529541   22.227018 H          1 MOL1         0.0752
      18    H10     17.798931   18.825655   21.403479 H          1 MOL1         0.0752
      19    C7      17.307506   18.703907   23.503120 C.3        1 MOL1        -0.1834
      20    H11     17.367361   19.705566   23.950703 H          1 MOL1         0.0752
      21    H12     16.290490   18.611434   23.097623 H          1 MOL1         0.0752
      22    C8      17.489061   17.619686   24.588832 C.3        1 MOL1        -0.2849
      23    H13     18.485105   17.660684   25.044171 H          1 MOL1         0.0764
      24    H14     16.748741   17.749410   25.388773 H          1 MOL1         0.0764
      25    H15     17.352397   16.616454   24.164650 H          1 MOL1         0.0764
@<TRIPOS>BOND
    1     1     2    1
    2     1     3    2
    3     1     4    1
    4     4     5    1
    5     4     6    1
    6     4     7    1
    7     7     8    1
    8     7     9    1
    9     7    10    1
   10    10    11    1
   11    10    12    1
   12    10    13    1
   13    13    14    1
   14    13    15    1
   15    13    16    1
   16    16    17    1
   17    16    18    1
   18    16    19    1
   19    19    20    1
   20    19    21    1
   21    19    22    1
   22    22    23    1
   23    22    24    1
   24    22    25    1
@<TRIPOS>SUBSTRUCTURE
       1 MOL1            1 RESIDUE      1      MOL     
@<SCITEGIC>MOL_PROPERTY
VConf Rank
SciTegic.value.IntegerValue
152

@<SCITEGIC>MOL_PROPERTY
Conf_Id
SciTegic.value.IntegerValue
19

@<SCITEGIC>MOL_PROPERTY
Delta U+W
SciTegic.value.DoubleValue
3.222

@<SCITEGIC>MOL_PROPERTY
U+W
SciTegic.value.DoubleValue
-48.407

@<SCITEGIC>MOL_PROPERTY
Grad RMS
SciTegic.value.DoubleValue
0.000000

@<SCITEGIC>MOL_PROPERTY
U
SciTegic.value.DoubleValue
10.617

@<SCITEGIC>MOL_PROPERTY
W
SciTegic.value.DoubleValue
-59.025

@<SCITEGIC>MOL_PROPERTY
W(PB)
SciTegic.value.DoubleValue
-61.462

@<SCITEGIC>MOL_PROPERTY
W(SA)
SciTegic.value.DoubleValue
2.437

@<SCITEGIC>MOL_PROPERTY
Valence
SciTegic.value.DoubleValue
11.188

@<SCITEGIC>MOL_PROPERTY
Coulomb
SciTegic.value.DoubleValue
-1.778

@<SCITEGIC>MOL_PROPERTY
VdW
SciTegic.value.DoubleValue
1.208

@<SCITEGIC>MOL_PROPERTY
VdW6
SciTegic.value.DoubleValue
-9.786

@<SCITEGIC>MOL_PROPERTY
VdW12
SciTegic.value.DoubleValue
10.993

@<SCITEGIC>MOL_PROPERTY
Bond
SciTegic.value.DoubleValue
0.241

@<SCITEGIC>MOL_PROPERTY
Angle
SciTegic.value.DoubleValue
3.294

@<SCITEGIC>MOL_PROPERTY
Pdih
SciTegic.value.DoubleValue
7.653

@<SCITEGIC>MOL_PROPERTY
Idih
SciTegic.value.DoubleValue
0.001

@<SCITEGIC>MOL_PROPERTY
Tether
SciTegic.value.DoubleValue
0.000

@<TRIPOS>MOLECULE
guest-8_confgen4.mol2 : confsearch ligand conformer 153
          25          24           1
SMALL
USER_CHARGES
 
@<TRIPOS>ATOM
       1    C1      22.038300   16.039233   21.257568 C.2        1 MOL1         0.6168
       2    O1      21.702910   14.937935   21.646668 O.co2      1 MOL1        -0.6703
       3    O2      23.066771   16.252759   20.646485 O.co2      1 MOL1        -0.6703
       4    C2      21.130068   17.222169   21.573731 C.3        1 MOL1        -0.1963
       5    H1      20.096557   16.858919   21.564989 H          1 MOL1         0.0750
       6    H2      21.226113   17.951085   20.760218 H          1 MOL1         0.0750
       7    C3      21.466953   17.889627   22.932715 C.3        1 MOL1        -0.1860
       8    H3      21.321179   17.164757   23.745485 H          1 MOL1         0.0752
       9    H4      22.534161   18.151302   22.939003 H          1 MOL1         0.0752
      10    C4      20.644052   19.168917   23.217649 C.3        1 MOL1        -0.1858
      11    H5      20.771313   19.881941   22.391828 H          1 MOL1         0.0752
      12    H6      21.061727   19.644881   24.113748 H          1 MOL1         0.0752
      13    C5      19.138632   18.895198   23.448422 C.3        1 MOL1        -0.1858
      14    H7      18.726424   18.358518   22.584978 H          1 MOL1         0.0752
      15    H8      19.017970   18.228223   24.312818 H          1 MOL1         0.0752
      16    C6      18.286493   20.171943   23.661155 C.3        1 MOL1        -0.1858
      17    H9      17.238643   19.856723   23.758722 H          1 MOL1         0.0752
      18    H10     18.324872   20.803549   22.763098 H          1 MOL1         0.0752
      19    C7      18.658888   21.000326   24.916267 C.3        1 MOL1        -0.1834
      20    H11     17.736362   21.396812   25.362413 H          1 MOL1         0.0752
      21    H12     19.113029   20.353357   25.679432 H          1 MOL1         0.0752
      22    C8      19.588765   22.193712   24.602540 C.3        1 MOL1        -0.2849
      23    H13     19.109225   22.887349   23.899695 H          1 MOL1         0.0764
      24    H14     19.820313   22.751532   25.519071 H          1 MOL1         0.0764
      25    H15     20.536928   21.867204   24.160390 H          1 MOL1         0.0764
@<TRIPOS>BOND
    1     1     2    1
    2     1     3    2
    3     1     4    1
    4     4     5    1
    5     4     6    1
    6     4     7    1
    7     7     8    1
    8     7     9    1
    9     7    10    1
   10    10    11    1
   11    10    12    1
   12    10    13    1
   13    13    14    1
   14    13    15    1
   15    13    16    1
   16    16    17    1
   17    16    18    1
   18    16    19    1
   19    19    20    1
   20    19    21    1
   21    19    22    1
   22    22    23    1
   23    22    24    1
   24    22    25    1
@<TRIPOS>SUBSTRUCTURE
       1 MOL1            1 RESIDUE      1      MOL     
@<SCITEGIC>MOL_PROPERTY
VConf Rank
SciTegic.value.IntegerValue
153

@<SCITEGIC>MOL_PROPERTY
Conf_Id
SciTegic.value.IntegerValue
20

@<SCITEGIC>MOL_PROPERTY
Delta U+W
SciTegic.value.DoubleValue
3.224

@<SCITEGIC>MOL_PROPERTY
U+W
SciTegic.value.DoubleValue
-48.406

@<SCITEGIC>MOL_PROPERTY
Grad RMS
SciTegic.value.DoubleValue
0.000000

@<SCITEGIC>MOL_PROPERTY
U
SciTegic.value.DoubleValue
10.617

@<SCITEGIC>MOL_PROPERTY
W
SciTegic.value.DoubleValue
-59.023

@<SCITEGIC>MOL_PROPERTY
W(PB)
SciTegic.value.DoubleValue
-61.467

@<SCITEGIC>MOL_PROPERTY
W(SA)
SciTegic.value.DoubleValue
2.444

@<SCITEGIC>MOL_PROPERTY
Valence
SciTegic.value.DoubleValue
11.188

@<SCITEGIC>MOL_PROPERTY
Coulomb
SciTegic.value.DoubleValue
-1.778

@<SCITEGIC>MOL_PROPERTY
VdW
SciTegic.value.DoubleValue
1.208

@<SCITEGIC>MOL_PROPERTY
VdW6
SciTegic.value.DoubleValue
-9.786

@<SCITEGIC>MOL_PROPERTY
VdW12
SciTegic.value.DoubleValue
10.993

@<SCITEGIC>MOL_PROPERTY
Bond
SciTegic.value.DoubleValue
0.241

@<SCITEGIC>MOL_PROPERTY
Angle
SciTegic.value.DoubleValue
3.294

@<SCITEGIC>MOL_PROPERTY
Pdih
SciTegic.value.DoubleValue
7.653

@<SCITEGIC>MOL_PROPERTY
Idih
SciTegic.value.DoubleValue
0.001

@<SCITEGIC>MOL_PROPERTY
Tether
SciTegic.value.DoubleValue
0.000

@<TRIPOS>MOLECULE
guest-8_confgen4.mol2 : confsearch ligand conformer 154
          25          24           1
SMALL
USER_CHARGES
 
@<TRIPOS>ATOM
       1    C1      19.157718   17.050321   21.375677 C.2        1 MOL1         0.6168
       2    O1      20.215397   16.681053   20.903872 O.co2      1 MOL1        -0.6703
       3    O2      18.405001   17.820989   20.812912 O.co2      1 MOL1        -0.6703
       4    C2      18.718361   16.465266   22.716597 C.3        1 MOL1        -0.1963
       5    H1      18.593548   15.388104   22.556564 H          1 MOL1         0.0750
       6    H2      17.727917   16.861550   22.971096 H          1 MOL1         0.0750
       7    C3      19.707590   16.690401   23.894667 C.3        1 MOL1        -0.1860
       8    H3      19.486227   15.944999   24.670428 H          1 MOL1         0.0752
       9    H4      20.735716   16.486399   23.564615 H          1 MOL1         0.0752
      10    C4      19.628638   18.091332   24.550598 C.3        1 MOL1        -0.1858
      11    H5      20.253856   18.081593   25.453919 H          1 MOL1         0.0752
      12    H6      18.601269   18.283968   24.888588 H          1 MOL1         0.0752
      13    C5      20.098416   19.243715   23.634110 C.3        1 MOL1        -0.1858
      14    H7      21.083787   19.001708   23.212776 H          1 MOL1         0.0752
      15    H8      19.406111   19.354508   22.790047 H          1 MOL1         0.0752
      16    C6      20.176521   20.584313   24.396519 C.3        1 MOL1        -0.1858
      17    H9      20.873966   20.487948   25.239876 H          1 MOL1         0.0752
      18    H10     19.191574   20.822203   24.821161 H          1 MOL1         0.0752
      19    C7      20.634538   21.737855   23.479494 C.3        1 MOL1        -0.1834
      20    H11     21.619995   21.503292   23.053686 H          1 MOL1         0.0752
      21    H12     19.938150   21.838402   22.635373 H          1 MOL1         0.0752
      22    C8      20.711061   23.075182   24.243278 C.3        1 MOL1        -0.2849
      23    H13     21.425078   23.012247   25.074897 H          1 MOL1         0.0764
      24    H14     21.037990   23.883477   23.576315 H          1 MOL1         0.0764
      25    H15     19.730387   23.349899   24.653381 H          1 MOL1         0.0764
@<TRIPOS>BOND
    1     1     2    1
    2     1     3    2
    3     1     4    1
    4     4     5    1
    5     4     6    1
    6     4     7    1
    7     7     8    1
    8     7     9    1
    9     7    10    1
   10    10    11    1
   11    10    12    1
   12    10    13    1
   13    13    14    1
   14    13    15    1
   15    13    16    1
   16    16    17    1
   17    16    18    1
   18    16    19    1
   19    19    20    1
   20    19    21    1
   21    19    22    1
   22    22    23    1
   23    22    24    1
   24    22    25    1
@<TRIPOS>SUBSTRUCTURE
       1 MOL1            1 RESIDUE      1      MOL     
@<SCITEGIC>MOL_PROPERTY
VConf Rank
SciTegic.value.IntegerValue
154

@<SCITEGIC>MOL_PROPERTY
Conf_Id
SciTegic.value.IntegerValue
24

@<SCITEGIC>MOL_PROPERTY
Delta U+W
SciTegic.value.DoubleValue
1.784

@<SCITEGIC>MOL_PROPERTY
U+W
SciTegic.value.DoubleValue
-49.846

@<SCITEGIC>MOL_PROPERTY
Grad RMS
SciTegic.value.DoubleValue
0.000000

@<SCITEGIC>MOL_PROPERTY
U
SciTegic.value.DoubleValue
10.904

@<SCITEGIC>MOL_PROPERTY
W
SciTegic.value.DoubleValue
-60.749

@<SCITEGIC>MOL_PROPERTY
W(PB)
SciTegic.value.DoubleValue
-63.220

@<SCITEGIC>MOL_PROPERTY
W(SA)
SciTegic.value.DoubleValue
2.471

@<SCITEGIC>MOL_PROPERTY
Valence
SciTegic.value.DoubleValue
9.445

@<SCITEGIC>MOL_PROPERTY
Coulomb
SciTegic.value.DoubleValue
0.780

@<SCITEGIC>MOL_PROPERTY
VdW
SciTegic.value.DoubleValue
0.679

@<SCITEGIC>MOL_PROPERTY
VdW6
SciTegic.value.DoubleValue
-10.008

@<SCITEGIC>MOL_PROPERTY
VdW12
SciTegic.value.DoubleValue
10.687

@<SCITEGIC>MOL_PROPERTY
Bond
SciTegic.value.DoubleValue
0.201

@<SCITEGIC>MOL_PROPERTY
Angle
SciTegic.value.DoubleValue
3.198

@<SCITEGIC>MOL_PROPERTY
Pdih
SciTegic.value.DoubleValue
6.039

@<SCITEGIC>MOL_PROPERTY
Idih
SciTegic.value.DoubleValue
0.006

@<SCITEGIC>MOL_PROPERTY
Tether
SciTegic.value.DoubleValue
0.000

@<TRIPOS>MOLECULE
guest-8_confgen4.mol2 : confsearch ligand conformer 155
          25          24           1
SMALL
USER_CHARGES
 
@<TRIPOS>ATOM
       1    C1      17.255543   18.658054   22.245183 C.2        1 MOL1         0.6168
       2    O1      17.429500   18.685628   21.042427 O.co2      1 MOL1        -0.6703
       3    O2      17.063088   17.634475   22.871653 O.co2      1 MOL1        -0.6703
       4    C2      17.209597   19.984332   23.001665 C.3        1 MOL1        -0.1963
       5    H1      16.995488   19.784679   24.058586 H          1 MOL1         0.0750
       6    H2      16.348490   20.535011   22.605794 H          1 MOL1         0.0750
       7    C3      18.481006   20.868976   22.867401 C.3        1 MOL1        -0.1860
       8    H3      18.811203   20.893596   21.819566 H          1 MOL1         0.0752
       9    H4      18.204131   21.901225   23.120838 H          1 MOL1         0.0752
      10    C4      19.658598   20.457636   23.785640 C.3        1 MOL1        -0.1858
      11    H5      19.324977   20.446718   24.832260 H          1 MOL1         0.0752
      12    H6      20.433055   21.233819   23.716805 H          1 MOL1         0.0752
      13    C5      20.290044   19.093162   23.427711 C.3        1 MOL1        -0.1858
      14    H7      19.569253   18.287790   23.617037 H          1 MOL1         0.0752
      15    H8      20.528166   19.066753   22.355495 H          1 MOL1         0.0752
      16    C6      21.569542   18.822851   24.248921 C.3        1 MOL1        -0.1858
      17    H9      21.330449   18.854493   25.320772 H          1 MOL1         0.0752
      18    H10     22.302658   19.619160   24.060780 H          1 MOL1         0.0752
      19    C7      22.194455   17.455564   23.900522 C.3        1 MOL1        -0.1834
      20    H11     21.464430   16.656144   24.089190 H          1 MOL1         0.0752
      21    H12     22.435437   17.420942   22.828988 H          1 MOL1         0.0752
      22    C8      23.471543   17.188220   24.722253 C.3        1 MOL1        -0.2849
      23    H13     23.252970   17.185979   25.798169 H          1 MOL1         0.0764
      24    H14     23.901972   16.212526   24.461836 H          1 MOL1         0.0764
      25    H15     24.231415   17.956568   24.528325 H          1 MOL1         0.0764
@<TRIPOS>BOND
    1     1     2    1
    2     1     3    2
    3     1     4    1
    4     4     5    1
    5     4     6    1
    6     4     7    1
    7     7     8    1
    8     7     9    1
    9     7    10    1
   10    10    11    1
   11    10    12    1
   12    10    13    1
   13    13    14    1
   14    13    15    1
   15    13    16    1
   16    16    17    1
   17    16    18    1
   18    16    19    1
   19    19    20    1
   20    19    21    1
   21    19    22    1
   22    22    23    1
   23    22    24    1
   24    22    25    1
@<TRIPOS>SUBSTRUCTURE
       1 MOL1            1 RESIDUE      1      MOL     
@<SCITEGIC>MOL_PROPERTY
VConf Rank
SciTegic.value.IntegerValue
155

@<SCITEGIC>MOL_PROPERTY
Conf_Id
SciTegic.value.IntegerValue
9

@<SCITEGIC>MOL_PROPERTY
Delta U+W
SciTegic.value.DoubleValue
1.764

@<SCITEGIC>MOL_PROPERTY
U+W
SciTegic.value.DoubleValue
-49.865

@<SCITEGIC>MOL_PROPERTY
Grad RMS
SciTegic.value.DoubleValue
0.000000

@<SCITEGIC>MOL_PROPERTY
U
SciTegic.value.DoubleValue
10.902

@<SCITEGIC>MOL_PROPERTY
W
SciTegic.value.DoubleValue
-60.768

@<SCITEGIC>MOL_PROPERTY
W(PB)
SciTegic.value.DoubleValue
-63.223

@<SCITEGIC>MOL_PROPERTY
W(SA)
SciTegic.value.DoubleValue
2.456

@<SCITEGIC>MOL_PROPERTY
Valence
SciTegic.value.DoubleValue
9.445

@<SCITEGIC>MOL_PROPERTY
Coulomb
SciTegic.value.DoubleValue
0.778

@<SCITEGIC>MOL_PROPERTY
VdW
SciTegic.value.DoubleValue
0.679

@<SCITEGIC>MOL_PROPERTY
VdW6
SciTegic.value.DoubleValue
-10.007

@<SCITEGIC>MOL_PROPERTY
VdW12
SciTegic.value.DoubleValue
10.687

@<SCITEGIC>MOL_PROPERTY
Bond
SciTegic.value.DoubleValue
0.201

@<SCITEGIC>MOL_PROPERTY
Angle
SciTegic.value.DoubleValue
3.198

@<SCITEGIC>MOL_PROPERTY
Pdih
SciTegic.value.DoubleValue
6.040

@<SCITEGIC>MOL_PROPERTY
Idih
SciTegic.value.DoubleValue
0.006

@<SCITEGIC>MOL_PROPERTY
Tether
SciTegic.value.DoubleValue
0.000

@<TRIPOS>MOLECULE
guest-8_confgen4.mol2 : confsearch ligand conformer 156
          25          24           1
SMALL
USER_CHARGES
 
@<TRIPOS>ATOM
       1    C1      20.645901   22.789581   23.636012 C.2        1 MOL1         0.6168
       2    O1      19.921890   22.893648   24.606363 O.co2      1 MOL1        -0.6703
       3    O2      21.446091   23.639749   23.298733 O.co2      1 MOL1        -0.6703
       4    C2      20.560429   21.513008   22.807294 C.3        1 MOL1        -0.1963
       5    H1      20.770234   21.773397   21.763055 H          1 MOL1         0.0750
       6    H2      19.526094   21.157852   22.845730 H          1 MOL1         0.0750
       7    C3      21.547092   20.417319   23.290628 C.3        1 MOL1        -0.1860
       8    H3      22.564792   20.826236   23.223474 H          1 MOL1         0.0752
       9    H4      21.376329   20.196464   24.353397 H          1 MOL1         0.0752
      10    C4      21.481122   19.113900   22.454543 C.3        1 MOL1        -0.1858
      11    H5      22.496086   18.698517   22.389570 H          1 MOL1         0.0752
      12    H6      21.184133   19.338281   21.420961 H          1 MOL1         0.0752
      13    C5      20.565333   18.012535   23.045378 C.3        1 MOL1        -0.1858
      14    H7      20.661160   17.113299   22.421887 H          1 MOL1         0.0752
      15    H8      20.933290   17.737950   24.042692 H          1 MOL1         0.0752
      16    C6      19.071852   18.406672   23.131066 C.3        1 MOL1        -0.1858
      17    H9      18.754507   18.825061   22.166370 H          1 MOL1         0.0752
      18    H10     18.939145   19.197586   23.880794 H          1 MOL1         0.0752
      19    C7      18.145128   17.219565   23.482483 C.3        1 MOL1        -0.1834
      20    H11     17.101375   17.558136   23.426679 H          1 MOL1         0.0752
      21    H12     18.254844   16.427221   22.729232 H          1 MOL1         0.0752
      22    C8      18.406059   16.638468   24.889099 C.3        1 MOL1        -0.2849
      23    H13     18.326597   17.418774   25.657183 H          1 MOL1         0.0764
      24    H14     17.672305   15.856624   25.123994 H          1 MOL1         0.0764
      25    H15     19.404567   16.188766   24.957089 H          1 MOL1         0.0764
@<TRIPOS>BOND
    1     1     2    1
    2     1     3    2
    3     1     4    1
    4     4     5    1
    5     4     6    1
    6     4     7    1
    7     7     8    1
    8     7     9    1
    9     7    10    1
   10    10    11    1
   11    10    12    1
   12    10    13    1
   13    13    14    1
   14    13    15    1
   15    13    16    1
   16    16    17    1
   17    16    18    1
   18    16    19    1
   19    19    20    1
   20    19    21    1
   21    19    22    1
   22    22    23    1
   23    22    24    1
   24    22    25    1
@<TRIPOS>SUBSTRUCTURE
       1 MOL1            1 RESIDUE      1      MOL     
@<SCITEGIC>MOL_PROPERTY
VConf Rank
SciTegic.value.IntegerValue
156

@<SCITEGIC>MOL_PROPERTY
Conf_Id
SciTegic.value.IntegerValue
89

@<SCITEGIC>MOL_PROPERTY
Delta U+W
SciTegic.value.DoubleValue
2.903

@<SCITEGIC>MOL_PROPERTY
U+W
SciTegic.value.DoubleValue
-48.726

@<SCITEGIC>MOL_PROPERTY
Grad RMS
SciTegic.value.DoubleValue
0.000000

@<SCITEGIC>MOL_PROPERTY
U
SciTegic.value.DoubleValue
10.996

@<SCITEGIC>MOL_PROPERTY
W
SciTegic.value.DoubleValue
-59.723

@<SCITEGIC>MOL_PROPERTY
W(PB)
SciTegic.value.DoubleValue
-62.151

@<SCITEGIC>MOL_PROPERTY
W(SA)
SciTegic.value.DoubleValue
2.428

@<SCITEGIC>MOL_PROPERTY
Valence
SciTegic.value.DoubleValue
10.985

@<SCITEGIC>MOL_PROPERTY
Coulomb
SciTegic.value.DoubleValue
-0.995

@<SCITEGIC>MOL_PROPERTY
VdW
SciTegic.value.DoubleValue
1.006

@<SCITEGIC>MOL_PROPERTY
VdW6
SciTegic.value.DoubleValue
-10.062

@<SCITEGIC>MOL_PROPERTY
VdW12
SciTegic.value.DoubleValue
11.069

@<SCITEGIC>MOL_PROPERTY
Bond
SciTegic.value.DoubleValue
0.238

@<SCITEGIC>MOL_PROPERTY
Angle
SciTegic.value.DoubleValue
3.202

@<SCITEGIC>MOL_PROPERTY
Pdih
SciTegic.value.DoubleValue
7.544

@<SCITEGIC>MOL_PROPERTY
Idih
SciTegic.value.DoubleValue
0.001

@<SCITEGIC>MOL_PROPERTY
Tether
SciTegic.value.DoubleValue
0.000

@<TRIPOS>MOLECULE
guest-8_confgen4.mol2 : confsearch ligand conformer 157
          25          24           1
SMALL
USER_CHARGES
 
@<TRIPOS>ATOM
       1    C1      21.303052   16.238154   25.141556 C.2        1 MOL1         0.6168
       2    O1      20.987618   15.386741   24.333560 O.co2      1 MOL1        -0.6703
       3    O2      22.456036   16.501976   25.421974 O.co2      1 MOL1        -0.6703
       4    C2      20.189340   16.968462   25.889582 C.3        1 MOL1        -0.1963
       5    H1      20.294033   16.689990   26.944556 H          1 MOL1         0.0750
       6    H2      19.220087   16.577752   25.556921 H          1 MOL1         0.0750
       7    C3      20.215430   18.518581   25.771131 C.3        1 MOL1        -0.1860
       8    H3      19.650210   18.931345   26.617650 H          1 MOL1         0.0752
       9    H4      21.244256   18.886722   25.887598 H          1 MOL1         0.0752
      10    C4      19.592905   19.084177   24.470171 C.3        1 MOL1        -0.1858
      11    H5      19.516968   20.172624   24.584347 H          1 MOL1         0.0752
      12    H6      18.565065   18.712560   24.360622 H          1 MOL1         0.0752
      13    C5      20.402425   18.759176   23.191330 C.3        1 MOL1        -0.1858
      14    H7      21.446890   19.074323   23.319962 H          1 MOL1         0.0752
      15    H8      20.420643   17.672845   23.041697 H          1 MOL1         0.0752
      16    C6      19.818477   19.401708   21.910106 C.3        1 MOL1        -0.1858
      17    H9      18.764526   19.112019   21.800137 H          1 MOL1         0.0752
      18    H10     20.346856   18.983609   21.042402 H          1 MOL1         0.0752
      19    C7      19.944687   20.941924   21.874837 C.3        1 MOL1        -0.1834
      20    H11     19.356011   21.390498   22.685376 H          1 MOL1         0.0752
      21    H12     20.991509   21.231646   22.040403 H          1 MOL1         0.0752
      22    C8      19.461315   21.517745   20.528405 C.3        1 MOL1        -0.2849
      23    H13     18.407889   21.265544   20.349366 H          1 MOL1         0.0764
      24    H14     19.554190   22.611523   20.519846 H          1 MOL1         0.0764
      25    H15     20.055478   21.120948   19.694819 H          1 MOL1         0.0764
@<TRIPOS>BOND
    1     1     2    1
    2     1     3    2
    3     1     4    1
    4     4     5    1
    5     4     6    1
    6     4     7    1
    7     7     8    1
    8     7     9    1
    9     7    10    1
   10    10    11    1
   11    10    12    1
   12    10    13    1
   13    13    14    1
   14    13    15    1
   15    13    16    1
   16    16    17    1
   17    16    18    1
   18    16    19    1
   19    19    20    1
   20    19    21    1
   21    19    22    1
   22    22    23    1
   23    22    24    1
   24    22    25    1
@<TRIPOS>SUBSTRUCTURE
       1 MOL1            1 RESIDUE      1      MOL     
@<SCITEGIC>MOL_PROPERTY
VConf Rank
SciTegic.value.IntegerValue
157

@<SCITEGIC>MOL_PROPERTY
Conf_Id
SciTegic.value.IntegerValue
114

@<SCITEGIC>MOL_PROPERTY
Delta U+W
SciTegic.value.DoubleValue
2.758

@<SCITEGIC>MOL_PROPERTY
U+W
SciTegic.value.DoubleValue
-48.871

@<SCITEGIC>MOL_PROPERTY
Grad RMS
SciTegic.value.DoubleValue
0.000000

@<SCITEGIC>MOL_PROPERTY
U
SciTegic.value.DoubleValue
11.422

@<SCITEGIC>MOL_PROPERTY
W
SciTegic.value.DoubleValue
-60.293

@<SCITEGIC>MOL_PROPERTY
W(PB)
SciTegic.value.DoubleValue
-62.719

@<SCITEGIC>MOL_PROPERTY
W(SA)
SciTegic.value.DoubleValue
2.425

@<SCITEGIC>MOL_PROPERTY
Valence
SciTegic.value.DoubleValue
10.135

@<SCITEGIC>MOL_PROPERTY
Coulomb
SciTegic.value.DoubleValue
0.369

@<SCITEGIC>MOL_PROPERTY
VdW
SciTegic.value.DoubleValue
0.918

@<SCITEGIC>MOL_PROPERTY
VdW6
SciTegic.value.DoubleValue
-10.482

@<SCITEGIC>MOL_PROPERTY
VdW12
SciTegic.value.DoubleValue
11.400

@<SCITEGIC>MOL_PROPERTY
Bond
SciTegic.value.DoubleValue
0.245

@<SCITEGIC>MOL_PROPERTY
Angle
SciTegic.value.DoubleValue
3.539

@<SCITEGIC>MOL_PROPERTY
Pdih
SciTegic.value.DoubleValue
6.346

@<SCITEGIC>MOL_PROPERTY
Idih
SciTegic.value.DoubleValue
0.006

@<SCITEGIC>MOL_PROPERTY
Tether
SciTegic.value.DoubleValue
0.000

@<TRIPOS>MOLECULE
guest-8_confgen4.mol2 : confsearch ligand conformer 158
          25          24           1
SMALL
USER_CHARGES
 
@<TRIPOS>ATOM
       1    C1      17.472045   16.736984   24.671250 C.2        1 MOL1         0.6168
       2    O1      16.452987   17.086707   24.108865 O.co2      1 MOL1        -0.6703
       3    O2      17.965551   15.633561   24.544732 O.co2      1 MOL1        -0.6703
       4    C2      18.160242   17.729443   25.604181 C.3        1 MOL1        -0.1963
       5    H1      18.422147   17.190016   26.522005 H          1 MOL1         0.0750
       6    H2      17.436752   18.503749   25.886652 H          1 MOL1         0.0750
       7    C3      19.433989   18.378547   25.003174 C.3        1 MOL1        -0.1860
       8    H3      19.932510   18.972485   25.780969 H          1 MOL1         0.0752
       9    H4      20.133532   17.583883   24.712526 H          1 MOL1         0.0752
      10    C4      19.119115   19.286467   23.790000 C.3        1 MOL1        -0.1858
      11    H5      18.347997   20.013004   24.080459 H          1 MOL1         0.0752
      12    H6      18.687614   18.687074   22.976467 H          1 MOL1         0.0752
      13    C5      20.349130   20.062844   23.261810 C.3        1 MOL1        -0.1858
      14    H7      19.998998   20.779827   22.508465 H          1 MOL1         0.0752
      15    H8      20.787837   20.655648   24.075838 H          1 MOL1         0.0752
      16    C6      21.432693   19.149566   22.637025 C.3        1 MOL1        -0.1858
      17    H9      20.992533   18.554369   21.825433 H          1 MOL1         0.0752
      18    H10     21.787022   18.434890   23.390519 H          1 MOL1         0.0752
      19    C7      22.658196   19.927246   22.102429 C.3        1 MOL1        -0.1834
      20    H11     23.094180   20.532872   22.908917 H          1 MOL1         0.0752
      21    H12     23.430627   19.204401   21.805638 H          1 MOL1         0.0752
      22    C8      22.333351   20.828996   20.891550 C.3        1 MOL1        -0.2849
      23    H13     23.250886   21.280904   20.493037 H          1 MOL1         0.0764
      24    H14     21.864239   20.250284   20.085237 H          1 MOL1         0.0764
      25    H15     21.655637   21.645751   21.169080 H          1 MOL1         0.0764
@<TRIPOS>BOND
    1     1     2    1
    2     1     3    2
    3     1     4    1
    4     4     5    1
    5     4     6    1
    6     4     7    1
    7     7     8    1
    8     7     9    1
    9     7    10    1
   10    10    11    1
   11    10    12    1
   12    10    13    1
   13    13    14    1
   14    13    15    1
   15    13    16    1
   16    16    17    1
   17    16    18    1
   18    16    19    1
   19    19    20    1
   20    19    21    1
   21    19    22    1
   22    22    23    1
   23    22    24    1
   24    22    25    1
@<TRIPOS>SUBSTRUCTURE
       1 MOL1            1 RESIDUE      1      MOL     
@<SCITEGIC>MOL_PROPERTY
VConf Rank
SciTegic.value.IntegerValue
158

@<SCITEGIC>MOL_PROPERTY
Conf_Id
SciTegic.value.IntegerValue
87

@<SCITEGIC>MOL_PROPERTY
Delta U+W
SciTegic.value.DoubleValue
1.453

@<SCITEGIC>MOL_PROPERTY
U+W
SciTegic.value.DoubleValue
-50.176

@<SCITEGIC>MOL_PROPERTY
Grad RMS
SciTegic.value.DoubleValue
0.000000

@<SCITEGIC>MOL_PROPERTY
U
SciTegic.value.DoubleValue
9.763

@<SCITEGIC>MOL_PROPERTY
W
SciTegic.value.DoubleValue
-59.940

@<SCITEGIC>MOL_PROPERTY
W(PB)
SciTegic.value.DoubleValue
-62.392

@<SCITEGIC>MOL_PROPERTY
W(SA)
SciTegic.value.DoubleValue
2.452

@<SCITEGIC>MOL_PROPERTY
Valence
SciTegic.value.DoubleValue
8.883

@<SCITEGIC>MOL_PROPERTY
Coulomb
SciTegic.value.DoubleValue
-0.122

@<SCITEGIC>MOL_PROPERTY
VdW
SciTegic.value.DoubleValue
1.003

@<SCITEGIC>MOL_PROPERTY
VdW6
SciTegic.value.DoubleValue
-9.782

@<SCITEGIC>MOL_PROPERTY
VdW12
SciTegic.value.DoubleValue
10.785

@<SCITEGIC>MOL_PROPERTY
Bond
SciTegic.value.DoubleValue
0.212

@<SCITEGIC>MOL_PROPERTY
Angle
SciTegic.value.DoubleValue
2.940

@<SCITEGIC>MOL_PROPERTY
Pdih
SciTegic.value.DoubleValue
5.730

@<SCITEGIC>MOL_PROPERTY
Idih
SciTegic.value.DoubleValue
0.001

@<SCITEGIC>MOL_PROPERTY
Tether
SciTegic.value.DoubleValue
0.000

@<TRIPOS>MOLECULE
guest-8_confgen4.mol2 : confsearch ligand conformer 159
          25          24           1
SMALL
USER_CHARGES
 
@<TRIPOS>ATOM
       1    C1      21.118665   22.838548   24.119919 C.2        1 MOL1         0.6168
       2    O1      21.485144   23.229480   23.029254 O.co2      1 MOL1        -0.6703
       3    O2      20.595779   23.554531   24.951003 O.co2      1 MOL1        -0.6703
       4    C2      21.308708   21.364048   24.457410 C.3        1 MOL1        -0.1963
       5    H1      21.490071   21.282113   25.535778 H          1 MOL1         0.0750
       6    H2      22.213880   21.011873   23.948282 H          1 MOL1         0.0750
       7    C3      20.094725   20.492857   24.050939 C.3        1 MOL1        -0.1860
       8    H3      19.194731   20.862282   24.561505 H          1 MOL1         0.0752
       9    H4      19.921148   20.606761   22.972661 H          1 MOL1         0.0752
      10    C4      20.316451   19.002460   24.397614 C.3        1 MOL1        -0.1858
      11    H5      20.557074   18.916051   25.465910 H          1 MOL1         0.0752
      12    H6      21.192442   18.621320   23.856526 H          1 MOL1         0.0752
      13    C5      19.084656   18.110662   24.101446 C.3        1 MOL1        -0.1858
      14    H7      19.302109   17.085617   24.429127 H          1 MOL1         0.0752
      15    H8      18.244862   18.449033   24.723316 H          1 MOL1         0.0752
      16    C6      18.624662   18.086660   22.619673 C.3        1 MOL1        -0.1858
      17    H9      18.251004   19.080079   22.339022 H          1 MOL1         0.0752
      18    H10     17.763354   17.410698   22.531846 H          1 MOL1         0.0752
      19    C7      19.706056   17.650896   21.600445 C.3        1 MOL1        -0.1834
      20    H11     19.274798   17.696839   20.591083 H          1 MOL1         0.0752
      21    H12     20.540646   18.364516   21.606806 H          1 MOL1         0.0752
      22    C8      20.238702   16.223109   21.848945 C.3        1 MOL1        -0.2849
      23    H13     19.417734   15.494582   21.862908 H          1 MOL1         0.0764
      24    H14     20.938142   15.930255   21.055379 H          1 MOL1         0.0764
      25    H15     20.773466   16.158104   22.804847 H          1 MOL1         0.0764
@<TRIPOS>BOND
    1     1     2    1
    2     1     3    2
    3     1     4    1
    4     4     5    1
    5     4     6    1
    6     4     7    1
    7     7     8    1
    8     7     9    1
    9     7    10    1
   10    10    11    1
   11    10    12    1
   12    10    13    1
   13    13    14    1
   14    13    15    1
   15    13    16    1
   16    16    17    1
   17    16    18    1
   18    16    19    1
   19    19    20    1
   20    19    21    1
   21    19    22    1
   22    22    23    1
   23    22    24    1
   24    22    25    1
@<TRIPOS>SUBSTRUCTURE
       1 MOL1            1 RESIDUE      1      MOL     
@<SCITEGIC>MOL_PROPERTY
VConf Rank
SciTegic.value.IntegerValue
159

@<SCITEGIC>MOL_PROPERTY
Conf_Id
SciTegic.value.IntegerValue
29

@<SCITEGIC>MOL_PROPERTY
Delta U+W
SciTegic.value.DoubleValue
0.850

@<SCITEGIC>MOL_PROPERTY
U+W
SciTegic.value.DoubleValue
-50.780

@<SCITEGIC>MOL_PROPERTY
Grad RMS
SciTegic.value.DoubleValue
0.000000

@<SCITEGIC>MOL_PROPERTY
U
SciTegic.value.DoubleValue
8.646

@<SCITEGIC>MOL_PROPERTY
W
SciTegic.value.DoubleValue
-59.426

@<SCITEGIC>MOL_PROPERTY
W(PB)
SciTegic.value.DoubleValue
-61.868

@<SCITEGIC>MOL_PROPERTY
W(SA)
SciTegic.value.DoubleValue
2.442

@<SCITEGIC>MOL_PROPERTY
Valence
SciTegic.value.DoubleValue
8.924

@<SCITEGIC>MOL_PROPERTY
Coulomb
SciTegic.value.DoubleValue
-1.171

@<SCITEGIC>MOL_PROPERTY
VdW
SciTegic.value.DoubleValue
0.894

@<SCITEGIC>MOL_PROPERTY
VdW6
SciTegic.value.DoubleValue
-10.223

@<SCITEGIC>MOL_PROPERTY
VdW12
SciTegic.value.DoubleValue
11.117

@<SCITEGIC>MOL_PROPERTY
Bond
SciTegic.value.DoubleValue
0.231

@<SCITEGIC>MOL_PROPERTY
Angle
SciTegic.value.DoubleValue
3.232

@<SCITEGIC>MOL_PROPERTY
Pdih
SciTegic.value.DoubleValue
5.461

@<SCITEGIC>MOL_PROPERTY
Idih
SciTegic.value.DoubleValue
0.001

@<SCITEGIC>MOL_PROPERTY
Tether
SciTegic.value.DoubleValue
0.000

@<TRIPOS>MOLECULE
guest-8_confgen4.mol2 : confsearch ligand conformer 160
          25          24           1
SMALL
USER_CHARGES
 
@<TRIPOS>ATOM
       1    C1      20.762390   20.753827   26.887340 C.2        1 MOL1         0.6168
       2    O1      21.240075   19.808920   27.483705 O.co2      1 MOL1        -0.6703
       3    O2      20.107937   21.626684   27.422648 O.co2      1 MOL1        -0.6703
       4    C2      20.980208   20.839030   25.380865 C.3        1 MOL1        -0.1963
       5    H1      21.956604   20.395290   25.152132 H          1 MOL1         0.0750
       6    H2      21.032253   21.898716   25.103667 H          1 MOL1         0.0750
       7    C3      19.868102   20.127829   24.571317 C.3        1 MOL1        -0.1860
       8    H3      19.822144   19.075088   24.880202 H          1 MOL1         0.0752
       9    H4      18.895847   20.576867   24.816728 H          1 MOL1         0.0752
      10    C4      20.117143   20.222981   23.048307 C.3        1 MOL1        -0.1858
      11    H5      21.069910   19.738986   22.796534 H          1 MOL1         0.0752
      12    H6      20.229447   21.279630   22.769914 H          1 MOL1         0.0752
      13    C5      18.974975   19.613186   22.197460 C.3        1 MOL1        -0.1858
      14    H7      18.050315   20.172902   22.392894 H          1 MOL1         0.0752
      15    H8      19.199876   19.773844   21.134921 H          1 MOL1         0.0752
      16    C6      18.700828   18.105159   22.439368 C.3        1 MOL1        -0.1858
      17    H9      17.890295   17.785435   21.770561 H          1 MOL1         0.0752
      18    H10     18.316684   17.964500   23.458149 H          1 MOL1         0.0752
      19    C7      19.918218   17.171491   22.228748 C.3        1 MOL1        -0.1834
      20    H11     20.710362   17.415218   22.949123 H          1 MOL1         0.0752
      21    H12     19.611560   16.140412   22.451774 H          1 MOL1         0.0752
      22    C8      20.484905   17.222139   20.793360 C.3        1 MOL1        -0.2849
      23    H13     20.901527   18.210992   20.564143 H          1 MOL1         0.0764
      24    H14     21.289286   16.485361   20.671470 H          1 MOL1         0.0764
      25    H15     19.704529   16.997163   20.054892 H          1 MOL1         0.0764
@<TRIPOS>BOND
    1     1     2    1
    2     1     3    2
    3     1     4    1
    4     4     5    1
    5     4     6    1
    6     4     7    1
    7     7     8    1
    8     7     9    1
    9     7    10    1
   10    10    11    1
   11    10    12    1
   12    10    13    1
   13    13    14    1
   14    13    15    1
   15    13    16    1
   16    16    17    1
   17    16    18    1
   18    16    19    1
   19    19    20    1
   20    19    21    1
   21    19    22    1
   22    22    23    1
   23    22    24    1
   24    22    25    1
@<TRIPOS>SUBSTRUCTURE
       1 MOL1            1 RESIDUE      1      MOL     
@<SCITEGIC>MOL_PROPERTY
VConf Rank
SciTegic.value.IntegerValue
160

@<SCITEGIC>MOL_PROPERTY
Conf_Id
SciTegic.value.IntegerValue
30

@<SCITEGIC>MOL_PROPERTY
Delta U+W
SciTegic.value.DoubleValue
0.843

@<SCITEGIC>MOL_PROPERTY
U+W
SciTegic.value.DoubleValue
-50.787

@<SCITEGIC>MOL_PROPERTY
Grad RMS
SciTegic.value.DoubleValue
0.000000

@<SCITEGIC>MOL_PROPERTY
U
SciTegic.value.DoubleValue
8.647

@<SCITEGIC>MOL_PROPERTY
W
SciTegic.value.DoubleValue
-59.434

@<SCITEGIC>MOL_PROPERTY
W(PB)
SciTegic.value.DoubleValue
-61.861

@<SCITEGIC>MOL_PROPERTY
W(SA)
SciTegic.value.DoubleValue
2.428

@<SCITEGIC>MOL_PROPERTY
Valence
SciTegic.value.DoubleValue
8.924

@<SCITEGIC>MOL_PROPERTY
Coulomb
SciTegic.value.DoubleValue
-1.170

@<SCITEGIC>MOL_PROPERTY
VdW
SciTegic.value.DoubleValue
0.894

@<SCITEGIC>MOL_PROPERTY
VdW6
SciTegic.value.DoubleValue
-10.224

@<SCITEGIC>MOL_PROPERTY
VdW12
SciTegic.value.DoubleValue
11.118

@<SCITEGIC>MOL_PROPERTY
Bond
SciTegic.value.DoubleValue
0.231

@<SCITEGIC>MOL_PROPERTY
Angle
SciTegic.value.DoubleValue
3.232

@<SCITEGIC>MOL_PROPERTY
Pdih
SciTegic.value.DoubleValue
5.460

@<SCITEGIC>MOL_PROPERTY
Idih
SciTegic.value.DoubleValue
0.000

@<SCITEGIC>MOL_PROPERTY
Tether
SciTegic.value.DoubleValue
0.000

@<TRIPOS>MOLECULE
guest-8_confgen4.mol2 : confsearch ligand conformer 161
          25          24           1
SMALL
USER_CHARGES
 
@<TRIPOS>ATOM
       1    C1      23.411596   17.702587   26.096479 C.2        1 MOL1         0.6168
       2    O1      22.806847   16.691396   26.397099 O.co2      1 MOL1        -0.6703
       3    O2      24.497589   17.989067   26.559800 O.co2      1 MOL1        -0.6703
       4    C2      22.802188   18.680119   25.090273 C.3        1 MOL1        -0.1963
       5    H1      23.518456   18.791481   24.267797 H          1 MOL1         0.0750
       6    H2      22.728082   19.655303   25.585684 H          1 MOL1         0.0750
       7    C3      21.415315   18.271282   24.526489 C.3        1 MOL1        -0.1860
       8    H3      21.495441   17.290623   24.037212 H          1 MOL1         0.0752
       9    H4      20.704327   18.155279   25.356276 H          1 MOL1         0.0752
      10    C4      20.874891   19.311066   23.520786 C.3        1 MOL1        -0.1858
      11    H5      21.587290   19.425403   22.692203 H          1 MOL1         0.0752
      12    H6      20.795663   20.290593   24.012098 H          1 MOL1         0.0752
      13    C5      19.495269   18.902376   22.961229 C.3        1 MOL1        -0.1858
      14    H7      19.574199   17.922889   22.469825 H          1 MOL1         0.0752
      15    H8      18.782639   18.788007   23.789590 H          1 MOL1         0.0752
      16    C6      18.954343   19.941596   21.955577 C.3        1 MOL1        -0.1858
      17    H9      19.666803   20.056086   21.127093 H          1 MOL1         0.0752
      18    H10     18.875232   20.921151   22.446807 H          1 MOL1         0.0752
      19    C7      17.575354   19.533170   21.396169 C.3        1 MOL1        -0.1834
      20    H11     17.650991   18.554460   20.902314 H          1 MOL1         0.0752
      21    H12     16.859422   19.419523   22.222010 H          1 MOL1         0.0752
      22    C8      17.038661   20.573369   20.392400 C.3        1 MOL1        -0.2849
      23    H13     17.720642   20.684195   19.539161 H          1 MOL1         0.0764
      24    H14     16.058218   20.267208   20.004991 H          1 MOL1         0.0764
      25    H15     16.923095   21.555761   20.868790 H          1 MOL1         0.0764
@<TRIPOS>BOND
    1     1     2    1
    2     1     3    2
    3     1     4    1
    4     4     5    1
    5     4     6    1
    6     4     7    1
    7     7     8    1
    8     7     9    1
    9     7    10    1
   10    10    11    1
   11    10    12    1
   12    10    13    1
   13    13    14    1
   14    13    15    1
   15    13    16    1
   16    16    17    1
   17    16    18    1
   18    16    19    1
   19    19    20    1
   20    19    21    1
   21    19    22    1
   22    22    23    1
   23    22    24    1
   24    22    25    1
@<TRIPOS>SUBSTRUCTURE
       1 MOL1            1 RESIDUE      1      MOL     
@<SCITEGIC>MOL_PROPERTY
VConf Rank
SciTegic.value.IntegerValue
161

@<SCITEGIC>MOL_PROPERTY
Conf_Id
SciTegic.value.IntegerValue
0

@<SCITEGIC>MOL_PROPERTY
Delta U+W
SciTegic.value.DoubleValue
0.000

@<SCITEGIC>MOL_PROPERTY
U+W
SciTegic.value.DoubleValue
-51.629

@<SCITEGIC>MOL_PROPERTY
Grad RMS
SciTegic.value.DoubleValue
0.000000

@<SCITEGIC>MOL_PROPERTY
U
SciTegic.value.DoubleValue
6.586

@<SCITEGIC>MOL_PROPERTY
W
SciTegic.value.DoubleValue
-58.216

@<SCITEGIC>MOL_PROPERTY
W(PB)
SciTegic.value.DoubleValue
-60.757

@<SCITEGIC>MOL_PROPERTY
W(SA)
SciTegic.value.DoubleValue
2.541

@<SCITEGIC>MOL_PROPERTY
Valence
SciTegic.value.DoubleValue
8.027

@<SCITEGIC>MOL_PROPERTY
Coulomb
SciTegic.value.DoubleValue
-2.892

@<SCITEGIC>MOL_PROPERTY
VdW
SciTegic.value.DoubleValue
1.451

@<SCITEGIC>MOL_PROPERTY
VdW6
SciTegic.value.DoubleValue
-7.931

@<SCITEGIC>MOL_PROPERTY
VdW12
SciTegic.value.DoubleValue
9.383

@<SCITEGIC>MOL_PROPERTY
Bond
SciTegic.value.DoubleValue
0.149

@<SCITEGIC>MOL_PROPERTY
Angle
SciTegic.value.DoubleValue
2.726

@<SCITEGIC>MOL_PROPERTY
Pdih
SciTegic.value.DoubleValue
5.152

@<SCITEGIC>MOL_PROPERTY
Idih
SciTegic.value.DoubleValue
0.000

@<SCITEGIC>MOL_PROPERTY
Tether
SciTegic.value.DoubleValue
0.000

@<TRIPOS>MOLECULE
guest-8_confgen4.mol2 : confsearch ligand conformer 162
          25          24           1
SMALL
USER_CHARGES
 
@<TRIPOS>ATOM
       1    C1      20.060486   23.561564   24.675833 C.2        1 MOL1         0.6168
       2    O1      19.955043   23.672090   25.881356 O.co2      1 MOL1        -0.6703
       3    O2      20.675034   24.344700   23.978948 O.co2      1 MOL1        -0.6703
       4    C2      19.404585   22.360997   24.003141 C.3        1 MOL1        -0.1963
       5    H1      19.090456   22.663819   22.997046 H          1 MOL1         0.0750
       6    H2      18.496639   22.109951   24.564582 H          1 MOL1         0.0750
       7    C3      20.341304   21.130473   23.923201 C.3        1 MOL1        -0.1860
       8    H3      21.250932   21.402192   23.369721 H          1 MOL1         0.0752
       9    H4      20.657248   20.848445   24.937219 H          1 MOL1         0.0752
      10    C4      19.654741   19.928787   23.238655 C.3        1 MOL1        -0.1858
      11    H5      19.339159   20.214308   22.225706 H          1 MOL1         0.0752
      12    H6      18.745157   19.660562   23.793535 H          1 MOL1         0.0752
      13    C5      20.590834   18.703591   23.160600 C.3        1 MOL1        -0.1858
      14    H7      21.500447   18.971550   22.605706 H          1 MOL1         0.0752
      15    H8      20.906515   18.417899   24.173433 H          1 MOL1         0.0752
      16    C6      19.904927   17.501491   22.476225 C.3        1 MOL1        -0.1858
      17    H9      19.589212   17.786831   21.463309 H          1 MOL1         0.0752
      18    H10     18.995266   17.233275   23.030907 H          1 MOL1         0.0752
      19    C7      20.840440   16.276711   22.398186 C.3        1 MOL1        -0.1834
      20    H11     21.750817   16.540715   21.842304 H          1 MOL1         0.0752
      21    H12     21.156849   15.987145   23.409881 H          1 MOL1         0.0752
      22    C8      20.151898   15.078534   21.714167 C.3        1 MOL1        -0.2849
      23    H13     20.830869   14.217206   21.667266 H          1 MOL1         0.0764
      24    H14     19.254361   14.772798   22.267657 H          1 MOL1         0.0764
      25    H15     19.852802   15.330539   20.688286 H          1 MOL1         0.0764
@<TRIPOS>BOND
    1     1     2    1
    2     1     3    2
    3     1     4    1
    4     4     5    1
    5     4     6    1
    6     4     7    1
    7     7     8    1
    8     7     9    1
    9     7    10    1
   10    10    11    1
   11    10    12    1
   12    10    13    1
   13    13    14    1
   14    13    15    1
   15    13    16    1
   16    16    17    1
   17    16    18    1
   18    16    19    1
   19    19    20    1
   20    19    21    1
   21    19    22    1
   22    22    23    1
   23    22    24    1
   24    22    25    1
@<TRIPOS>SUBSTRUCTURE
       1 MOL1            1 RESIDUE      1      MOL     
@<SCITEGIC>MOL_PROPERTY
VConf Rank
SciTegic.value.IntegerValue
162

@<SCITEGIC>MOL_PROPERTY
Conf_Id
SciTegic.value.IntegerValue
27

@<SCITEGIC>MOL_PROPERTY
Delta U+W
SciTegic.value.DoubleValue
-1.297

@<SCITEGIC>MOL_PROPERTY
U+W
SciTegic.value.DoubleValue
-52.926

@<SCITEGIC>MOL_PROPERTY
Grad RMS
SciTegic.value.DoubleValue
0.000000

@<SCITEGIC>MOL_PROPERTY
U
SciTegic.value.DoubleValue
5.617

@<SCITEGIC>MOL_PROPERTY
W
SciTegic.value.DoubleValue
-58.543

@<SCITEGIC>MOL_PROPERTY
W(PB)
SciTegic.value.DoubleValue
-61.065

@<SCITEGIC>MOL_PROPERTY
W(SA)
SciTegic.value.DoubleValue
2.522

@<SCITEGIC>MOL_PROPERTY
Valence
SciTegic.value.DoubleValue
7.531

@<SCITEGIC>MOL_PROPERTY
Coulomb
SciTegic.value.DoubleValue
-2.818

@<SCITEGIC>MOL_PROPERTY
VdW
SciTegic.value.DoubleValue
0.904

@<SCITEGIC>MOL_PROPERTY
VdW6
SciTegic.value.DoubleValue
-7.640

@<SCITEGIC>MOL_PROPERTY
VdW12
SciTegic.value.DoubleValue
8.544

@<SCITEGIC>MOL_PROPERTY
Bond
SciTegic.value.DoubleValue
0.115

@<SCITEGIC>MOL_PROPERTY
Angle
SciTegic.value.DoubleValue
2.271

@<SCITEGIC>MOL_PROPERTY
Pdih
SciTegic.value.DoubleValue
5.144

@<SCITEGIC>MOL_PROPERTY
Idih
SciTegic.value.DoubleValue
0.001

@<SCITEGIC>MOL_PROPERTY
Tether
SciTegic.value.DoubleValue
0.000

@<TRIPOS>MOLECULE
guest-8_confgen4.mol2 : confsearch ligand conformer 163
          25          24           1
SMALL
USER_CHARGES
 
@<TRIPOS>ATOM
       1    C1      19.479143   17.154117   19.888545 C.2        1 MOL1         0.6168
       2    O1      20.292163   17.384785   19.015122 O.co2      1 MOL1        -0.6703
       3    O2      19.345139   16.065794   20.412529 O.co2      1 MOL1        -0.6703
       4    C2      18.565866   18.290906   20.338653 C.3        1 MOL1        -0.1963
       5    H1      17.696201   17.859979   20.849371 H          1 MOL1         0.0750
       6    H2      18.190316   18.786784   19.435851 H          1 MOL1         0.0750
       7    C3      19.260960   19.333965   21.251789 C.3        1 MOL1        -0.1860
       8    H3      20.145183   19.735865   20.737691 H          1 MOL1         0.0752
       9    H4      18.577499   20.178741   21.412365 H          1 MOL1         0.0752
      10    C4      19.673388   18.745188   22.619639 C.3        1 MOL1        -0.1858
      11    H5      20.371330   17.910136   22.468017 H          1 MOL1         0.0752
      12    H6      18.788508   18.332752   23.123533 H          1 MOL1         0.0752
      13    C5      20.334036   19.807999   23.523856 C.3        1 MOL1        -0.1858
      14    H7      21.218778   20.219816   23.019152 H          1 MOL1         0.0752
      15    H8      19.636758   20.642663   23.679345 H          1 MOL1         0.0752
      16    C6      20.747170   19.220187   24.890479 C.3        1 MOL1        -0.1858
      17    H9      21.444427   18.385423   24.735142 H          1 MOL1         0.0752
      18    H10     19.862622   18.807988   25.395204 H          1 MOL1         0.0752
      19    C7      21.408039   20.282009   25.794446 C.3        1 MOL1        -0.1834
      20    H11     22.294431   20.695241   25.293416 H          1 MOL1         0.0752
      21    H12     20.712594   21.117780   25.953573 H          1 MOL1         0.0752
      22    C8      21.819219   19.690964   27.157972 C.3        1 MOL1        -0.2849
      23    H13     22.539772   18.872518   27.030117 H          1 MOL1         0.0764
      24    H14     22.287068   20.459087   27.787405 H          1 MOL1         0.0764
      25    H15     20.946033   19.298183   27.695246 H          1 MOL1         0.0764
@<TRIPOS>BOND
    1     1     2    1
    2     1     3    2
    3     1     4    1
    4     4     5    1
    5     4     6    1
    6     4     7    1
    7     7     8    1
    8     7     9    1
    9     7    10    1
   10    10    11    1
   11    10    12    1
   12    10    13    1
   13    13    14    1
   14    13    15    1
   15    13    16    1
   16    16    17    1
   17    16    18    1
   18    16    19    1
   19    19    20    1
   20    19    21    1
   21    19    22    1
   22    22    23    1
   23    22    24    1
   24    22    25    1
@<TRIPOS>SUBSTRUCTURE
       1 MOL1            1 RESIDUE      1      MOL     
@<SCITEGIC>MOL_PROPERTY
VConf Rank
SciTegic.value.IntegerValue
163

@<SCITEGIC>MOL_PROPERTY
Conf_Id
SciTegic.value.IntegerValue
37

@<SCITEGIC>MOL_PROPERTY
Delta U+W
SciTegic.value.DoubleValue
-0.230

@<SCITEGIC>MOL_PROPERTY
U+W
SciTegic.value.DoubleValue
-51.860

@<SCITEGIC>MOL_PROPERTY
Grad RMS
SciTegic.value.DoubleValue
0.000000

@<SCITEGIC>MOL_PROPERTY
U
SciTegic.value.DoubleValue
7.816

@<SCITEGIC>MOL_PROPERTY
W
SciTegic.value.DoubleValue
-59.675

@<SCITEGIC>MOL_PROPERTY
W(PB)
SciTegic.value.DoubleValue
-62.180

@<SCITEGIC>MOL_PROPERTY
W(SA)
SciTegic.value.DoubleValue
2.505

@<SCITEGIC>MOL_PROPERTY
Valence
SciTegic.value.DoubleValue
7.785

@<SCITEGIC>MOL_PROPERTY
Coulomb
SciTegic.value.DoubleValue
-0.713

@<SCITEGIC>MOL_PROPERTY
VdW
SciTegic.value.DoubleValue
0.744

@<SCITEGIC>MOL_PROPERTY
VdW6
SciTegic.value.DoubleValue
-8.514

@<SCITEGIC>MOL_PROPERTY
VdW12
SciTegic.value.DoubleValue
9.259

@<SCITEGIC>MOL_PROPERTY
Bond
SciTegic.value.DoubleValue
0.136

@<SCITEGIC>MOL_PROPERTY
Angle
SciTegic.value.DoubleValue
2.433

@<SCITEGIC>MOL_PROPERTY
Pdih
SciTegic.value.DoubleValue
5.216

@<SCITEGIC>MOL_PROPERTY
Idih
SciTegic.value.DoubleValue
0.000

@<SCITEGIC>MOL_PROPERTY
Tether
SciTegic.value.DoubleValue
0.000

@<TRIPOS>MOLECULE
guest-8_confgen4.mol2 : confsearch ligand conformer 164
          25          24           1
SMALL
USER_CHARGES
 
@<TRIPOS>ATOM
       1    C1      23.411560   18.711760   21.304115 C.2        1 MOL1         0.6168
       2    O1      24.208335   19.624339   21.401177 O.co2      1 MOL1        -0.6703
       3    O2      22.857002   18.410435   20.265543 O.co2      1 MOL1        -0.6703
       4    C2      23.104340   17.890068   22.552877 C.3        1 MOL1        -0.1963
       5    H1      24.060680   17.658206   23.036238 H          1 MOL1         0.0750
       6    H2      22.664862   16.934038   22.243506 H          1 MOL1         0.0750
       7    C3      22.172259   18.605729   23.564805 C.3        1 MOL1        -0.1860
       8    H3      22.117403   18.006876   24.483998 H          1 MOL1         0.0752
       9    H4      22.612341   19.573351   23.843567 H          1 MOL1         0.0752
      10    C4      20.745897   18.819773   23.010330 C.3        1 MOL1        -0.1858
      11    H5      20.315521   17.851293   22.720766 H          1 MOL1         0.0752
      12    H6      20.790823   19.433052   22.099674 H          1 MOL1         0.0752
      13    C5      19.827038   19.504543   24.044939 C.3        1 MOL1        -0.1858
      14    H7      19.778260   18.891572   24.955392 H          1 MOL1         0.0752
      15    H8      20.258162   20.472939   24.333778 H          1 MOL1         0.0752
      16    C6      18.401824   19.719382   23.491346 C.3        1 MOL1        -0.1858
      17    H9      17.970619   18.751125   23.202172 H          1 MOL1         0.0752
      18    H10     18.450441   20.332256   22.580771 H          1 MOL1         0.0752
      19    C7      17.483180   20.404369   24.524909 C.3        1 MOL1        -0.1834
      20    H11     17.430737   19.793095   25.436541 H          1 MOL1         0.0752
      21    H12     17.910522   21.374261   24.815032 H          1 MOL1         0.0752
      22    C8      16.061057   20.617072   23.968199 C.3        1 MOL1        -0.2849
      23    H13     15.597236   19.659051   23.699014 H          1 MOL1         0.0764
      24    H14     15.421898   21.104857   24.715609 H          1 MOL1         0.0764
      25    H15     16.080660   21.252071   23.072771 H          1 MOL1         0.0764
@<TRIPOS>BOND
    1     1     2    1
    2     1     3    2
    3     1     4    1
    4     4     5    1
    5     4     6    1
    6     4     7    1
    7     7     8    1
    8     7     9    1
    9     7    10    1
   10    10    11    1
   11    10    12    1
   12    10    13    1
   13    13    14    1
   14    13    15    1
   15    13    16    1
   16    16    17    1
   17    16    18    1
   18    16    19    1
   19    19    20    1
   20    19    21    1
   21    19    22    1
   22    22    23    1
   23    22    24    1
   24    22    25    1
@<TRIPOS>SUBSTRUCTURE
       1 MOL1            1 RESIDUE      1      MOL     
@<SCITEGIC>MOL_PROPERTY
VConf Rank
SciTegic.value.IntegerValue
164

@<SCITEGIC>MOL_PROPERTY
Conf_Id
SciTegic.value.IntegerValue
54

@<SCITEGIC>MOL_PROPERTY
Delta U+W
SciTegic.value.DoubleValue
-0.224

@<SCITEGIC>MOL_PROPERTY
U+W
SciTegic.value.DoubleValue
-51.854

@<SCITEGIC>MOL_PROPERTY
Grad RMS
SciTegic.value.DoubleValue
0.000000

@<SCITEGIC>MOL_PROPERTY
U
SciTegic.value.DoubleValue
7.816

@<SCITEGIC>MOL_PROPERTY
W
SciTegic.value.DoubleValue
-59.670

@<SCITEGIC>MOL_PROPERTY
W(PB)
SciTegic.value.DoubleValue
-62.157

@<SCITEGIC>MOL_PROPERTY
W(SA)
SciTegic.value.DoubleValue
2.487

@<SCITEGIC>MOL_PROPERTY
Valence
SciTegic.value.DoubleValue
7.785

@<SCITEGIC>MOL_PROPERTY
Coulomb
SciTegic.value.DoubleValue
-0.713

@<SCITEGIC>MOL_PROPERTY
VdW
SciTegic.value.DoubleValue
0.744

@<SCITEGIC>MOL_PROPERTY
VdW6
SciTegic.value.DoubleValue
-8.515

@<SCITEGIC>MOL_PROPERTY
VdW12
SciTegic.value.DoubleValue
9.259

@<SCITEGIC>MOL_PROPERTY
Bond
SciTegic.value.DoubleValue
0.136

@<SCITEGIC>MOL_PROPERTY
Angle
SciTegic.value.DoubleValue
2.433

@<SCITEGIC>MOL_PROPERTY
Pdih
SciTegic.value.DoubleValue
5.215

@<SCITEGIC>MOL_PROPERTY
Idih
SciTegic.value.DoubleValue
0.000

@<SCITEGIC>MOL_PROPERTY
Tether
SciTegic.value.DoubleValue
0.000

@<TRIPOS>MOLECULE
guest-8_confgen4.mol2 : confsearch ligand conformer 165
          25          24           1
SMALL
USER_CHARGES
 
@<TRIPOS>ATOM
       1    C1      21.266815   17.809349   19.647748 C.2        1 MOL1         0.6168
       2    O1      21.298505   16.598470   19.746823 O.co2      1 MOL1        -0.6703
       3    O2      20.686032   18.396229   18.755911 O.co2      1 MOL1        -0.6703
       4    C2      22.012065   18.640014   20.688797 C.3        1 MOL1        -0.1963
       5    H1      22.585350   19.402733   20.148822 H          1 MOL1         0.0750
       6    H2      22.740203   17.995388   21.195851 H          1 MOL1         0.0750
       7    C3      21.088877   19.326520   21.729037 C.3        1 MOL1        -0.1860
       8    H3      21.695555   20.016830   22.328386 H          1 MOL1         0.0752
       9    H4      20.339660   19.935490   21.204415 H          1 MOL1         0.0752
      10    C4      20.381986   18.309892   22.657866 C.3        1 MOL1        -0.1858
      11    H5      21.131843   17.732785   23.215932 H          1 MOL1         0.0752
      12    H6      19.829994   17.585610   22.043293 H          1 MOL1         0.0752
      13    C5      19.387303   18.962258   23.647805 C.3        1 MOL1        -0.1858
      14    H7      18.649001   19.554551   23.090422 H          1 MOL1         0.0752
      15    H8      18.829647   18.158700   24.145283 H          1 MOL1         0.0752
      16    C6      20.071035   19.849948   24.717079 C.3        1 MOL1        -0.1858
      17    H9      20.623362   20.658706   24.222387 H          1 MOL1         0.0752
      18    H10     20.812804   19.258433   25.270709 H          1 MOL1         0.0752
      19    C7      19.074763   20.491325   25.711345 C.3        1 MOL1        -0.1834
      20    H11     19.619905   21.206888   26.342245 H          1 MOL1         0.0752
      21    H12     18.323543   21.073852   25.160318 H          1 MOL1         0.0752
      22    C8      18.370170   19.464089   26.624183 C.3        1 MOL1        -0.2849
      23    H13     17.713193   18.799707   26.049395 H          1 MOL1         0.0764
      24    H14     19.102923   18.846227   27.159374 H          1 MOL1         0.0764
      25    H15     17.750834   19.976741   27.371523 H          1 MOL1         0.0764
@<TRIPOS>BOND
    1     1     2    1
    2     1     3    2
    3     1     4    1
    4     4     5    1
    5     4     6    1
    6     4     7    1
    7     7     8    1
    8     7     9    1
    9     7    10    1
   10    10    11    1
   11    10    12    1
   12    10    13    1
   13    13    14    1
   14    13    15    1
   15    13    16    1
   16    16    17    1
   17    16    18    1
   18    16    19    1
   19    19    20    1
   20    19    21    1
   21    19    22    1
   22    22    23    1
   23    22    24    1
   24    22    25    1
@<TRIPOS>SUBSTRUCTURE
       1 MOL1            1 RESIDUE      1      MOL     
@<SCITEGIC>MOL_PROPERTY
VConf Rank
SciTegic.value.IntegerValue
165

@<SCITEGIC>MOL_PROPERTY
Conf_Id
SciTegic.value.IntegerValue
101

@<SCITEGIC>MOL_PROPERTY
Delta U+W
SciTegic.value.DoubleValue
1.534

@<SCITEGIC>MOL_PROPERTY
U+W
SciTegic.value.DoubleValue
-50.095

@<SCITEGIC>MOL_PROPERTY
Grad RMS
SciTegic.value.DoubleValue
0.000000

@<SCITEGIC>MOL_PROPERTY
U
SciTegic.value.DoubleValue
9.416

@<SCITEGIC>MOL_PROPERTY
W
SciTegic.value.DoubleValue
-59.512

@<SCITEGIC>MOL_PROPERTY
W(PB)
SciTegic.value.DoubleValue
-61.988

@<SCITEGIC>MOL_PROPERTY
W(SA)
SciTegic.value.DoubleValue
2.476

@<SCITEGIC>MOL_PROPERTY
Valence
SciTegic.value.DoubleValue
8.939

@<SCITEGIC>MOL_PROPERTY
Coulomb
SciTegic.value.DoubleValue
-0.615

@<SCITEGIC>MOL_PROPERTY
VdW
SciTegic.value.DoubleValue
1.092

@<SCITEGIC>MOL_PROPERTY
VdW6
SciTegic.value.DoubleValue
-9.710

@<SCITEGIC>MOL_PROPERTY
VdW12
SciTegic.value.DoubleValue
10.802

@<SCITEGIC>MOL_PROPERTY
Bond
SciTegic.value.DoubleValue
0.216

@<SCITEGIC>MOL_PROPERTY
Angle
SciTegic.value.DoubleValue
2.979

@<SCITEGIC>MOL_PROPERTY
Pdih
SciTegic.value.DoubleValue
5.743

@<SCITEGIC>MOL_PROPERTY
Idih
SciTegic.value.DoubleValue
0.000

@<SCITEGIC>MOL_PROPERTY
Tether
SciTegic.value.DoubleValue
0.000

@<TRIPOS>MOLECULE
guest-8_confgen4.mol2 : confsearch ligand conformer 166
          25          24           1
SMALL
USER_CHARGES
 
@<TRIPOS>ATOM
       1    C1      15.978997   19.437025   22.506374 C.2        1 MOL1         0.6168
       2    O1      15.574697   18.304990   22.328117 O.co2      1 MOL1        -0.6703
       3    O2      15.260603   20.367607   22.814115 O.co2      1 MOL1        -0.6703
       4    C2      17.473335   19.699824   22.357860 C.3        1 MOL1        -0.1963
       5    H1      17.603536   20.726903   21.996621 H          1 MOL1         0.0750
       6    H2      17.852659   19.029787   21.578421 H          1 MOL1         0.0750
       7    C3      18.252152   19.495976   23.683547 C.3        1 MOL1        -0.1860
       8    H3      17.782045   20.109499   24.464582 H          1 MOL1         0.0752
       9    H4      18.155240   18.451364   24.010189 H          1 MOL1         0.0752
      10    C4      19.748843   19.877858   23.589794 C.3        1 MOL1        -0.1858
      11    H5      20.172694   19.836236   24.601282 H          1 MOL1         0.0752
      12    H6      19.843426   20.919348   23.253759 H          1 MOL1         0.0752
      13    C5      20.563463   18.950206   22.655044 C.3        1 MOL1        -0.1858
      14    H7      20.469604   17.909463   22.991288 H          1 MOL1         0.0752
      15    H8      20.136484   18.983423   21.644943 H          1 MOL1         0.0752
      16    C6      22.060064   19.339082   22.548666 C.3        1 MOL1        -0.1858
      17    H9      22.135181   20.351379   22.128798 H          1 MOL1         0.0752
      18    H10     22.544103   18.673402   21.821173 H          1 MOL1         0.0752
      19    C7      22.857997   19.289277   23.875422 C.3        1 MOL1        -0.1834
      20    H11     23.895261   19.587459   23.669962 H          1 MOL1         0.0752
      21    H12     22.465340   20.031172   24.583063 H          1 MOL1         0.0752
      22    C8      22.864622   17.892963   24.534365 C.3        1 MOL1        -0.2849
      23    H13     23.231542   17.130259   23.835344 H          1 MOL1         0.0764
      24    H14     23.518435   17.887156   25.415989 H          1 MOL1         0.0764
      25    H15     21.858978   17.603467   24.864442 H          1 MOL1         0.0764
@<TRIPOS>BOND
    1     1     2    1
    2     1     3    2
    3     1     4    1
    4     4     5    1
    5     4     6    1
    6     4     7    1
    7     7     8    1
    8     7     9    1
    9     7    10    1
   10    10    11    1
   11    10    12    1
   12    10    13    1
   13    13    14    1
   14    13    15    1
   15    13    16    1
   16    16    17    1
   17    16    18    1
   18    16    19    1
   19    19    20    1
   20    19    21    1
   21    19    22    1
   22    22    23    1
   23    22    24    1
   24    22    25    1
@<TRIPOS>SUBSTRUCTURE
       1 MOL1            1 RESIDUE      1      MOL     
@<SCITEGIC>MOL_PROPERTY
VConf Rank
SciTegic.value.IntegerValue
166

@<SCITEGIC>MOL_PROPERTY
Conf_Id
SciTegic.value.IntegerValue
75

@<SCITEGIC>MOL_PROPERTY
Delta U+W
SciTegic.value.DoubleValue
1.014

@<SCITEGIC>MOL_PROPERTY
U+W
SciTegic.value.DoubleValue
-50.615

@<SCITEGIC>MOL_PROPERTY
Grad RMS
SciTegic.value.DoubleValue
0.000000

@<SCITEGIC>MOL_PROPERTY
U
SciTegic.value.DoubleValue
8.474

@<SCITEGIC>MOL_PROPERTY
W
SciTegic.value.DoubleValue
-59.089

@<SCITEGIC>MOL_PROPERTY
W(PB)
SciTegic.value.DoubleValue
-61.530

@<SCITEGIC>MOL_PROPERTY
W(SA)
SciTegic.value.DoubleValue
2.441

@<SCITEGIC>MOL_PROPERTY
Valence
SciTegic.value.DoubleValue
9.080

@<SCITEGIC>MOL_PROPERTY
Coulomb
SciTegic.value.DoubleValue
-1.772

@<SCITEGIC>MOL_PROPERTY
VdW
SciTegic.value.DoubleValue
1.165

@<SCITEGIC>MOL_PROPERTY
VdW6
SciTegic.value.DoubleValue
-9.830

@<SCITEGIC>MOL_PROPERTY
VdW12
SciTegic.value.DoubleValue
10.996

@<SCITEGIC>MOL_PROPERTY
Bond
SciTegic.value.DoubleValue
0.240

@<SCITEGIC>MOL_PROPERTY
Angle
SciTegic.value.DoubleValue
3.225

@<SCITEGIC>MOL_PROPERTY
Pdih
SciTegic.value.DoubleValue
5.615

@<SCITEGIC>MOL_PROPERTY
Idih
SciTegic.value.DoubleValue
0.001

@<SCITEGIC>MOL_PROPERTY
Tether
SciTegic.value.DoubleValue
0.000

@<TRIPOS>MOLECULE
guest-8_confgen4.mol2 : confsearch ligand conformer 167
          25          24           1
SMALL
USER_CHARGES
 
@<TRIPOS>ATOM
       1    C1      17.552787   20.063882   26.554796 C.2        1 MOL1         0.6168
       2    O1      17.648281   21.250476   26.798782 O.co2      1 MOL1        -0.6703
       3    O2      16.572533   19.397920   26.823619 O.co2      1 MOL1        -0.6703
       4    C2      18.719095   19.377176   25.853197 C.3        1 MOL1        -0.1963
       5    H1      18.761056   18.337700   26.200022 H          1 MOL1         0.0750
       6    H2      19.646350   19.864887   26.177144 H          1 MOL1         0.0750
       7    C3      18.602928   19.421527   24.309623 C.3        1 MOL1        -0.1860
       8    H3      17.663693   18.941076   24.002214 H          1 MOL1         0.0752
       9    H4      18.548774   20.468379   23.979921 H          1 MOL1         0.0752
      10    C4      19.795708   18.721605   23.622940 C.3        1 MOL1        -0.1858
      11    H5      19.846164   17.675899   23.955758 H          1 MOL1         0.0752
      12    H6      20.729409   19.198891   23.943276 H          1 MOL1         0.0752
      13    C5      19.671968   18.763347   22.081616 C.3        1 MOL1        -0.1858
      14    H7      18.743015   18.249342   21.799195 H          1 MOL1         0.0752
      15    H8      19.565880   19.800119   21.734242 H          1 MOL1         0.0752
      16    C6      20.854445   18.076926   21.351548 C.3        1 MOL1        -0.1858
      17    H9      20.459184   17.577427   20.456485 H          1 MOL1         0.0752
      18    H10     21.276549   17.278319   21.976760 H          1 MOL1         0.0752
      19    C7      21.976117   19.040044   20.889858 C.3        1 MOL1        -0.1834
      20    H11     22.716219   18.464062   20.317438 H          1 MOL1         0.0752
      21    H12     21.560640   19.782636   20.194750 H          1 MOL1         0.0752
      22    C8      22.699831   19.766824   22.042420 C.3        1 MOL1        -0.2849
      23    H13     23.069063   19.051915   22.789102 H          1 MOL1         0.0764
      24    H14     23.559617   20.331889   21.660027 H          1 MOL1         0.0764
      25    H15     22.031872   20.479783   22.541567 H          1 MOL1         0.0764
@<TRIPOS>BOND
    1     1     2    1
    2     1     3    2
    3     1     4    1
    4     4     5    1
    5     4     6    1
    6     4     7    1
    7     7     8    1
    8     7     9    1
    9     7    10    1
   10    10    11    1
   11    10    12    1
   12    10    13    1
   13    13    14    1
   14    13    15    1
   15    13    16    1
   16    16    17    1
   17    16    18    1
   18    16    19    1
   19    19    20    1
   20    19    21    1
   21    19    22    1
   22    22    23    1
   23    22    24    1
   24    22    25    1
@<TRIPOS>SUBSTRUCTURE
       1 MOL1            1 RESIDUE      1      MOL     
@<SCITEGIC>MOL_PROPERTY
VConf Rank
SciTegic.value.IntegerValue
167

@<SCITEGIC>MOL_PROPERTY
Conf_Id
SciTegic.value.IntegerValue
125

@<SCITEGIC>MOL_PROPERTY
Delta U+W
SciTegic.value.DoubleValue
2.314

@<SCITEGIC>MOL_PROPERTY
U+W
SciTegic.value.DoubleValue
-49.315

@<SCITEGIC>MOL_PROPERTY
Grad RMS
SciTegic.value.DoubleValue
0.000000

@<SCITEGIC>MOL_PROPERTY
U
SciTegic.value.DoubleValue
9.740

@<SCITEGIC>MOL_PROPERTY
W
SciTegic.value.DoubleValue
-59.054

@<SCITEGIC>MOL_PROPERTY
W(PB)
SciTegic.value.DoubleValue
-61.488

@<SCITEGIC>MOL_PROPERTY
W(SA)
SciTegic.value.DoubleValue
2.433

@<SCITEGIC>MOL_PROPERTY
Valence
SciTegic.value.DoubleValue
10.506

@<SCITEGIC>MOL_PROPERTY
Coulomb
SciTegic.value.DoubleValue
-1.761

@<SCITEGIC>MOL_PROPERTY
VdW
SciTegic.value.DoubleValue
0.994

@<SCITEGIC>MOL_PROPERTY
VdW6
SciTegic.value.DoubleValue
-9.209

@<SCITEGIC>MOL_PROPERTY
VdW12
SciTegic.value.DoubleValue
10.203

@<SCITEGIC>MOL_PROPERTY
Bond
SciTegic.value.DoubleValue
0.193

@<SCITEGIC>MOL_PROPERTY
Angle
SciTegic.value.DoubleValue
2.979

@<SCITEGIC>MOL_PROPERTY
Pdih
SciTegic.value.DoubleValue
7.334

@<SCITEGIC>MOL_PROPERTY
Idih
SciTegic.value.DoubleValue
0.001

@<SCITEGIC>MOL_PROPERTY
Tether
SciTegic.value.DoubleValue
0.000

@<TRIPOS>MOLECULE
guest-8_confgen4.mol2 : confsearch ligand conformer 168
          25          24           1
SMALL
USER_CHARGES
 
@<TRIPOS>ATOM
       1    C1      17.458041   21.297339   21.049513 C.2        1 MOL1         0.6168
       2    O1      16.780518   21.911462   21.849830 O.co2      1 MOL1        -0.6703
       3    O2      17.228943   21.267430   19.856465 O.co2      1 MOL1        -0.6703
       4    C2      18.647169   20.500614   21.574130 C.3        1 MOL1        -0.1963
       5    H1      19.056358   21.041354   22.434876 H          1 MOL1         0.0750
       6    H2      19.420495   20.492240   20.796794 H          1 MOL1         0.0750
       7    C3      18.269166   19.049218   21.968851 C.3        1 MOL1        -0.1860
       8    H3      17.528685   19.070765   22.780364 H          1 MOL1         0.0752
       9    H4      17.776657   18.567986   21.112525 H          1 MOL1         0.0752
      10    C4      19.482744   18.187180   22.391075 C.3        1 MOL1        -0.1858
      11    H5      20.216752   18.159716   21.574100 H          1 MOL1         0.0752
      12    H6      19.141142   17.153276   22.536883 H          1 MOL1         0.0752
      13    C5      20.165613   18.679669   23.688125 C.3        1 MOL1        -0.1858
      14    H7      20.570460   19.686601   23.530594 H          1 MOL1         0.0752
      15    H8      19.419163   18.753537   24.490571 H          1 MOL1         0.0752
      16    C6      21.304020   17.730133   24.128145 C.3        1 MOL1        -0.1858
      17    H9      22.075459   17.690704   23.346982 H          1 MOL1         0.0752
      18    H10     20.904074   16.711280   24.222096 H          1 MOL1         0.0752
      19    C7      21.951524   18.128553   25.474925 C.3        1 MOL1        -0.1834
      20    H11     21.183453   18.163691   26.259871 H          1 MOL1         0.0752
      21    H12     22.661196   17.343525   25.770431 H          1 MOL1         0.0752
      22    C8      22.699190   19.478531   25.418915 C.3        1 MOL1        -0.2849
      23    H13     22.008421   20.312311   25.241898 H          1 MOL1         0.0764
      24    H14     23.215195   19.671070   26.368422 H          1 MOL1         0.0764
      25    H15     23.451516   19.478228   24.619469 H          1 MOL1         0.0764
@<TRIPOS>BOND
    1     1     2    1
    2     1     3    2
    3     1     4    1
    4     4     5    1
    5     4     6    1
    6     4     7    1
    7     7     8    1
    8     7     9    1
    9     7    10    1
   10    10    11    1
   11    10    12    1
   12    10    13    1
   13    13    14    1
   14    13    15    1
   15    13    16    1
   16    16    17    1
   17    16    18    1
   18    16    19    1
   19    19    20    1
   20    19    21    1
   21    19    22    1
   22    22    23    1
   23    22    24    1
   24    22    25    1
@<TRIPOS>SUBSTRUCTURE
       1 MOL1            1 RESIDUE      1      MOL     
@<SCITEGIC>MOL_PROPERTY
VConf Rank
SciTegic.value.IntegerValue
168

@<SCITEGIC>MOL_PROPERTY
Conf_Id
SciTegic.value.IntegerValue
4

@<SCITEGIC>MOL_PROPERTY
Delta U+W
SciTegic.value.DoubleValue
0.189

@<SCITEGIC>MOL_PROPERTY
U+W
SciTegic.value.DoubleValue
-51.441

@<SCITEGIC>MOL_PROPERTY
Grad RMS
SciTegic.value.DoubleValue
0.000000

@<SCITEGIC>MOL_PROPERTY
U
SciTegic.value.DoubleValue
7.701

@<SCITEGIC>MOL_PROPERTY
W
SciTegic.value.DoubleValue
-59.141

@<SCITEGIC>MOL_PROPERTY
W(PB)
SciTegic.value.DoubleValue
-61.609

@<SCITEGIC>MOL_PROPERTY
W(SA)
SciTegic.value.DoubleValue
2.467

@<SCITEGIC>MOL_PROPERTY
Valence
SciTegic.value.DoubleValue
8.550

@<SCITEGIC>MOL_PROPERTY
Coulomb
SciTegic.value.DoubleValue
-1.988

@<SCITEGIC>MOL_PROPERTY
VdW
SciTegic.value.DoubleValue
1.139

@<SCITEGIC>MOL_PROPERTY
VdW6
SciTegic.value.DoubleValue
-8.988

@<SCITEGIC>MOL_PROPERTY
VdW12
SciTegic.value.DoubleValue
10.127

@<SCITEGIC>MOL_PROPERTY
Bond
SciTegic.value.DoubleValue
0.191

@<SCITEGIC>MOL_PROPERTY
Angle
SciTegic.value.DoubleValue
2.738

@<SCITEGIC>MOL_PROPERTY
Pdih
SciTegic.value.DoubleValue
5.621

@<SCITEGIC>MOL_PROPERTY
Idih
SciTegic.value.DoubleValue
0.001

@<SCITEGIC>MOL_PROPERTY
Tether
SciTegic.value.DoubleValue
0.000

@<TRIPOS>MOLECULE
guest-8_confgen4.mol2 : confsearch ligand conformer 169
          25          24           1
SMALL
USER_CHARGES
 
@<TRIPOS>ATOM
       1    C1      23.638806   19.838143   21.469406 C.2        1 MOL1         0.6168
       2    O1      24.441743   19.960866   22.373245 O.co2      1 MOL1        -0.6703
       3    O2      23.950206   19.773571   20.296545 O.co2      1 MOL1        -0.6703
       4    C2      22.160688   19.735884   21.828199 C.3        1 MOL1        -0.1963
       5    H1      21.580618   20.178428   21.009645 H          1 MOL1         0.0750
       6    H2      21.990850   20.352227   22.718141 H          1 MOL1         0.0750
       7    C3      21.704301   18.275035   22.078933 C.3        1 MOL1        -0.1860
       8    H3      21.975146   17.666262   21.205155 H          1 MOL1         0.0752
       9    H4      22.259160   17.858468   22.930950 H          1 MOL1         0.0752
      10    C4      20.183362   18.136277   22.327222 C.3        1 MOL1        -0.1858
      11    H5      19.934984   17.067249   22.376193 H          1 MOL1         0.0752
      12    H6      19.631634   18.544587   21.469405 H          1 MOL1         0.0752
      13    C5      19.707081   18.824129   23.627687 C.3        1 MOL1        -0.1858
      14    H7      20.294677   18.450154   24.477062 H          1 MOL1         0.0752
      15    H8      19.888849   19.903491   23.560133 H          1 MOL1         0.0752
      16    C6      18.204121   18.570500   23.888428 C.3        1 MOL1        -0.1858
      17    H9      18.019140   17.487626   23.891480 H          1 MOL1         0.0752
      18    H10     17.610303   18.985207   23.062423 H          1 MOL1         0.0752
      19    C7      17.704841   19.156743   25.229642 C.3        1 MOL1        -0.1834
      20    H11     16.667730   18.832099   25.391611 H          1 MOL1         0.0752
      21    H12     18.293291   18.739987   26.058707 H          1 MOL1         0.0752
      22    C8      17.756070   20.699276   25.280195 C.3        1 MOL1        -0.2849
      23    H13     17.200287   21.138631   24.441635 H          1 MOL1         0.0764
      24    H14     17.308439   21.067730   26.212270 H          1 MOL1         0.0764
      25    H15     18.788736   21.067614   25.240019 H          1 MOL1         0.0764
@<TRIPOS>BOND
    1     1     2    1
    2     1     3    2
    3     1     4    1
    4     4     5    1
    5     4     6    1
    6     4     7    1
    7     7     8    1
    8     7     9    1
    9     7    10    1
   10    10    11    1
   11    10    12    1
   12    10    13    1
   13    13    14    1
   14    13    15    1
   15    13    16    1
   16    16    17    1
   17    16    18    1
   18    16    19    1
   19    19    20    1
   20    19    21    1
   21    19    22    1
   22    22    23    1
   23    22    24    1
   24    22    25    1
@<TRIPOS>SUBSTRUCTURE
       1 MOL1            1 RESIDUE      1      MOL     
@<SCITEGIC>MOL_PROPERTY
VConf Rank
SciTegic.value.IntegerValue
169

@<SCITEGIC>MOL_PROPERTY
Conf_Id
SciTegic.value.IntegerValue
17

@<SCITEGIC>MOL_PROPERTY
Delta U+W
SciTegic.value.DoubleValue
0.219

@<SCITEGIC>MOL_PROPERTY
U+W
SciTegic.value.DoubleValue
-51.411

@<SCITEGIC>MOL_PROPERTY
Grad RMS
SciTegic.value.DoubleValue
0.000000

@<SCITEGIC>MOL_PROPERTY
U
SciTegic.value.DoubleValue
7.701

@<SCITEGIC>MOL_PROPERTY
W
SciTegic.value.DoubleValue
-59.111

@<SCITEGIC>MOL_PROPERTY
W(PB)
SciTegic.value.DoubleValue
-61.599

@<SCITEGIC>MOL_PROPERTY
W(SA)
SciTegic.value.DoubleValue
2.488

@<SCITEGIC>MOL_PROPERTY
Valence
SciTegic.value.DoubleValue
8.550

@<SCITEGIC>MOL_PROPERTY
Coulomb
SciTegic.value.DoubleValue
-1.988

@<SCITEGIC>MOL_PROPERTY
VdW
SciTegic.value.DoubleValue
1.139

@<SCITEGIC>MOL_PROPERTY
VdW6
SciTegic.value.DoubleValue
-8.988

@<SCITEGIC>MOL_PROPERTY
VdW12
SciTegic.value.DoubleValue
10.127

@<SCITEGIC>MOL_PROPERTY
Bond
SciTegic.value.DoubleValue
0.191

@<SCITEGIC>MOL_PROPERTY
Angle
SciTegic.value.DoubleValue
2.738

@<SCITEGIC>MOL_PROPERTY
Pdih
SciTegic.value.DoubleValue
5.621

@<SCITEGIC>MOL_PROPERTY
Idih
SciTegic.value.DoubleValue
0.001

@<SCITEGIC>MOL_PROPERTY
Tether
SciTegic.value.DoubleValue
0.000

@<TRIPOS>MOLECULE
guest-8_confgen4.mol2 : confsearch ligand conformer 170
          25          24           1
SMALL
USER_CHARGES
 
@<TRIPOS>ATOM
       1    C1      21.584326   16.559041   25.428210 C.2        1 MOL1         0.6168
       2    O1      21.240804   16.634578   26.591545 O.co2      1 MOL1        -0.6703
       3    O2      22.731619   16.704803   25.054651 O.co2      1 MOL1        -0.6703
       4    C2      20.521361   16.244777   24.379270 C.3        1 MOL1        -0.1963
       5    H1      19.655172   15.797636   24.881819 H          1 MOL1         0.0750
       6    H2      20.933427   15.476943   23.713976 H          1 MOL1         0.0750
       7    C3      20.080948   17.473681   23.542174 C.3        1 MOL1        -0.1860
       8    H3      20.966318   17.914569   23.065304 H          1 MOL1         0.0752
       9    H4      19.419109   17.135868   22.733399 H          1 MOL1         0.0752
      10    C4      19.346196   18.536966   24.393242 C.3        1 MOL1        -0.1858
      11    H5      20.023895   18.933013   25.162133 H          1 MOL1         0.0752
      12    H6      18.518093   18.054470   24.930169 H          1 MOL1         0.0752
      13    C5      18.774622   19.707197   23.558026 C.3        1 MOL1        -0.1858
      14    H7      18.089792   19.314319   22.794152 H          1 MOL1         0.0752
      15    H8      18.170517   20.343486   24.219126 H          1 MOL1         0.0752
      16    C6      19.864485   20.573725   22.885450 C.3        1 MOL1        -0.1858
      17    H9      20.430476   19.970563   22.163800 H          1 MOL1         0.0752
      18    H10     20.578911   20.919590   23.644968 H          1 MOL1         0.0752
      19    C7      19.256483   21.791372   22.157839 C.3        1 MOL1        -0.1834
      20    H11     18.539880   21.448792   21.398512 H          1 MOL1         0.0752
      21    H12     18.694010   22.407844   22.872689 H          1 MOL1         0.0752
      22    C8      20.344161   22.652402   21.484559 C.3        1 MOL1        -0.2849
      23    H13     20.902102   22.069120   20.740338 H          1 MOL1         0.0764
      24    H14     19.894519   23.513188   20.972772 H          1 MOL1         0.0764
      25    H15     21.057976   23.033991   22.226340 H          1 MOL1         0.0764
@<TRIPOS>BOND
    1     1     2    1
    2     1     3    2
    3     1     4    1
    4     4     5    1
    5     4     6    1
    6     4     7    1
    7     7     8    1
    8     7     9    1
    9     7    10    1
   10    10    11    1
   11    10    12    1
   12    10    13    1
   13    13    14    1
   14    13    15    1
   15    13    16    1
   16    16    17    1
   17    16    18    1
   18    16    19    1
   19    19    20    1
   20    19    21    1
   21    19    22    1
   22    22    23    1
   23    22    24    1
   24    22    25    1
@<TRIPOS>SUBSTRUCTURE
       1 MOL1            1 RESIDUE      1      MOL     
@<SCITEGIC>MOL_PROPERTY
VConf Rank
SciTegic.value.IntegerValue
170

@<SCITEGIC>MOL_PROPERTY
Conf_Id
SciTegic.value.IntegerValue
142

@<SCITEGIC>MOL_PROPERTY
Delta U+W
SciTegic.value.DoubleValue
0.593

@<SCITEGIC>MOL_PROPERTY
U+W
SciTegic.value.DoubleValue
-51.037

@<SCITEGIC>MOL_PROPERTY
Grad RMS
SciTegic.value.DoubleValue
0.000000

@<SCITEGIC>MOL_PROPERTY
U
SciTegic.value.DoubleValue
8.903

@<SCITEGIC>MOL_PROPERTY
W
SciTegic.value.DoubleValue
-59.940

@<SCITEGIC>MOL_PROPERTY
W(PB)
SciTegic.value.DoubleValue
-62.418

@<SCITEGIC>MOL_PROPERTY
W(SA)
SciTegic.value.DoubleValue
2.478

@<SCITEGIC>MOL_PROPERTY
Valence
SciTegic.value.DoubleValue
8.305

@<SCITEGIC>MOL_PROPERTY
Coulomb
SciTegic.value.DoubleValue
-0.223

@<SCITEGIC>MOL_PROPERTY
VdW
SciTegic.value.DoubleValue
0.821

@<SCITEGIC>MOL_PROPERTY
VdW6
SciTegic.value.DoubleValue
-9.236

@<SCITEGIC>MOL_PROPERTY
VdW12
SciTegic.value.DoubleValue
10.057

@<SCITEGIC>MOL_PROPERTY
Bond
SciTegic.value.DoubleValue
0.173

@<SCITEGIC>MOL_PROPERTY
Angle
SciTegic.value.DoubleValue
2.663

@<SCITEGIC>MOL_PROPERTY
Pdih
SciTegic.value.DoubleValue
5.469

@<SCITEGIC>MOL_PROPERTY
Idih
SciTegic.value.DoubleValue
0.001

@<SCITEGIC>MOL_PROPERTY
Tether
SciTegic.value.DoubleValue
0.000

@<TRIPOS>MOLECULE
guest-8_confgen4.mol2 : confsearch ligand conformer 171
          25          24           1
SMALL
USER_CHARGES
 
@<TRIPOS>ATOM
       1    C1      23.563312   18.235331   22.700565 C.2        1 MOL1         0.6168
       2    O1      24.283117   18.064483   21.736070 O.co2      1 MOL1        -0.6703
       3    O2      23.920641   18.804154   23.713389 O.co2      1 MOL1        -0.6703
       4    C2      22.142961   17.680011   22.644357 C.3        1 MOL1        -0.1963
       5    H1      21.730866   17.665486   23.659869 H          1 MOL1         0.0750
       6    H2      22.213872   16.634431   22.323025 H          1 MOL1         0.0750
       7    C3      21.198488   18.450922   21.682173 C.3        1 MOL1        -0.1860
       8    H3      21.605438   18.387057   20.663600 H          1 MOL1         0.0752
       9    H4      20.224893   17.945106   21.648841 H          1 MOL1         0.0752
      10    C4      20.997951   19.945761   22.042569 C.3        1 MOL1        -0.1858
      11    H5      20.323791   20.399303   21.303377 H          1 MOL1         0.0752
      12    H6      21.957365   20.470676   21.937331 H          1 MOL1         0.0752
      13    C5      20.439778   20.215251   23.462479 C.3        1 MOL1        -0.1858
      14    H7      21.156942   19.867169   24.217906 H          1 MOL1         0.0752
      15    H8      20.358388   21.301913   23.600589 H          1 MOL1         0.0752
      16    C6      19.056974   19.571494   23.715651 C.3        1 MOL1        -0.1858
      17    H9      19.137051   18.478453   23.652781 H          1 MOL1         0.0752
      18    H10     18.355455   19.888381   22.931987 H          1 MOL1         0.0752
      19    C7      18.493277   19.956794   25.099568 C.3        1 MOL1        -0.1834
      20    H11     19.194899   19.642997   25.884891 H          1 MOL1         0.0752
      21    H12     18.401235   21.049374   25.171472 H          1 MOL1         0.0752
      22    C8      17.117048   19.309145   25.353017 C.3        1 MOL1        -0.2849
      23    H13     17.186127   18.213963   25.318791 H          1 MOL1         0.0764
      24    H14     16.731475   19.593736   26.340629 H          1 MOL1         0.0764
      25    H15     16.386999   19.630371   24.598567 H          1 MOL1         0.0764
@<TRIPOS>BOND
    1     1     2    1
    2     1     3    2
    3     1     4    1
    4     4     5    1
    5     4     6    1
    6     4     7    1
    7     7     8    1
    8     7     9    1
    9     7    10    1
   10    10    11    1
   11    10    12    1
   12    10    13    1
   13    13    14    1
   14    13    15    1
   15    13    16    1
   16    16    17    1
   17    16    18    1
   18    16    19    1
   19    19    20    1
   20    19    21    1
   21    19    22    1
   22    22    23    1
   23    22    24    1
   24    22    25    1
@<TRIPOS>SUBSTRUCTURE
       1 MOL1            1 RESIDUE      1      MOL     
@<SCITEGIC>MOL_PROPERTY
VConf Rank
SciTegic.value.IntegerValue
171

@<SCITEGIC>MOL_PROPERTY
Conf_Id
SciTegic.value.IntegerValue
135

@<SCITEGIC>MOL_PROPERTY
Delta U+W
SciTegic.value.DoubleValue
1.314

@<SCITEGIC>MOL_PROPERTY
U+W
SciTegic.value.DoubleValue
-50.316

@<SCITEGIC>MOL_PROPERTY
Grad RMS
SciTegic.value.DoubleValue
0.000000

@<SCITEGIC>MOL_PROPERTY
U
SciTegic.value.DoubleValue
9.773

@<SCITEGIC>MOL_PROPERTY
W
SciTegic.value.DoubleValue
-60.088

@<SCITEGIC>MOL_PROPERTY
W(PB)
SciTegic.value.DoubleValue
-62.535

@<SCITEGIC>MOL_PROPERTY
W(SA)
SciTegic.value.DoubleValue
2.447

@<SCITEGIC>MOL_PROPERTY
Valence
SciTegic.value.DoubleValue
8.741

@<SCITEGIC>MOL_PROPERTY
Coulomb
SciTegic.value.DoubleValue
0.479

@<SCITEGIC>MOL_PROPERTY
VdW
SciTegic.value.DoubleValue
0.552

@<SCITEGIC>MOL_PROPERTY
VdW6
SciTegic.value.DoubleValue
-10.627

@<SCITEGIC>MOL_PROPERTY
VdW12
SciTegic.value.DoubleValue
11.179

@<SCITEGIC>MOL_PROPERTY
Bond
SciTegic.value.DoubleValue
0.227

@<SCITEGIC>MOL_PROPERTY
Angle
SciTegic.value.DoubleValue
3.155

@<SCITEGIC>MOL_PROPERTY
Pdih
SciTegic.value.DoubleValue
5.358

@<SCITEGIC>MOL_PROPERTY
Idih
SciTegic.value.DoubleValue
0.001

@<SCITEGIC>MOL_PROPERTY
Tether
SciTegic.value.DoubleValue
0.000

@<TRIPOS>MOLECULE
guest-8_confgen4.mol2 : confsearch ligand conformer 172
          25          24           1
SMALL
USER_CHARGES
 
@<TRIPOS>ATOM
       1    C1      15.940813   19.627519   23.837487 C.2        1 MOL1         0.6168
       2    O1      15.475694   18.830285   24.627944 O.co2      1 MOL1        -0.6703
       3    O2      15.390560   20.665158   23.525562 O.co2      1 MOL1        -0.6703
       4    C2      17.300389   19.319929   23.220133 C.3        1 MOL1        -0.1963
       5    H1      17.321965   19.753068   22.213021 H          1 MOL1         0.0750
       6    H2      17.376092   18.232732   23.108581 H          1 MOL1         0.0750
       7    C3      18.479781   19.869622   24.064349 C.3        1 MOL1        -0.1860
       8    H3      18.316831   20.942637   24.236200 H          1 MOL1         0.0752
       9    H4      18.477403   19.393656   25.054668 H          1 MOL1         0.0752
      10    C4      19.862923   19.681894   23.396060 C.3        1 MOL1        -0.1858
      11    H5      20.601187   20.235681   23.989588 H          1 MOL1         0.0752
      12    H6      19.855140   20.136475   22.396124 H          1 MOL1         0.0752
      13    C5      20.304344   18.202081   23.297257 C.3        1 MOL1        -0.1858
      14    H7      20.366510   17.772343   24.306244 H          1 MOL1         0.0752
      15    H8      19.538988   17.625477   22.763185 H          1 MOL1         0.0752
      16    C6      21.652755   17.989361   22.563767 C.3        1 MOL1        -0.1858
      17    H9      21.572442   18.330882   21.522700 H          1 MOL1         0.0752
      18    H10     21.831227   16.906768   22.508888 H          1 MOL1         0.0752
      19    C7      22.876898   18.644863   23.250785 C.3        1 MOL1        -0.1834
      20    H11     22.700796   18.743392   24.330838 H          1 MOL1         0.0752
      21    H12     23.741266   17.975181   23.142648 H          1 MOL1         0.0752
      22    C8      23.254384   20.013821   22.641913 C.3        1 MOL1        -0.2849
      23    H13     22.435126   20.737113   22.724269 H          1 MOL1         0.0764
      24    H14     24.127382   20.435501   23.156567 H          1 MOL1         0.0764
      25    H15     23.508821   19.910937   21.579012 H          1 MOL1         0.0764
@<TRIPOS>BOND
    1     1     2    1
    2     1     3    2
    3     1     4    1
    4     4     5    1
    5     4     6    1
    6     4     7    1
    7     7     8    1
    8     7     9    1
    9     7    10    1
   10    10    11    1
   11    10    12    1
   12    10    13    1
   13    13    14    1
   14    13    15    1
   15    13    16    1
   16    16    17    1
   17    16    18    1
   18    16    19    1
   19    19    20    1
   20    19    21    1
   21    19    22    1
   22    22    23    1
   23    22    24    1
   24    22    25    1
@<TRIPOS>SUBSTRUCTURE
       1 MOL1            1 RESIDUE      1      MOL     
@<SCITEGIC>MOL_PROPERTY
VConf Rank
SciTegic.value.IntegerValue
172

@<SCITEGIC>MOL_PROPERTY
Conf_Id
SciTegic.value.IntegerValue
19

@<SCITEGIC>MOL_PROPERTY
Delta U+W
SciTegic.value.DoubleValue
3.222

@<SCITEGIC>MOL_PROPERTY
U+W
SciTegic.value.DoubleValue
-48.407

@<SCITEGIC>MOL_PROPERTY
Grad RMS
SciTegic.value.DoubleValue
0.000000

@<SCITEGIC>MOL_PROPERTY
U
SciTegic.value.DoubleValue
10.617

@<SCITEGIC>MOL_PROPERTY
W
SciTegic.value.DoubleValue
-59.025

@<SCITEGIC>MOL_PROPERTY
W(PB)
SciTegic.value.DoubleValue
-61.462

@<SCITEGIC>MOL_PROPERTY
W(SA)
SciTegic.value.DoubleValue
2.437

@<SCITEGIC>MOL_PROPERTY
Valence
SciTegic.value.DoubleValue
11.188

@<SCITEGIC>MOL_PROPERTY
Coulomb
SciTegic.value.DoubleValue
-1.778

@<SCITEGIC>MOL_PROPERTY
VdW
SciTegic.value.DoubleValue
1.208

@<SCITEGIC>MOL_PROPERTY
VdW6
SciTegic.value.DoubleValue
-9.786

@<SCITEGIC>MOL_PROPERTY
VdW12
SciTegic.value.DoubleValue
10.993

@<SCITEGIC>MOL_PROPERTY
Bond
SciTegic.value.DoubleValue
0.241

@<SCITEGIC>MOL_PROPERTY
Angle
SciTegic.value.DoubleValue
3.294

@<SCITEGIC>MOL_PROPERTY
Pdih
SciTegic.value.DoubleValue
7.653

@<SCITEGIC>MOL_PROPERTY
Idih
SciTegic.value.DoubleValue
0.001

@<SCITEGIC>MOL_PROPERTY
Tether
SciTegic.value.DoubleValue
0.000

@<TRIPOS>MOLECULE
guest-8_confgen4.mol2 : confsearch ligand conformer 173
          25          24           1
SMALL
USER_CHARGES
 
@<TRIPOS>ATOM
       1    C1      21.941107   21.141567   20.008288 C.2        1 MOL1         0.6168
       2    O1      21.618996   20.691847   18.926282 O.co2      1 MOL1        -0.6703
       3    O2      22.943333   21.804258   20.190368 O.co2      1 MOL1        -0.6703
       4    C2      21.051007   20.838098   21.208209 C.3        1 MOL1        -0.1963
       5    H1      20.016883   20.787488   20.850161 H          1 MOL1         0.0750
       6    H2      21.114720   21.685389   21.901309 H          1 MOL1         0.0750
       7    C3      21.447588   19.524410   21.931242 C.3        1 MOL1        -0.1860
       8    H3      21.334174   18.675927   21.242406 H          1 MOL1         0.0752
       9    H4      22.514944   19.574551   22.187533 H          1 MOL1         0.0752
      10    C4      20.641726   19.259850   23.225665 C.3        1 MOL1        -0.1858
      11    H5      20.736051   20.120070   23.902205 H          1 MOL1         0.0752
      12    H6      21.098703   18.403439   23.737251 H          1 MOL1         0.0752
      13    C5      19.146608   18.953994   22.969663 C.3        1 MOL1        -0.1858
      14    H7      18.696285   19.775443   22.398781 H          1 MOL1         0.0752
      15    H8      19.060667   18.057519   22.340741 H          1 MOL1         0.0752
      16    C6      18.308453   18.760156   24.258616 C.3        1 MOL1        -0.1858
      17    H9      17.264684   18.604878   23.953156 H          1 MOL1         0.0752
      18    H10     18.310638   19.685230   24.851185 H          1 MOL1         0.0752
      19    C7      18.736616   17.558541   25.137821 C.3        1 MOL1        -0.1834
      20    H11     17.835206   17.091074   25.557626 H          1 MOL1         0.0752
      21    H12     19.220712   16.788328   24.521659 H          1 MOL1         0.0752
      22    C8      19.656180   17.962157   26.312027 C.3        1 MOL1        -0.2849
      23    H13     19.149427   18.673080   26.977513 H          1 MOL1         0.0764
      24    H14     19.928335   17.080965   26.907207 H          1 MOL1         0.0764
      25    H15     20.583602   18.429716   25.962175 H          1 MOL1         0.0764
@<TRIPOS>BOND
    1     1     2    1
    2     1     3    2
    3     1     4    1
    4     4     5    1
    5     4     6    1
    6     4     7    1
    7     7     8    1
    8     7     9    1
    9     7    10    1
   10    10    11    1
   11    10    12    1
   12    10    13    1
   13    13    14    1
   14    13    15    1
   15    13    16    1
   16    16    17    1
   17    16    18    1
   18    16    19    1
   19    19    20    1
   20    19    21    1
   21    19    22    1
   22    22    23    1
   23    22    24    1
   24    22    25    1
@<TRIPOS>SUBSTRUCTURE
       1 MOL1            1 RESIDUE      1      MOL     
@<SCITEGIC>MOL_PROPERTY
VConf Rank
SciTegic.value.IntegerValue
173

@<SCITEGIC>MOL_PROPERTY
Conf_Id
SciTegic.value.IntegerValue
20

@<SCITEGIC>MOL_PROPERTY
Delta U+W
SciTegic.value.DoubleValue
3.224

@<SCITEGIC>MOL_PROPERTY
U+W
SciTegic.value.DoubleValue
-48.406

@<SCITEGIC>MOL_PROPERTY
Grad RMS
SciTegic.value.DoubleValue
0.000000

@<SCITEGIC>MOL_PROPERTY
U
SciTegic.value.DoubleValue
10.617

@<SCITEGIC>MOL_PROPERTY
W
SciTegic.value.DoubleValue
-59.023

@<SCITEGIC>MOL_PROPERTY
W(PB)
SciTegic.value.DoubleValue
-61.467

@<SCITEGIC>MOL_PROPERTY
W(SA)
SciTegic.value.DoubleValue
2.444

@<SCITEGIC>MOL_PROPERTY
Valence
SciTegic.value.DoubleValue
11.188

@<SCITEGIC>MOL_PROPERTY
Coulomb
SciTegic.value.DoubleValue
-1.778

@<SCITEGIC>MOL_PROPERTY
VdW
SciTegic.value.DoubleValue
1.208

@<SCITEGIC>MOL_PROPERTY
VdW6
SciTegic.value.DoubleValue
-9.786

@<SCITEGIC>MOL_PROPERTY
VdW12
SciTegic.value.DoubleValue
10.993

@<SCITEGIC>MOL_PROPERTY
Bond
SciTegic.value.DoubleValue
0.241

@<SCITEGIC>MOL_PROPERTY
Angle
SciTegic.value.DoubleValue
3.294

@<SCITEGIC>MOL_PROPERTY
Pdih
SciTegic.value.DoubleValue
7.653

@<SCITEGIC>MOL_PROPERTY
Idih
SciTegic.value.DoubleValue
0.001

@<SCITEGIC>MOL_PROPERTY
Tether
SciTegic.value.DoubleValue
0.000

@<TRIPOS>MOLECULE
guest-8_confgen4.mol2 : confsearch ligand conformer 174
          25          24           1
SMALL
USER_CHARGES
 
@<TRIPOS>ATOM
       1    C1      17.667970   19.268981   25.876821 C.2        1 MOL1         0.6168
       2    O1      17.664256   20.391928   26.342248 O.co2      1 MOL1        -0.6703
       3    O2      18.200378   18.320214   26.418670 O.co2      1 MOL1        -0.6703
       4    C2      16.907656   19.021071   24.575339 C.3        1 MOL1        -0.1963
       5    H1      15.853678   19.232812   24.789263 H          1 MOL1         0.0750
       6    H2      16.968909   17.955266   24.324148 H          1 MOL1         0.0750
       7    C3      17.362218   19.886404   23.366339 C.3        1 MOL1        -0.1860
       8    H3      16.545437   19.898718   22.632073 H          1 MOL1         0.0752
       9    H4      17.499238   20.929743   23.682981 H          1 MOL1         0.0752
      10    C4      18.636008   19.378435   22.646262 C.3        1 MOL1        -0.1858
      11    H5      18.770466   19.970838   21.730859 H          1 MOL1         0.0752
      12    H6      18.487998   18.339242   22.322217 H          1 MOL1         0.0752
      13    C5      19.922926   19.479015   23.496176 C.3        1 MOL1        -0.1858
      14    H7      20.015519   20.493865   23.906729 H          1 MOL1         0.0752
      15    H8      19.860991   18.791447   24.349064 H          1 MOL1         0.0752
      16    C6      21.181730   19.138344   22.669178 C.3        1 MOL1        -0.1858
      17    H9      21.258990   19.826397   21.816195 H          1 MOL1         0.0752
      18    H10     21.085180   18.125137   22.255510 H          1 MOL1         0.0752
      19    C7      22.466188   19.227376   23.519834 C.3        1 MOL1        -0.1834
      20    H11     22.566119   20.240059   23.934498 H          1 MOL1         0.0752
      21    H12     22.393268   18.539056   24.373358 H          1 MOL1         0.0752
      22    C8      23.721329   18.886190   22.691654 C.3        1 MOL1        -0.2849
      23    H13     23.836046   19.579868   21.848433 H          1 MOL1         0.0764
      24    H14     24.624459   18.954439   23.311945 H          1 MOL1         0.0764
      25    H15     23.661857   17.865878   22.290654 H          1 MOL1         0.0764
@<TRIPOS>BOND
    1     1     2    1
    2     1     3    2
    3     1     4    1
    4     4     5    1
    5     4     6    1
    6     4     7    1
    7     7     8    1
    8     7     9    1
    9     7    10    1
   10    10    11    1
   11    10    12    1
   12    10    13    1
   13    13    14    1
   14    13    15    1
   15    13    16    1
   16    16    17    1
   17    16    18    1
   18    16    19    1
   19    19    20    1
   20    19    21    1
   21    19    22    1
   22    22    23    1
   23    22    24    1
   24    22    25    1
@<TRIPOS>SUBSTRUCTURE
       1 MOL1            1 RESIDUE      1      MOL     
@<SCITEGIC>MOL_PROPERTY
VConf Rank
SciTegic.value.IntegerValue
174

@<SCITEGIC>MOL_PROPERTY
Conf_Id
SciTegic.value.IntegerValue
24

@<SCITEGIC>MOL_PROPERTY
Delta U+W
SciTegic.value.DoubleValue
1.784

@<SCITEGIC>MOL_PROPERTY
U+W
SciTegic.value.DoubleValue
-49.846

@<SCITEGIC>MOL_PROPERTY
Grad RMS
SciTegic.value.DoubleValue
0.000000

@<SCITEGIC>MOL_PROPERTY
U
SciTegic.value.DoubleValue
10.904

@<SCITEGIC>MOL_PROPERTY
W
SciTegic.value.DoubleValue
-60.749

@<SCITEGIC>MOL_PROPERTY
W(PB)
SciTegic.value.DoubleValue
-63.220

@<SCITEGIC>MOL_PROPERTY
W(SA)
SciTegic.value.DoubleValue
2.471

@<SCITEGIC>MOL_PROPERTY
Valence
SciTegic.value.DoubleValue
9.445

@<SCITEGIC>MOL_PROPERTY
Coulomb
SciTegic.value.DoubleValue
0.780

@<SCITEGIC>MOL_PROPERTY
VdW
SciTegic.value.DoubleValue
0.679

@<SCITEGIC>MOL_PROPERTY
VdW6
SciTegic.value.DoubleValue
-10.008

@<SCITEGIC>MOL_PROPERTY
VdW12
SciTegic.value.DoubleValue
10.687

@<SCITEGIC>MOL_PROPERTY
Bond
SciTegic.value.DoubleValue
0.201

@<SCITEGIC>MOL_PROPERTY
Angle
SciTegic.value.DoubleValue
3.198

@<SCITEGIC>MOL_PROPERTY
Pdih
SciTegic.value.DoubleValue
6.039

@<SCITEGIC>MOL_PROPERTY
Idih
SciTegic.value.DoubleValue
0.006

@<SCITEGIC>MOL_PROPERTY
Tether
SciTegic.value.DoubleValue
0.000

@<TRIPOS>MOLECULE
guest-8_confgen4.mol2 : confsearch ligand conformer 175
          25          24           1
SMALL
USER_CHARGES
 
@<TRIPOS>ATOM
       1    C1      17.025428   18.324893   23.368391 C.2        1 MOL1         0.6168
       2    O1      16.440481   19.305253   23.785973 O.co2      1 MOL1        -0.6703
       3    O2      17.136321   18.062846   22.186760 O.co2      1 MOL1        -0.6703
       4    C2      17.594371   17.333709   24.381924 C.3        1 MOL1        -0.1963
       5    H1      18.040326   16.489094   23.842911 H          1 MOL1         0.0750
       6    H2      16.737450   16.934478   24.936693 H          1 MOL1         0.0750
       7    C3      18.616782   17.929420   25.390342 C.3        1 MOL1        -0.1860
       8    H3      18.248322   18.891369   25.773076 H          1 MOL1         0.0752
       9    H4      18.666934   17.258506   26.258552 H          1 MOL1         0.0752
      10    C4      20.054336   18.093474   24.837521 C.3        1 MOL1        -0.1858
      11    H5      20.420899   17.126136   24.467759 H          1 MOL1         0.0752
      12    H6      20.711586   18.373888   25.672011 H          1 MOL1         0.0752
      13    C5      20.183849   19.157714   23.724307 C.3        1 MOL1        -0.1858
      14    H7      19.638371   18.830210   22.830326 H          1 MOL1         0.0752
      15    H8      19.722241   20.097571   24.056925 H          1 MOL1         0.0752
      16    C6      21.659197   19.411342   23.345373 C.3        1 MOL1        -0.1858
      17    H9      22.120405   18.469559   23.017713 H          1 MOL1         0.0752
      18    H10     22.214104   19.748216   24.231691 H          1 MOL1         0.0752
      19    C7      21.788983   20.465494   22.225868 C.3        1 MOL1        -0.1834
      20    H11     21.236485   20.131059   21.336766 H          1 MOL1         0.0752
      21    H12     21.329122   21.409104   22.550809 H          1 MOL1         0.0752
      22    C8      23.263075   20.716370   21.849329 C.3        1 MOL1        -0.2849
      23    H13     23.739134   19.794425   21.490499 H          1 MOL1         0.0764
      24    H14     23.336326   21.467901   21.052523 H          1 MOL1         0.0764
      25    H15     23.832480   21.082272   22.713775 H          1 MOL1         0.0764
@<TRIPOS>BOND
    1     1     2    1
    2     1     3    2
    3     1     4    1
    4     4     5    1
    5     4     6    1
    6     4     7    1
    7     7     8    1
    8     7     9    1
    9     7    10    1
   10    10    11    1
   11    10    12    1
   12    10    13    1
   13    13    14    1
   14    13    15    1
   15    13    16    1
   16    16    17    1
   17    16    18    1
   18    16    19    1
   19    19    20    1
   20    19    21    1
   21    19    22    1
   22    22    23    1
   23    22    24    1
   24    22    25    1
@<TRIPOS>SUBSTRUCTURE
       1 MOL1            1 RESIDUE      1      MOL     
@<SCITEGIC>MOL_PROPERTY
VConf Rank
SciTegic.value.IntegerValue
175

@<SCITEGIC>MOL_PROPERTY
Conf_Id
SciTegic.value.IntegerValue
9

@<SCITEGIC>MOL_PROPERTY
Delta U+W
SciTegic.value.DoubleValue
1.764

@<SCITEGIC>MOL_PROPERTY
U+W
SciTegic.value.DoubleValue
-49.865

@<SCITEGIC>MOL_PROPERTY
Grad RMS
SciTegic.value.DoubleValue
0.000000

@<SCITEGIC>MOL_PROPERTY
U
SciTegic.value.DoubleValue
10.902

@<SCITEGIC>MOL_PROPERTY
W
SciTegic.value.DoubleValue
-60.768

@<SCITEGIC>MOL_PROPERTY
W(PB)
SciTegic.value.DoubleValue
-63.223

@<SCITEGIC>MOL_PROPERTY
W(SA)
SciTegic.value.DoubleValue
2.456

@<SCITEGIC>MOL_PROPERTY
Valence
SciTegic.value.DoubleValue
9.445

@<SCITEGIC>MOL_PROPERTY
Coulomb
SciTegic.value.DoubleValue
0.778

@<SCITEGIC>MOL_PROPERTY
VdW
SciTegic.value.DoubleValue
0.679

@<SCITEGIC>MOL_PROPERTY
VdW6
SciTegic.value.DoubleValue
-10.007

@<SCITEGIC>MOL_PROPERTY
VdW12
SciTegic.value.DoubleValue
10.687

@<SCITEGIC>MOL_PROPERTY
Bond
SciTegic.value.DoubleValue
0.201

@<SCITEGIC>MOL_PROPERTY
Angle
SciTegic.value.DoubleValue
3.198

@<SCITEGIC>MOL_PROPERTY
Pdih
SciTegic.value.DoubleValue
6.040

@<SCITEGIC>MOL_PROPERTY
Idih
SciTegic.value.DoubleValue
0.006

@<SCITEGIC>MOL_PROPERTY
Tether
SciTegic.value.DoubleValue
0.000

@<TRIPOS>MOLECULE
guest-8_confgen4.mol2 : confsearch ligand conformer 176
          25          24           1
SMALL
USER_CHARGES
 
@<TRIPOS>ATOM
       1    C1      23.240505   19.914031   21.809443 C.2        1 MOL1         0.6168
       2    O1      23.849395   19.395039   22.724050 O.co2      1 MOL1        -0.6703
       3    O2      23.738703   20.177584   20.732788 O.co2      1 MOL1        -0.6703
       4    C2      21.764512   20.233744   22.016670 C.3        1 MOL1        -0.1963
       5    H1      21.530338   21.136912   21.440729 H          1 MOL1         0.0750
       6    H2      21.621220   20.482813   23.072556 H          1 MOL1         0.0750
       7    C3      20.832747   19.070821   21.584153 C.3        1 MOL1        -0.1860
       8    H3      21.014791   18.870808   20.519122 H          1 MOL1         0.0752
       9    H4      21.104065   18.149792   22.118480 H          1 MOL1         0.0752
      10    C4      19.326635   19.380362   21.779349 C.3        1 MOL1        -0.1858
      11    H5      18.771495   18.904645   20.959331 H          1 MOL1         0.0752
      12    H6      19.142491   20.458614   21.677846 H          1 MOL1         0.0752
      13    C5      18.726822   18.859861   23.109787 C.3        1 MOL1        -0.1858
      14    H7      17.646584   19.058798   23.102162 H          1 MOL1         0.0752
      15    H8      18.839970   17.768558   23.150780 H          1 MOL1         0.0752
      16    C6      19.345064   19.495990   24.377181 C.3        1 MOL1        -0.1858
      17    H9      19.366576   20.587613   24.257625 H          1 MOL1         0.0752
      18    H10     20.386534   19.166704   24.487450 H          1 MOL1         0.0752
      19    C7      18.570324   19.156923   25.671919 C.3        1 MOL1        -0.1834
      20    H11     19.010729   19.721987   26.504932 H          1 MOL1         0.0752
      21    H12     17.529637   19.497664   25.581928 H          1 MOL1         0.0752
      22    C8      18.595895   17.653034   26.021188 C.3        1 MOL1        -0.2849
      23    H13     19.627333   17.283813   26.091593 H          1 MOL1         0.0764
      24    H14     18.106034   17.474543   26.987121 H          1 MOL1         0.0764
      25    H15     18.067954   17.057957   25.265520 H          1 MOL1         0.0764
@<TRIPOS>BOND
    1     1     2    1
    2     1     3    2
    3     1     4    1
    4     4     5    1
    5     4     6    1
    6     4     7    1
    7     7     8    1
    8     7     9    1
    9     7    10    1
   10    10    11    1
   11    10    12    1
   12    10    13    1
   13    13    14    1
   14    13    15    1
   15    13    16    1
   16    16    17    1
   17    16    18    1
   18    16    19    1
   19    19    20    1
   20    19    21    1
   21    19    22    1
   22    22    23    1
   23    22    24    1
   24    22    25    1
@<TRIPOS>SUBSTRUCTURE
       1 MOL1            1 RESIDUE      1      MOL     
@<SCITEGIC>MOL_PROPERTY
VConf Rank
SciTegic.value.IntegerValue
176

@<SCITEGIC>MOL_PROPERTY
Conf_Id
SciTegic.value.IntegerValue
89

@<SCITEGIC>MOL_PROPERTY
Delta U+W
SciTegic.value.DoubleValue
2.903

@<SCITEGIC>MOL_PROPERTY
U+W
SciTegic.value.DoubleValue
-48.726

@<SCITEGIC>MOL_PROPERTY
Grad RMS
SciTegic.value.DoubleValue
0.000000

@<SCITEGIC>MOL_PROPERTY
U
SciTegic.value.DoubleValue
10.996

@<SCITEGIC>MOL_PROPERTY
W
SciTegic.value.DoubleValue
-59.723

@<SCITEGIC>MOL_PROPERTY
W(PB)
SciTegic.value.DoubleValue
-62.151

@<SCITEGIC>MOL_PROPERTY
W(SA)
SciTegic.value.DoubleValue
2.428

@<SCITEGIC>MOL_PROPERTY
Valence
SciTegic.value.DoubleValue
10.985

@<SCITEGIC>MOL_PROPERTY
Coulomb
SciTegic.value.DoubleValue
-0.995

@<SCITEGIC>MOL_PROPERTY
VdW
SciTegic.value.DoubleValue
1.006

@<SCITEGIC>MOL_PROPERTY
VdW6
SciTegic.value.DoubleValue
-10.062

@<SCITEGIC>MOL_PROPERTY
VdW12
SciTegic.value.DoubleValue
11.069

@<SCITEGIC>MOL_PROPERTY
Bond
SciTegic.value.DoubleValue
0.238

@<SCITEGIC>MOL_PROPERTY
Angle
SciTegic.value.DoubleValue
3.202

@<SCITEGIC>MOL_PROPERTY
Pdih
SciTegic.value.DoubleValue
7.544

@<SCITEGIC>MOL_PROPERTY
Idih
SciTegic.value.DoubleValue
0.001

@<SCITEGIC>MOL_PROPERTY
Tether
SciTegic.value.DoubleValue
0.000

@<TRIPOS>MOLECULE
guest-8_confgen4.mol2 : confsearch ligand conformer 177
          25          24           1
SMALL
USER_CHARGES
 
@<TRIPOS>ATOM
       1    C1      19.815673   21.900606   25.407949 C.2        1 MOL1         0.6168
       2    O1      19.910387   21.396017   26.509621 O.co2      1 MOL1        -0.6703
       3    O2      20.633077   22.677207   24.953691 O.co2      1 MOL1        -0.6703
       4    C2      18.570598   21.590943   24.579008 C.3        1 MOL1        -0.1963
       5    H1      18.030094   22.538387   24.470918 H          1 MOL1         0.0750
       6    H2      17.917831   20.921218   25.151838 H          1 MOL1         0.0750
       7    C3      18.843029   21.000604   23.166613 C.3        1 MOL1        -0.1860
       8    H3      17.953696   21.181483   22.547893 H          1 MOL1         0.0752
       9    H4      19.663397   21.548555   22.682547 H          1 MOL1         0.0752
      10    C4      19.132173   19.478886   23.140064 C.3        1 MOL1        -0.1858
      11    H5      19.135385   19.159800   22.090448 H          1 MOL1         0.0752
      12    H6      18.308310   18.937867   23.624935 H          1 MOL1         0.0752
      13    C5      20.474920   19.081164   23.799783 C.3        1 MOL1        -0.1858
      14    H7      21.294942   19.664778   23.359638 H          1 MOL1         0.0752
      15    H8      20.444653   19.340125   24.865081 H          1 MOL1         0.0752
      16    C6      20.793700   17.570575   23.690804 C.3        1 MOL1        -0.1858
      17    H9      19.958453   16.987189   24.101717 H          1 MOL1         0.0752
      18    H10     21.664155   17.354633   24.325296 H          1 MOL1         0.0752
      19    C7      21.100134   17.102952   22.249670 C.3        1 MOL1        -0.1834
      20    H11     20.216092   17.231501   21.611958 H          1 MOL1         0.0752
      21    H12     21.898297   17.724211   21.820531 H          1 MOL1         0.0752
      22    C8      21.529945   15.622348   22.215463 C.3        1 MOL1        -0.2849
      23    H13     20.738416   14.974704   22.614721 H          1 MOL1         0.0764
      24    H14     21.740946   15.304538   21.186131 H          1 MOL1         0.0764
      25    H15     22.437595   15.462298   22.812036 H          1 MOL1         0.0764
@<TRIPOS>BOND
    1     1     2    1
    2     1     3    2
    3     1     4    1
    4     4     5    1
    5     4     6    1
    6     4     7    1
    7     7     8    1
    8     7     9    1
    9     7    10    1
   10    10    11    1
   11    10    12    1
   12    10    13    1
   13    13    14    1
   14    13    15    1
   15    13    16    1
   16    16    17    1
   17    16    18    1
   18    16    19    1
   19    19    20    1
   20    19    21    1
   21    19    22    1
   22    22    23    1
   23    22    24    1
   24    22    25    1
@<TRIPOS>SUBSTRUCTURE
       1 MOL1            1 RESIDUE      1      MOL     
@<SCITEGIC>MOL_PROPERTY
VConf Rank
SciTegic.value.IntegerValue
177

@<SCITEGIC>MOL_PROPERTY
Conf_Id
SciTegic.value.IntegerValue
114

@<SCITEGIC>MOL_PROPERTY
Delta U+W
SciTegic.value.DoubleValue
2.758

@<SCITEGIC>MOL_PROPERTY
U+W
SciTegic.value.DoubleValue
-48.871

@<SCITEGIC>MOL_PROPERTY
Grad RMS
SciTegic.value.DoubleValue
0.000000

@<SCITEGIC>MOL_PROPERTY
U
SciTegic.value.DoubleValue
11.422

@<SCITEGIC>MOL_PROPERTY
W
SciTegic.value.DoubleValue
-60.293

@<SCITEGIC>MOL_PROPERTY
W(PB)
SciTegic.value.DoubleValue
-62.719

@<SCITEGIC>MOL_PROPERTY
W(SA)
SciTegic.value.DoubleValue
2.425

@<SCITEGIC>MOL_PROPERTY
Valence
SciTegic.value.DoubleValue
10.135

@<SCITEGIC>MOL_PROPERTY
Coulomb
SciTegic.value.DoubleValue
0.369

@<SCITEGIC>MOL_PROPERTY
VdW
SciTegic.value.DoubleValue
0.918

@<SCITEGIC>MOL_PROPERTY
VdW6
SciTegic.value.DoubleValue
-10.482

@<SCITEGIC>MOL_PROPERTY
VdW12
SciTegic.value.DoubleValue
11.400

@<SCITEGIC>MOL_PROPERTY
Bond
SciTegic.value.DoubleValue
0.245

@<SCITEGIC>MOL_PROPERTY
Angle
SciTegic.value.DoubleValue
3.539

@<SCITEGIC>MOL_PROPERTY
Pdih
SciTegic.value.DoubleValue
6.346

@<SCITEGIC>MOL_PROPERTY
Idih
SciTegic.value.DoubleValue
0.006

@<SCITEGIC>MOL_PROPERTY
Tether
SciTegic.value.DoubleValue
0.000

@<TRIPOS>MOLECULE
guest-8_confgen4.mol2 : confsearch ligand conformer 178
          25          24           1
SMALL
USER_CHARGES
 
@<TRIPOS>ATOM
       1    C1      22.723772   21.956568   23.170197 C.2        1 MOL1         0.6168
       2    O1      23.292851   21.810113   22.106354 O.co2      1 MOL1        -0.6703
       3    O2      22.059497   22.935489   23.448677 O.co2      1 MOL1        -0.6703
       4    C2      22.866727   20.861604   24.223556 C.3        1 MOL1        -0.1963
       5    H1      23.075897   21.352544   25.181264 H          1 MOL1         0.0750
       6    H2      23.746547   20.254008   23.979592 H          1 MOL1         0.0750
       7    C3      21.613889   19.958892   24.366681 C.3        1 MOL1        -0.1860
       8    H3      21.752753   19.289836   25.226525 H          1 MOL1         0.0752
       9    H4      20.745240   20.591117   24.592663 H          1 MOL1         0.0752
      10    C4      21.346435   19.112780   23.098683 C.3        1 MOL1        -0.1858
      11    H5      22.260822   18.561704   22.839731 H          1 MOL1         0.0752
      12    H6      21.132363   19.773058   22.246916 H          1 MOL1         0.0752
      13    C5      20.192279   18.095478   23.265134 C.3        1 MOL1        -0.1858
      14    H7      20.178123   17.451228   22.376919 H          1 MOL1         0.0752
      15    H8      20.399645   17.440209   24.121956 H          1 MOL1         0.0752
      16    C6      18.804600   18.760771   23.439130 C.3        1 MOL1        -0.1858
      17    H9      18.599356   19.418719   22.583758 H          1 MOL1         0.0752
      18    H10     18.815855   19.401918   24.329561 H          1 MOL1         0.0752
      19    C7      17.650720   17.742995   23.597657 C.3        1 MOL1        -0.1834
      20    H11     17.858308   17.075590   24.445457 H          1 MOL1         0.0752
      21    H12     16.732363   18.290084   23.851731 H          1 MOL1         0.0752
      22    C8      17.391528   16.904975   22.326654 C.3        1 MOL1        -0.2849
      23    H13     16.505638   16.270640   22.459777 H          1 MOL1         0.0764
      24    H14     17.215552   17.552708   21.457983 H          1 MOL1         0.0764
      25    H15     18.239053   16.246492   22.099702 H          1 MOL1         0.0764
@<TRIPOS>BOND
    1     1     2    1
    2     1     3    2
    3     1     4    1
    4     4     5    1
    5     4     6    1
    6     4     7    1
    7     7     8    1
    8     7     9    1
    9     7    10    1
   10    10    11    1
   11    10    12    1
   12    10    13    1
   13    13    14    1
   14    13    15    1
   15    13    16    1
   16    16    17    1
   17    16    18    1
   18    16    19    1
   19    19    20    1
   20    19    21    1
   21    19    22    1
   22    22    23    1
   23    22    24    1
   24    22    25    1
@<TRIPOS>SUBSTRUCTURE
       1 MOL1            1 RESIDUE      1      MOL     
@<SCITEGIC>MOL_PROPERTY
VConf Rank
SciTegic.value.IntegerValue
178

@<SCITEGIC>MOL_PROPERTY
Conf_Id
SciTegic.value.IntegerValue
87

@<SCITEGIC>MOL_PROPERTY
Delta U+W
SciTegic.value.DoubleValue
1.453

@<SCITEGIC>MOL_PROPERTY
U+W
SciTegic.value.DoubleValue
-50.176

@<SCITEGIC>MOL_PROPERTY
Grad RMS
SciTegic.value.DoubleValue
0.000000

@<SCITEGIC>MOL_PROPERTY
U
SciTegic.value.DoubleValue
9.763

@<SCITEGIC>MOL_PROPERTY
W
SciTegic.value.DoubleValue
-59.940

@<SCITEGIC>MOL_PROPERTY
W(PB)
SciTegic.value.DoubleValue
-62.392

@<SCITEGIC>MOL_PROPERTY
W(SA)
SciTegic.value.DoubleValue
2.452

@<SCITEGIC>MOL_PROPERTY
Valence
SciTegic.value.DoubleValue
8.883

@<SCITEGIC>MOL_PROPERTY
Coulomb
SciTegic.value.DoubleValue
-0.122

@<SCITEGIC>MOL_PROPERTY
VdW
SciTegic.value.DoubleValue
1.003

@<SCITEGIC>MOL_PROPERTY
VdW6
SciTegic.value.DoubleValue
-9.782

@<SCITEGIC>MOL_PROPERTY
VdW12
SciTegic.value.DoubleValue
10.785

@<SCITEGIC>MOL_PROPERTY
Bond
SciTegic.value.DoubleValue
0.212

@<SCITEGIC>MOL_PROPERTY
Angle
SciTegic.value.DoubleValue
2.940

@<SCITEGIC>MOL_PROPERTY
Pdih
SciTegic.value.DoubleValue
5.730

@<SCITEGIC>MOL_PROPERTY
Idih
SciTegic.value.DoubleValue
0.001

@<SCITEGIC>MOL_PROPERTY
Tether
SciTegic.value.DoubleValue
0.000

@<TRIPOS>MOLECULE
guest-8_confgen4.mol2 : confsearch ligand conformer 179
          25          24           1
SMALL
USER_CHARGES
 
@<TRIPOS>ATOM
       1    C1      22.899164   21.072775   25.280992 C.2        1 MOL1         0.6168
       2    O1      22.473735   21.067120   26.419264 O.co2      1 MOL1        -0.6703
       3    O2      24.082291   21.052741   25.004312 O.co2      1 MOL1        -0.6703
       4    C2      21.892467   21.087291   24.136214 C.3        1 MOL1        -0.1963
       5    H1      22.334362   21.643919   23.301123 H          1 MOL1         0.0750
       6    H2      21.008453   21.645628   24.466900 H          1 MOL1         0.0750
       7    C3      21.484592   19.666059   23.676120 C.3        1 MOL1        -0.1860
       8    H3      22.380407   19.116291   23.356101 H          1 MOL1         0.0752
       9    H4      21.063892   19.122697   24.532598 H          1 MOL1         0.0752
      10    C4      20.458616   19.709652   22.520222 C.3        1 MOL1        -0.1858
      11    H5      20.869031   20.315237   21.700803 H          1 MOL1         0.0752
      12    H6      19.546941   20.223873   22.851631 H          1 MOL1         0.0752
      13    C5      20.100668   18.310079   21.960395 C.3        1 MOL1        -0.1858
      14    H7      19.417557   18.432648   21.109681 H          1 MOL1         0.0752
      15    H8      21.009111   17.850934   21.547614 H          1 MOL1         0.0752
      16    C6      19.471252   17.328016   22.983727 C.3        1 MOL1        -0.1858
      17    H9      20.215448   17.075758   23.750411 H          1 MOL1         0.0752
      18    H10     19.244823   16.384417   22.469102 H          1 MOL1         0.0752
      19    C7      18.185273   17.836524   23.680726 C.3        1 MOL1        -0.1834
      20    H11     17.848813   17.072885   24.395257 H          1 MOL1         0.0752
      21    H12     18.407072   18.732381   24.275772 H          1 MOL1         0.0752
      22    C8      17.035025   18.136467   22.695330 C.3        1 MOL1        -0.2849
      23    H13     16.807548   17.257751   22.078038 H          1 MOL1         0.0764
      24    H14     16.123527   18.412372   23.241018 H          1 MOL1         0.0764
      25    H15     17.288940   18.969857   22.028297 H          1 MOL1         0.0764
@<TRIPOS>BOND
    1     1     2    1
    2     1     3    2
    3     1     4    1
    4     4     5    1
    5     4     6    1
    6     4     7    1
    7     7     8    1
    8     7     9    1
    9     7    10    1
   10    10    11    1
   11    10    12    1
   12    10    13    1
   13    13    14    1
   14    13    15    1
   15    13    16    1
   16    16    17    1
   17    16    18    1
   18    16    19    1
   19    19    20    1
   20    19    21    1
   21    19    22    1
   22    22    23    1
   23    22    24    1
   24    22    25    1
@<TRIPOS>SUBSTRUCTURE
       1 MOL1            1 RESIDUE      1      MOL     
@<SCITEGIC>MOL_PROPERTY
VConf Rank
SciTegic.value.IntegerValue
179

@<SCITEGIC>MOL_PROPERTY
Conf_Id
SciTegic.value.IntegerValue
29

@<SCITEGIC>MOL_PROPERTY
Delta U+W
SciTegic.value.DoubleValue
0.850

@<SCITEGIC>MOL_PROPERTY
U+W
SciTegic.value.DoubleValue
-50.780

@<SCITEGIC>MOL_PROPERTY
Grad RMS
SciTegic.value.DoubleValue
0.000000

@<SCITEGIC>MOL_PROPERTY
U
SciTegic.value.DoubleValue
8.646

@<SCITEGIC>MOL_PROPERTY
W
SciTegic.value.DoubleValue
-59.426

@<SCITEGIC>MOL_PROPERTY
W(PB)
SciTegic.value.DoubleValue
-61.868

@<SCITEGIC>MOL_PROPERTY
W(SA)
SciTegic.value.DoubleValue
2.442

@<SCITEGIC>MOL_PROPERTY
Valence
SciTegic.value.DoubleValue
8.924

@<SCITEGIC>MOL_PROPERTY
Coulomb
SciTegic.value.DoubleValue
-1.171

@<SCITEGIC>MOL_PROPERTY
VdW
SciTegic.value.DoubleValue
0.894

@<SCITEGIC>MOL_PROPERTY
VdW6
SciTegic.value.DoubleValue
-10.223

@<SCITEGIC>MOL_PROPERTY
VdW12
SciTegic.value.DoubleValue
11.117

@<SCITEGIC>MOL_PROPERTY
Bond
SciTegic.value.DoubleValue
0.231

@<SCITEGIC>MOL_PROPERTY
Angle
SciTegic.value.DoubleValue
3.232

@<SCITEGIC>MOL_PROPERTY
Pdih
SciTegic.value.DoubleValue
5.461

@<SCITEGIC>MOL_PROPERTY
Idih
SciTegic.value.DoubleValue
0.001

@<SCITEGIC>MOL_PROPERTY
Tether
SciTegic.value.DoubleValue
0.000

@<TRIPOS>MOLECULE
guest-8_confgen4.mol2 : confsearch ligand conformer 180
          25          24           1
SMALL
USER_CHARGES
 
@<TRIPOS>ATOM
       1    C1      20.678076   19.946075   27.161107 C.2        1 MOL1         0.6168
       2    O1      19.731089   19.407085   27.699059 O.co2      1 MOL1        -0.6703
       3    O2      21.213759   20.949561   27.588656 O.co2      1 MOL1        -0.6703
       4    C2      21.211823   19.340620   25.867774 C.3        1 MOL1        -0.1963
       5    H1      21.064587   18.254898   25.913639 H          1 MOL1         0.0750
       6    H2      22.292870   19.520250   25.828364 H          1 MOL1         0.0750
       7    C3      20.526568   19.919118   24.605347 C.3        1 MOL1        -0.1860
       8    H3      19.444767   19.745005   24.677288 H          1 MOL1         0.0752
       9    H4      20.675148   21.007363   24.577236 H          1 MOL1         0.0752
      10    C4      21.080767   19.283289   23.309500 C.3        1 MOL1        -0.1858
      11    H5      20.896943   18.200915   23.318493 H          1 MOL1         0.0752
      12    H6      22.172094   19.406654   23.289333 H          1 MOL1         0.0752
      13    C5      20.495509   19.906760   22.017565 C.3        1 MOL1        -0.1858
      14    H7      20.771646   20.969237   21.980638 H          1 MOL1         0.0752
      15    H8      20.981545   19.443707   21.148812 H          1 MOL1         0.0752
      16    C6      18.955815   19.790237   21.863987 C.3        1 MOL1        -0.1858
      17    H9      18.664188   20.246765   20.908463 H          1 MOL1         0.0752
      18    H10     18.466541   20.392017   22.640993 H          1 MOL1         0.0752
      19    C7      18.394884   18.347852   21.918878 C.3        1 MOL1        -0.1834
      20    H11     18.597296   17.900900   22.901272 H          1 MOL1         0.0752
      21    H12     17.301225   18.393575   21.825483 H          1 MOL1         0.0752
      22    C8      18.951121   17.434063   20.805492 C.3        1 MOL1        -0.2849
      23    H13     20.030181   17.273904   20.923484 H          1 MOL1         0.0764
      24    H14     18.463269   16.451291   20.835319 H          1 MOL1         0.0764
      25    H15     18.773710   17.870510   19.814041 H          1 MOL1         0.0764
@<TRIPOS>BOND
    1     1     2    1
    2     1     3    2
    3     1     4    1
    4     4     5    1
    5     4     6    1
    6     4     7    1
    7     7     8    1
    8     7     9    1
    9     7    10    1
   10    10    11    1
   11    10    12    1
   12    10    13    1
   13    13    14    1
   14    13    15    1
   15    13    16    1
   16    16    17    1
   17    16    18    1
   18    16    19    1
   19    19    20    1
   20    19    21    1
   21    19    22    1
   22    22    23    1
   23    22    24    1
   24    22    25    1
@<TRIPOS>SUBSTRUCTURE
       1 MOL1            1 RESIDUE      1      MOL     
@<SCITEGIC>MOL_PROPERTY
VConf Rank
SciTegic.value.IntegerValue
180

@<SCITEGIC>MOL_PROPERTY
Conf_Id
SciTegic.value.IntegerValue
30

@<SCITEGIC>MOL_PROPERTY
Delta U+W
SciTegic.value.DoubleValue
0.843

@<SCITEGIC>MOL_PROPERTY
U+W
SciTegic.value.DoubleValue
-50.787

@<SCITEGIC>MOL_PROPERTY
Grad RMS
SciTegic.value.DoubleValue
0.000000

@<SCITEGIC>MOL_PROPERTY
U
SciTegic.value.DoubleValue
8.647

@<SCITEGIC>MOL_PROPERTY
W
SciTegic.value.DoubleValue
-59.434

@<SCITEGIC>MOL_PROPERTY
W(PB)
SciTegic.value.DoubleValue
-61.861

@<SCITEGIC>MOL_PROPERTY
W(SA)
SciTegic.value.DoubleValue
2.428

@<SCITEGIC>MOL_PROPERTY
Valence
SciTegic.value.DoubleValue
8.924

@<SCITEGIC>MOL_PROPERTY
Coulomb
SciTegic.value.DoubleValue
-1.170

@<SCITEGIC>MOL_PROPERTY
VdW
SciTegic.value.DoubleValue
0.894

@<SCITEGIC>MOL_PROPERTY
VdW6
SciTegic.value.DoubleValue
-10.224

@<SCITEGIC>MOL_PROPERTY
VdW12
SciTegic.value.DoubleValue
11.118

@<SCITEGIC>MOL_PROPERTY
Bond
SciTegic.value.DoubleValue
0.231

@<SCITEGIC>MOL_PROPERTY
Angle
SciTegic.value.DoubleValue
3.232

@<SCITEGIC>MOL_PROPERTY
Pdih
SciTegic.value.DoubleValue
5.460

@<SCITEGIC>MOL_PROPERTY
Idih
SciTegic.value.DoubleValue
0.000

@<SCITEGIC>MOL_PROPERTY
Tether
SciTegic.value.DoubleValue
0.000

@<TRIPOS>MOLECULE
guest-8_confgen4.mol2 : confsearch ligand conformer 181
          25          24           1
SMALL
USER_CHARGES
 
@<TRIPOS>ATOM
       1    C1      23.327811   22.545174   23.540556 C.2        1 MOL1         0.6168
       2    O1      24.233178   21.755190   23.727201 O.co2      1 MOL1        -0.6703
       3    O2      23.491219   23.748882   23.518099 O.co2      1 MOL1        -0.6703
       4    C2      21.904612   22.029817   23.320757 C.3        1 MOL1        -0.1963
       5    H1      21.563728   22.414170   22.352265 H          1 MOL1         0.0750
       6    H2      21.269397   22.486304   24.088891 H          1 MOL1         0.0750
       7    C3      21.746086   20.486477   23.357985 C.3        1 MOL1        -0.1860
       8    H3      22.389982   20.035309   22.590293 H          1 MOL1         0.0752
       9    H4      22.095328   20.107501   24.328507 H          1 MOL1         0.0752
      10    C4      20.281714   20.053762   23.127726 C.3        1 MOL1        -0.1858
      11    H5      19.934733   20.433768   22.156986 H          1 MOL1         0.0752
      12    H6      19.639900   20.505987   23.896298 H          1 MOL1         0.0752
      13    C5      20.126333   18.518202   23.165143 C.3        1 MOL1        -0.1858
      14    H7      20.768016   18.065701   22.396644 H          1 MOL1         0.0752
      15    H8      20.473198   18.137909   24.135795 H          1 MOL1         0.0752
      16    C6      18.662382   18.084864   22.934968 C.3        1 MOL1        -0.1858
      17    H9      18.315325   18.465011   21.964333 H          1 MOL1         0.0752
      18    H10     18.020527   18.537173   23.703429 H          1 MOL1         0.0752
      19    C7      18.506957   16.549999   22.972306 C.3        1 MOL1        -0.1834
      20    H11     19.146234   16.094091   22.203566 H          1 MOL1         0.0752
      21    H12     18.851431   16.166247   23.942646 H          1 MOL1         0.0752
      22    C8      17.043798   16.121329   22.742060 C.3        1 MOL1        -0.2849
      23    H13     16.682971   16.465306   21.763857 H          1 MOL1         0.0764
      24    H14     16.951737   15.027836   22.771812 H          1 MOL1         0.0764
      25    H15     16.385952   16.537985   23.516033 H          1 MOL1         0.0764
@<TRIPOS>BOND
    1     1     2    1
    2     1     3    2
    3     1     4    1
    4     4     5    1
    5     4     6    1
    6     4     7    1
    7     7     8    1
    8     7     9    1
    9     7    10    1
   10    10    11    1
   11    10    12    1
   12    10    13    1
   13    13    14    1
   14    13    15    1
   15    13    16    1
   16    16    17    1
   17    16    18    1
   18    16    19    1
   19    19    20    1
   20    19    21    1
   21    19    22    1
   22    22    23    1
   23    22    24    1
   24    22    25    1
@<TRIPOS>SUBSTRUCTURE
       1 MOL1            1 RESIDUE      1      MOL     
@<SCITEGIC>MOL_PROPERTY
VConf Rank
SciTegic.value.IntegerValue
181

@<SCITEGIC>MOL_PROPERTY
Conf_Id
SciTegic.value.IntegerValue
0

@<SCITEGIC>MOL_PROPERTY
Delta U+W
SciTegic.value.DoubleValue
0.000

@<SCITEGIC>MOL_PROPERTY
U+W
SciTegic.value.DoubleValue
-51.629

@<SCITEGIC>MOL_PROPERTY
Grad RMS
SciTegic.value.DoubleValue
0.000000

@<SCITEGIC>MOL_PROPERTY
U
SciTegic.value.DoubleValue
6.586

@<SCITEGIC>MOL_PROPERTY
W
SciTegic.value.DoubleValue
-58.216

@<SCITEGIC>MOL_PROPERTY
W(PB)
SciTegic.value.DoubleValue
-60.757

@<SCITEGIC>MOL_PROPERTY
W(SA)
SciTegic.value.DoubleValue
2.541

@<SCITEGIC>MOL_PROPERTY
Valence
SciTegic.value.DoubleValue
8.027

@<SCITEGIC>MOL_PROPERTY
Coulomb
SciTegic.value.DoubleValue
-2.892

@<SCITEGIC>MOL_PROPERTY
VdW
SciTegic.value.DoubleValue
1.451

@<SCITEGIC>MOL_PROPERTY
VdW6
SciTegic.value.DoubleValue
-7.931

@<SCITEGIC>MOL_PROPERTY
VdW12
SciTegic.value.DoubleValue
9.383

@<SCITEGIC>MOL_PROPERTY
Bond
SciTegic.value.DoubleValue
0.149

@<SCITEGIC>MOL_PROPERTY
Angle
SciTegic.value.DoubleValue
2.726

@<SCITEGIC>MOL_PROPERTY
Pdih
SciTegic.value.DoubleValue
5.152

@<SCITEGIC>MOL_PROPERTY
Idih
SciTegic.value.DoubleValue
0.000

@<SCITEGIC>MOL_PROPERTY
Tether
SciTegic.value.DoubleValue
0.000

@<TRIPOS>MOLECULE
guest-8_confgen4.mol2 : confsearch ligand conformer 182
          25          24           1
SMALL
USER_CHARGES
 
@<TRIPOS>ATOM
       1    C1      16.062600   16.963281   22.364408 C.2        1 MOL1         0.6168
       2    O1      16.075658   15.775169   22.619044 O.co2      1 MOL1        -0.6703
       3    O2      15.080417   17.667905   22.488679 O.co2      1 MOL1        -0.6703
       4    C2      17.356607   17.610613   21.884210 C.3        1 MOL1        -0.1963
       5    H1      17.095702   18.425537   21.198329 H          1 MOL1         0.0750
       6    H2      17.915602   16.865757   21.305141 H          1 MOL1         0.0750
       7    C3      18.227505   18.147989   23.046443 C.3        1 MOL1        -0.1860
       8    H3      17.648950   18.882433   23.623903 H          1 MOL1         0.0752
       9    H4      18.468691   17.322707   23.730790 H          1 MOL1         0.0752
      10    C4      19.531234   18.798131   22.534948 C.3        1 MOL1        -0.1858
      11    H5      19.286699   19.621937   21.850311 H          1 MOL1         0.0752
      12    H6      20.106561   18.061808   21.957014 H          1 MOL1         0.0752
      13    C5      20.397407   19.332686   23.695751 C.3        1 MOL1        -0.1858
      14    H7      19.822321   20.069072   24.273778 H          1 MOL1         0.0752
      15    H8      20.642065   18.509045   24.380486 H          1 MOL1         0.0752
      16    C6      21.701337   19.982916   23.185019 C.3        1 MOL1        -0.1858
      17    H9      21.457017   20.806683   22.500321 H          1 MOL1         0.0752
      18    H10     22.276666   19.246758   22.606950 H          1 MOL1         0.0752
      19    C7      22.567297   20.517226   24.345186 C.3        1 MOL1        -0.1834
      20    H11     21.995655   21.255402   24.924677 H          1 MOL1         0.0752
      21    H12     22.815322   19.695494   25.031283 H          1 MOL1         0.0752
      22    C8      23.868350   21.165745   23.831099 C.3        1 MOL1        -0.2849
      23    H13     24.471372   21.539851   24.668653 H          1 MOL1         0.0764
      24    H14     24.475414   20.440191   23.273927 H          1 MOL1         0.0764
      25    H15     23.649572   22.011836   23.166521 H          1 MOL1         0.0764
@<TRIPOS>BOND
    1     1     2    1
    2     1     3    2
    3     1     4    1
    4     4     5    1
    5     4     6    1
    6     4     7    1
    7     7     8    1
    8     7     9    1
    9     7    10    1
   10    10    11    1
   11    10    12    1
   12    10    13    1
   13    13    14    1
   14    13    15    1
   15    13    16    1
   16    16    17    1
   17    16    18    1
   18    16    19    1
   19    19    20    1
   20    19    21    1
   21    19    22    1
   22    22    23    1
   23    22    24    1
   24    22    25    1
@<TRIPOS>SUBSTRUCTURE
       1 MOL1            1 RESIDUE      1      MOL     
@<SCITEGIC>MOL_PROPERTY
VConf Rank
SciTegic.value.IntegerValue
182

@<SCITEGIC>MOL_PROPERTY
Conf_Id
SciTegic.value.IntegerValue
27

@<SCITEGIC>MOL_PROPERTY
Delta U+W
SciTegic.value.DoubleValue
-1.297

@<SCITEGIC>MOL_PROPERTY
U+W
SciTegic.value.DoubleValue
-52.926

@<SCITEGIC>MOL_PROPERTY
Grad RMS
SciTegic.value.DoubleValue
0.000000

@<SCITEGIC>MOL_PROPERTY
U
SciTegic.value.DoubleValue
5.617

@<SCITEGIC>MOL_PROPERTY
W
SciTegic.value.DoubleValue
-58.543

@<SCITEGIC>MOL_PROPERTY
W(PB)
SciTegic.value.DoubleValue
-61.065

@<SCITEGIC>MOL_PROPERTY
W(SA)
SciTegic.value.DoubleValue
2.522

@<SCITEGIC>MOL_PROPERTY
Valence
SciTegic.value.DoubleValue
7.531

@<SCITEGIC>MOL_PROPERTY
Coulomb
SciTegic.value.DoubleValue
-2.818

@<SCITEGIC>MOL_PROPERTY
VdW
SciTegic.value.DoubleValue
0.904

@<SCITEGIC>MOL_PROPERTY
VdW6
SciTegic.value.DoubleValue
-7.640

@<SCITEGIC>MOL_PROPERTY
VdW12
SciTegic.value.DoubleValue
8.544

@<SCITEGIC>MOL_PROPERTY
Bond
SciTegic.value.DoubleValue
0.115

@<SCITEGIC>MOL_PROPERTY
Angle
SciTegic.value.DoubleValue
2.271

@<SCITEGIC>MOL_PROPERTY
Pdih
SciTegic.value.DoubleValue
5.144

@<SCITEGIC>MOL_PROPERTY
Idih
SciTegic.value.DoubleValue
0.001

@<SCITEGIC>MOL_PROPERTY
Tether
SciTegic.value.DoubleValue
0.000

@<TRIPOS>MOLECULE
guest-8_confgen4.mol2 : confsearch ligand conformer 183
          25          24           1
SMALL
USER_CHARGES
 
@<TRIPOS>ATOM
       1    C1      21.403516   15.330847   24.174770 C.2        1 MOL1         0.6168
       2    O1      22.597599   15.228120   24.376478 O.co2      1 MOL1        -0.6703
       3    O2      20.558793   15.149651   25.029507 O.co2      1 MOL1        -0.6703
       4    C2      20.941046   15.690788   22.765682 C.3        1 MOL1        -0.1963
       5    H1      19.885649   15.411261   22.661519 H          1 MOL1         0.0750
       6    H2      21.505941   15.064497   22.065226 H          1 MOL1         0.0750
       7    C3      21.138205   17.184884   22.399964 C.3        1 MOL1        -0.1860
       8    H3      22.194350   17.456506   22.535796 H          1 MOL1         0.0752
       9    H4      20.910555   17.324036   21.334431 H          1 MOL1         0.0752
      10    C4      20.243904   18.125088   23.239018 C.3        1 MOL1        -0.1858
      11    H5      20.478121   18.004369   24.305785 H          1 MOL1         0.0752
      12    H6      19.190441   17.840994   23.110454 H          1 MOL1         0.0752
      13    C5      20.432805   19.603609   22.836620 C.3        1 MOL1        -0.1858
      14    H7      21.486509   19.886766   22.965534 H          1 MOL1         0.0752
      15    H8      20.196217   19.727299   21.770897 H          1 MOL1         0.0752
      16    C6      19.540145   20.543730   23.675184 C.3        1 MOL1        -0.1858
      17    H9      19.776580   20.420094   24.740990 H          1 MOL1         0.0752
      18    H10     18.486408   20.260517   23.546694 H          1 MOL1         0.0752
      19    C7      19.728991   22.021740   23.273694 C.3        1 MOL1        -0.1834
      20    H11     20.781739   22.309057   23.402739 H          1 MOL1         0.0752
      21    H12     19.491473   22.149519   22.208454 H          1 MOL1         0.0752
      22    C8      18.836028   22.957142   24.113483 C.3        1 MOL1        -0.2849
      23    H13     19.074324   22.872927   25.181903 H          1 MOL1         0.0764
      24    H14     18.982977   24.003263   23.814958 H          1 MOL1         0.0764
      25    H15     17.774327   22.712169   23.978676 H          1 MOL1         0.0764
@<TRIPOS>BOND
    1     1     2    1
    2     1     3    2
    3     1     4    1
    4     4     5    1
    5     4     6    1
    6     4     7    1
    7     7     8    1
    8     7     9    1
    9     7    10    1
   10    10    11    1
   11    10    12    1
   12    10    13    1
   13    13    14    1
   14    13    15    1
   15    13    16    1
   16    16    17    1
   17    16    18    1
   18    16    19    1
   19    19    20    1
   20    19    21    1
   21    19    22    1
   22    22    23    1
   23    22    24    1
   24    22    25    1
@<TRIPOS>SUBSTRUCTURE
       1 MOL1            1 RESIDUE      1      MOL     
@<SCITEGIC>MOL_PROPERTY
VConf Rank
SciTegic.value.IntegerValue
183

@<SCITEGIC>MOL_PROPERTY
Conf_Id
SciTegic.value.IntegerValue
37

@<SCITEGIC>MOL_PROPERTY
Delta U+W
SciTegic.value.DoubleValue
-0.230

@<SCITEGIC>MOL_PROPERTY
U+W
SciTegic.value.DoubleValue
-51.860

@<SCITEGIC>MOL_PROPERTY
Grad RMS
SciTegic.value.DoubleValue
0.000000

@<SCITEGIC>MOL_PROPERTY
U
SciTegic.value.DoubleValue
7.816

@<SCITEGIC>MOL_PROPERTY
W
SciTegic.value.DoubleValue
-59.675

@<SCITEGIC>MOL_PROPERTY
W(PB)
SciTegic.value.DoubleValue
-62.180

@<SCITEGIC>MOL_PROPERTY
W(SA)
SciTegic.value.DoubleValue
2.505

@<SCITEGIC>MOL_PROPERTY
Valence
SciTegic.value.DoubleValue
7.785

@<SCITEGIC>MOL_PROPERTY
Coulomb
SciTegic.value.DoubleValue
-0.713

@<SCITEGIC>MOL_PROPERTY
VdW
SciTegic.value.DoubleValue
0.744

@<SCITEGIC>MOL_PROPERTY
VdW6
SciTegic.value.DoubleValue
-8.514

@<SCITEGIC>MOL_PROPERTY
VdW12
SciTegic.value.DoubleValue
9.259

@<SCITEGIC>MOL_PROPERTY
Bond
SciTegic.value.DoubleValue
0.136

@<SCITEGIC>MOL_PROPERTY
Angle
SciTegic.value.DoubleValue
2.433

@<SCITEGIC>MOL_PROPERTY
Pdih
SciTegic.value.DoubleValue
5.216

@<SCITEGIC>MOL_PROPERTY
Idih
SciTegic.value.DoubleValue
0.000

@<SCITEGIC>MOL_PROPERTY
Tether
SciTegic.value.DoubleValue
0.000

@<TRIPOS>MOLECULE
guest-8_confgen4.mol2 : confsearch ligand conformer 184
          25          24           1
SMALL
USER_CHARGES
 
@<TRIPOS>ATOM
       1    C1      16.173684   20.516838   22.814395 C.2        1 MOL1         0.6168
       2    O1      15.373995   19.884339   23.475847 O.co2      1 MOL1        -0.6703
       3    O2      16.222675   20.478357   21.600689 O.co2      1 MOL1        -0.6703
       4    C2      17.158985   21.420983   23.549698 C.3        1 MOL1        -0.1963
       5    H1      16.591329   21.981102   24.302039 H          1 MOL1         0.0750
       6    H2      17.556541   22.156161   22.839551 H          1 MOL1         0.0750
       7    C3      18.320708   20.658785   24.238462 C.3        1 MOL1        -0.1860
       8    H3      18.896087   21.365132   24.852109 H          1 MOL1         0.0752
       9    H4      17.906447   19.907668   24.925401 H          1 MOL1         0.0752
      10    C4      19.266804   19.976097   23.225247 C.3        1 MOL1        -0.1858
      11    H5      19.667744   20.728856   22.532697 H          1 MOL1         0.0752
      12    H6      18.701622   19.254807   22.618836 H          1 MOL1         0.0752
      13    C5      20.432744   19.250557   23.930800 C.3        1 MOL1        -0.1858
      14    H7      21.001128   19.970475   24.535527 H          1 MOL1         0.0752
      15    H8      20.030830   18.497959   24.623007 H          1 MOL1         0.0752
      16    C6      21.378121   18.567575   22.919042 C.3        1 MOL1        -0.1858
      17    H9      21.779925   19.319963   22.226548 H          1 MOL1         0.0752
      18    H10     20.809835   17.847685   22.314116 H          1 MOL1         0.0752
      19    C7      22.543350   17.841714   23.623833 C.3        1 MOL1        -0.1834
      20    H11     23.115185   18.559225   24.228531 H          1 MOL1         0.0752
      21    H12     22.145072   17.086886   24.315999 H          1 MOL1         0.0752
      22    C8      23.484945   17.161073   22.610063 C.3        1 MOL1        -0.2849
      23    H13     23.922695   17.898247   21.924246 H          1 MOL1         0.0764
      24    H14     24.306969   16.650161   23.128065 H          1 MOL1         0.0764
      25    H15     22.945238   16.414869   22.012322 H          1 MOL1         0.0764
@<TRIPOS>BOND
    1     1     2    1
    2     1     3    2
    3     1     4    1
    4     4     5    1
    5     4     6    1
    6     4     7    1
    7     7     8    1
    8     7     9    1
    9     7    10    1
   10    10    11    1
   11    10    12    1
   12    10    13    1
   13    13    14    1
   14    13    15    1
   15    13    16    1
   16    16    17    1
   17    16    18    1
   18    16    19    1
   19    19    20    1
   20    19    21    1
   21    19    22    1
   22    22    23    1
   23    22    24    1
   24    22    25    1
@<TRIPOS>SUBSTRUCTURE
       1 MOL1            1 RESIDUE      1      MOL     
@<SCITEGIC>MOL_PROPERTY
VConf Rank
SciTegic.value.IntegerValue
184

@<SCITEGIC>MOL_PROPERTY
Conf_Id
SciTegic.value.IntegerValue
54

@<SCITEGIC>MOL_PROPERTY
Delta U+W
SciTegic.value.DoubleValue
-0.224

@<SCITEGIC>MOL_PROPERTY
U+W
SciTegic.value.DoubleValue
-51.854

@<SCITEGIC>MOL_PROPERTY
Grad RMS
SciTegic.value.DoubleValue
0.000000

@<SCITEGIC>MOL_PROPERTY
U
SciTegic.value.DoubleValue
7.816

@<SCITEGIC>MOL_PROPERTY
W
SciTegic.value.DoubleValue
-59.670

@<SCITEGIC>MOL_PROPERTY
W(PB)
SciTegic.value.DoubleValue
-62.157

@<SCITEGIC>MOL_PROPERTY
W(SA)
SciTegic.value.DoubleValue
2.487

@<SCITEGIC>MOL_PROPERTY
Valence
SciTegic.value.DoubleValue
7.785

@<SCITEGIC>MOL_PROPERTY
Coulomb
SciTegic.value.DoubleValue
-0.713

@<SCITEGIC>MOL_PROPERTY
VdW
SciTegic.value.DoubleValue
0.744

@<SCITEGIC>MOL_PROPERTY
VdW6
SciTegic.value.DoubleValue
-8.515

@<SCITEGIC>MOL_PROPERTY
VdW12
SciTegic.value.DoubleValue
9.259

@<SCITEGIC>MOL_PROPERTY
Bond
SciTegic.value.DoubleValue
0.136

@<SCITEGIC>MOL_PROPERTY
Angle
SciTegic.value.DoubleValue
2.433

@<SCITEGIC>MOL_PROPERTY
Pdih
SciTegic.value.DoubleValue
5.215

@<SCITEGIC>MOL_PROPERTY
Idih
SciTegic.value.DoubleValue
0.000

@<SCITEGIC>MOL_PROPERTY
Tether
SciTegic.value.DoubleValue
0.000

@<TRIPOS>MOLECULE
guest-8_confgen4.mol2 : confsearch ligand conformer 185
          25          24           1
SMALL
USER_CHARGES
 
@<TRIPOS>ATOM
       1    C1      22.499631   19.788472   20.087266 C.2        1 MOL1         0.6168
       2    O1      21.971279   19.173044   19.182202 O.co2      1 MOL1        -0.6703
       3    O2      22.834942   20.953579   20.002413 O.co2      1 MOL1        -0.6703
       4    C2      22.774942   19.054660   21.396811 C.3        1 MOL1        -0.1963
       5    H1      23.802974   19.292233   21.694602 H          1 MOL1         0.0750
       6    H2      22.740749   17.974921   21.207535 H          1 MOL1         0.0750
       7    C3      21.803664   19.427695   22.547084 C.3        1 MOL1        -0.1860
       8    H3      22.175245   18.974848   23.474802 H          1 MOL1         0.0752
       9    H4      21.818323   20.516169   22.696783 H          1 MOL1         0.0752
      10    C4      20.354749   18.954372   22.277708 C.3        1 MOL1        -0.1858
      11    H5      20.334455   17.860971   22.173595 H          1 MOL1         0.0752
      12    H6      20.016939   19.362245   21.315158 H          1 MOL1         0.0752
      13    C5      19.347344   19.390422   23.368556 C.3        1 MOL1        -0.1858
      14    H7      19.381678   20.482083   23.485493 H          1 MOL1         0.0752
      15    H8      18.338041   19.147420   23.012992 H          1 MOL1         0.0752
      16    C6      19.586005   18.709376   24.738975 C.3        1 MOL1        -0.1858
      17    H9      20.592046   18.956876   25.100224 H          1 MOL1         0.0752
      18    H10     19.556602   17.617721   24.620485 H          1 MOL1         0.0752
      19    C7      18.570511   19.139249   25.823625 C.3        1 MOL1        -0.1834
      20    H11     18.890560   18.723210   26.788884 H          1 MOL1         0.0752
      21    H12     18.588028   20.232092   25.936267 H          1 MOL1         0.0752
      22    C8      17.128035   18.668509   25.536211 C.3        1 MOL1        -0.2849
      23    H13     16.717191   19.154478   24.642653 H          1 MOL1         0.0764
      24    H14     17.091985   17.581746   25.385360 H          1 MOL1         0.0764
      25    H15     16.469449   18.914346   26.379262 H          1 MOL1         0.0764
@<TRIPOS>BOND
    1     1     2    1
    2     1     3    2
    3     1     4    1
    4     4     5    1
    5     4     6    1
    6     4     7    1
    7     7     8    1
    8     7     9    1
    9     7    10    1
   10    10    11    1
   11    10    12    1
   12    10    13    1
   13    13    14    1
   14    13    15    1
   15    13    16    1
   16    16    17    1
   17    16    18    1
   18    16    19    1
   19    19    20    1
   20    19    21    1
   21    19    22    1
   22    22    23    1
   23    22    24    1
   24    22    25    1
@<TRIPOS>SUBSTRUCTURE
       1 MOL1            1 RESIDUE      1      MOL     
@<SCITEGIC>MOL_PROPERTY
VConf Rank
SciTegic.value.IntegerValue
185

@<SCITEGIC>MOL_PROPERTY
Conf_Id
SciTegic.value.IntegerValue
101

@<SCITEGIC>MOL_PROPERTY
Delta U+W
SciTegic.value.DoubleValue
1.534

@<SCITEGIC>MOL_PROPERTY
U+W
SciTegic.value.DoubleValue
-50.095

@<SCITEGIC>MOL_PROPERTY
Grad RMS
SciTegic.value.DoubleValue
0.000000

@<SCITEGIC>MOL_PROPERTY
U
SciTegic.value.DoubleValue
9.416

@<SCITEGIC>MOL_PROPERTY
W
SciTegic.value.DoubleValue
-59.512

@<SCITEGIC>MOL_PROPERTY
W(PB)
SciTegic.value.DoubleValue
-61.988

@<SCITEGIC>MOL_PROPERTY
W(SA)
SciTegic.value.DoubleValue
2.476

@<SCITEGIC>MOL_PROPERTY
Valence
SciTegic.value.DoubleValue
8.939

@<SCITEGIC>MOL_PROPERTY
Coulomb
SciTegic.value.DoubleValue
-0.615

@<SCITEGIC>MOL_PROPERTY
VdW
SciTegic.value.DoubleValue
1.092

@<SCITEGIC>MOL_PROPERTY
VdW6
SciTegic.value.DoubleValue
-9.710

@<SCITEGIC>MOL_PROPERTY
VdW12
SciTegic.value.DoubleValue
10.802

@<SCITEGIC>MOL_PROPERTY
Bond
SciTegic.value.DoubleValue
0.216

@<SCITEGIC>MOL_PROPERTY
Angle
SciTegic.value.DoubleValue
2.979

@<SCITEGIC>MOL_PROPERTY
Pdih
SciTegic.value.DoubleValue
5.743

@<SCITEGIC>MOL_PROPERTY
Idih
SciTegic.value.DoubleValue
0.000

@<SCITEGIC>MOL_PROPERTY
Tether
SciTegic.value.DoubleValue
0.000

@<TRIPOS>MOLECULE
guest-8_confgen4.mol2 : confsearch ligand conformer 186
          25          24           1
SMALL
USER_CHARGES
 
@<TRIPOS>ATOM
       1    C1      21.764743   21.329033   26.465080 C.2        1 MOL1         0.6168
       2    O1      21.265510   20.903574   27.488060 O.co2      1 MOL1        -0.6703
       3    O2      22.818255   21.933802   26.431248 O.co2      1 MOL1        -0.6703
       4    C2      21.040793   21.070224   25.148615 C.3        1 MOL1        -0.1963
       5    H1      21.250262   21.909562   24.474839 H          1 MOL1         0.0750
       6    H2      19.964654   21.078134   25.354099 H          1 MOL1         0.0750
       7    C3      21.463075   19.733280   24.485430 C.3        1 MOL1        -0.1860
       8    H3      22.557269   19.721504   24.385288 H          1 MOL1         0.0752
       9    H4      21.203776   18.895995   25.148015 H          1 MOL1         0.0752
      10    C4      20.836954   19.507851   23.088340 C.3        1 MOL1        -0.1858
      11    H5      21.303635   18.617431   22.648052 H          1 MOL1         0.0752
      12    H6      21.089310   20.350690   22.430689 H          1 MOL1         0.0752
      13    C5      19.300965   19.314919   23.125984 C.3        1 MOL1        -0.1858
      14    H7      19.048771   18.472135   23.782588 H          1 MOL1         0.0752
      15    H8      18.832523   20.200305   23.573614 H          1 MOL1         0.0752
      16    C6      18.669706   19.102745   21.726394 C.3        1 MOL1        -0.1858
      17    H9      18.858744   19.993877   21.112535 H          1 MOL1         0.0752
      18    H10     17.578927   19.039765   21.839993 H          1 MOL1         0.0752
      19    C7      19.161972   17.852720   20.955308 C.3        1 MOL1        -0.1834
      20    H11     18.647678   17.816478   19.985136 H          1 MOL1         0.0752
      21    H12     20.231809   17.944352   20.726409 H          1 MOL1         0.0752
      22    C8      18.900896   16.528320   21.704803 C.3        1 MOL1        -0.2849
      23    H13     17.839395   16.426877   21.965387 H          1 MOL1         0.0764
      24    H14     19.179502   15.670987   21.078605 H          1 MOL1         0.0764
      25    H15     19.490174   16.470563   22.628651 H          1 MOL1         0.0764
@<TRIPOS>BOND
    1     1     2    1
    2     1     3    2
    3     1     4    1
    4     4     5    1
    5     4     6    1
    6     4     7    1
    7     7     8    1
    8     7     9    1
    9     7    10    1
   10    10    11    1
   11    10    12    1
   12    10    13    1
   13    13    14    1
   14    13    15    1
   15    13    16    1
   16    16    17    1
   17    16    18    1
   18    16    19    1
   19    19    20    1
   20    19    21    1
   21    19    22    1
   22    22    23    1
   23    22    24    1
   24    22    25    1
@<TRIPOS>SUBSTRUCTURE
       1 MOL1            1 RESIDUE      1      MOL     
@<SCITEGIC>MOL_PROPERTY
VConf Rank
SciTegic.value.IntegerValue
186

@<SCITEGIC>MOL_PROPERTY
Conf_Id
SciTegic.value.IntegerValue
75

@<SCITEGIC>MOL_PROPERTY
Delta U+W
SciTegic.value.DoubleValue
1.014

@<SCITEGIC>MOL_PROPERTY
U+W
SciTegic.value.DoubleValue
-50.615

@<SCITEGIC>MOL_PROPERTY
Grad RMS
SciTegic.value.DoubleValue
0.000000

@<SCITEGIC>MOL_PROPERTY
U
SciTegic.value.DoubleValue
8.474

@<SCITEGIC>MOL_PROPERTY
W
SciTegic.value.DoubleValue
-59.089

@<SCITEGIC>MOL_PROPERTY
W(PB)
SciTegic.value.DoubleValue
-61.530

@<SCITEGIC>MOL_PROPERTY
W(SA)
SciTegic.value.DoubleValue
2.441

@<SCITEGIC>MOL_PROPERTY
Valence
SciTegic.value.DoubleValue
9.080

@<SCITEGIC>MOL_PROPERTY
Coulomb
SciTegic.value.DoubleValue
-1.772

@<SCITEGIC>MOL_PROPERTY
VdW
SciTegic.value.DoubleValue
1.165

@<SCITEGIC>MOL_PROPERTY
VdW6
SciTegic.value.DoubleValue
-9.830

@<SCITEGIC>MOL_PROPERTY
VdW12
SciTegic.value.DoubleValue
10.996

@<SCITEGIC>MOL_PROPERTY
Bond
SciTegic.value.DoubleValue
0.240

@<SCITEGIC>MOL_PROPERTY
Angle
SciTegic.value.DoubleValue
3.225

@<SCITEGIC>MOL_PROPERTY
Pdih
SciTegic.value.DoubleValue
5.615

@<SCITEGIC>MOL_PROPERTY
Idih
SciTegic.value.DoubleValue
0.001

@<SCITEGIC>MOL_PROPERTY
Tether
SciTegic.value.DoubleValue
0.000

@<TRIPOS>MOLECULE
guest-8_confgen4.mol2 : confsearch ligand conformer 187
          25          24           1
SMALL
USER_CHARGES
 
@<TRIPOS>ATOM
       1    C1      24.296776   18.843965   22.906359 C.2        1 MOL1         0.6168
       2    O1      24.762076   19.964594   22.840500 O.co2      1 MOL1        -0.6703
       3    O2      24.916916   17.880031   23.310002 O.co2      1 MOL1        -0.6703
       4    C2      22.847719   18.640016   22.478902 C.3        1 MOL1        -0.1963
       5    H1      22.755543   17.631929   22.057209 H          1 MOL1         0.0750
       6    H2      22.627175   19.350186   21.672909 H          1 MOL1         0.0750
       7    C3      21.844956   18.825856   23.644240 C.3        1 MOL1        -0.1860
       8    H3      22.087038   18.116887   24.448140 H          1 MOL1         0.0752
       9    H4      21.959254   19.835118   24.063597 H          1 MOL1         0.0752
      10    C4      20.385506   18.615916   23.185895 C.3        1 MOL1        -0.1858
      11    H5      20.276123   17.606224   22.767123 H          1 MOL1         0.0752
      12    H6      20.155162   19.318673   22.376397 H          1 MOL1         0.0752
      13    C5      19.388413   18.796682   24.354597 C.3        1 MOL1        -0.1858
      14    H7      19.631536   18.056334   25.128996 H          1 MOL1         0.0752
      15    H8      19.520543   19.782374   24.821258 H          1 MOL1         0.0752
      16    C6      17.908952   18.601341   23.935714 C.3        1 MOL1        -0.1858
      17    H9      17.381113   18.111818   24.765546 H          1 MOL1         0.0752
      18    H10     17.841429   17.906027   23.087885 H          1 MOL1         0.0752
      19    C7      17.150507   19.912015   23.610444 C.3        1 MOL1        -0.1834
      20    H11     16.099253   19.665148   23.407730 H          1 MOL1         0.0752
      21    H12     17.147675   20.564694   24.494322 H          1 MOL1         0.0752
      22    C8      17.717354   20.687881   22.403345 C.3        1 MOL1        -0.2849
      23    H13     17.794561   20.040946   21.519900 H          1 MOL1         0.0764
      24    H14     17.064160   21.532479   22.148892 H          1 MOL1         0.0764
      25    H15     18.711435   21.094916   22.626397 H          1 MOL1         0.0764
@<TRIPOS>BOND
    1     1     2    1
    2     1     3    2
    3     1     4    1
    4     4     5    1
    5     4     6    1
    6     4     7    1
    7     7     8    1
    8     7     9    1
    9     7    10    1
   10    10    11    1
   11    10    12    1
   12    10    13    1
   13    13    14    1
   14    13    15    1
   15    13    16    1
   16    16    17    1
   17    16    18    1
   18    16    19    1
   19    19    20    1
   20    19    21    1
   21    19    22    1
   22    22    23    1
   23    22    24    1
   24    22    25    1
@<TRIPOS>SUBSTRUCTURE
       1 MOL1            1 RESIDUE      1      MOL     
@<SCITEGIC>MOL_PROPERTY
VConf Rank
SciTegic.value.IntegerValue
187

@<SCITEGIC>MOL_PROPERTY
Conf_Id
SciTegic.value.IntegerValue
125

@<SCITEGIC>MOL_PROPERTY
Delta U+W
SciTegic.value.DoubleValue
2.314

@<SCITEGIC>MOL_PROPERTY
U+W
SciTegic.value.DoubleValue
-49.315

@<SCITEGIC>MOL_PROPERTY
Grad RMS
SciTegic.value.DoubleValue
0.000000

@<SCITEGIC>MOL_PROPERTY
U
SciTegic.value.DoubleValue
9.740

@<SCITEGIC>MOL_PROPERTY
W
SciTegic.value.DoubleValue
-59.054

@<SCITEGIC>MOL_PROPERTY
W(PB)
SciTegic.value.DoubleValue
-61.488

@<SCITEGIC>MOL_PROPERTY
W(SA)
SciTegic.value.DoubleValue
2.433

@<SCITEGIC>MOL_PROPERTY
Valence
SciTegic.value.DoubleValue
10.506

@<SCITEGIC>MOL_PROPERTY
Coulomb
SciTegic.value.DoubleValue
-1.761

@<SCITEGIC>MOL_PROPERTY
VdW
SciTegic.value.DoubleValue
0.994

@<SCITEGIC>MOL_PROPERTY
VdW6
SciTegic.value.DoubleValue
-9.209

@<SCITEGIC>MOL_PROPERTY
VdW12
SciTegic.value.DoubleValue
10.203

@<SCITEGIC>MOL_PROPERTY
Bond
SciTegic.value.DoubleValue
0.193

@<SCITEGIC>MOL_PROPERTY
Angle
SciTegic.value.DoubleValue
2.979

@<SCITEGIC>MOL_PROPERTY
Pdih
SciTegic.value.DoubleValue
7.334

@<SCITEGIC>MOL_PROPERTY
Idih
SciTegic.value.DoubleValue
0.001

@<SCITEGIC>MOL_PROPERTY
Tether
SciTegic.value.DoubleValue
0.000

@<TRIPOS>MOLECULE
guest-8_confgen4.mol2 : confsearch ligand conformer 188
          25          24           1
SMALL
USER_CHARGES
 
@<TRIPOS>ATOM
       1    C1      22.252417   22.425617   24.446118 C.2        1 MOL1         0.6168
       2    O1      21.814954   23.344421   23.781950 O.co2      1 MOL1        -0.6703
       3    O2      23.228668   22.518917   25.163733 O.co2      1 MOL1        -0.6703
       4    C2      21.552285   21.074451   24.355650 C.3        1 MOL1        -0.1963
       5    H1      20.484096   21.262897   24.200149 H          1 MOL1         0.0750
       6    H2      21.656929   20.571654   25.324463 H          1 MOL1         0.0750
       7    C3      22.120599   20.179337   23.223823 C.3        1 MOL1        -0.1860
       8    H3      21.967657   20.672815   22.254073 H          1 MOL1         0.0752
       9    H4      23.207516   20.089328   23.357820 H          1 MOL1         0.0752
      10    C4      21.506223   18.759618   23.190752 C.3        1 MOL1        -0.1858
      11    H5      21.669232   18.265399   24.158299 H          1 MOL1         0.0752
      12    H6      22.046817   18.163973   22.442504 H          1 MOL1         0.0752
      13    C5      19.998228   18.749739   22.848630 C.3        1 MOL1        -0.1858
      14    H7      19.441385   19.284755   23.627290 H          1 MOL1         0.0752
      15    H8      19.832382   19.287750   21.905442 H          1 MOL1         0.0752
      16    C6      19.452202   17.308424   22.723442 C.3        1 MOL1        -0.1858
      17    H9      19.574030   16.782366   23.680160 H          1 MOL1         0.0752
      18    H10     20.055773   16.759669   21.987634 H          1 MOL1         0.0752
      19    C7      17.970392   17.247783   22.284830 C.3        1 MOL1        -0.1834
      20    H11     17.845857   17.768467   21.325306 H          1 MOL1         0.0752
      21    H12     17.698758   16.198332   22.105681 H          1 MOL1         0.0752
      22    C8      16.998590   17.841271   23.327881 C.3        1 MOL1        -0.2849
      23    H13     17.155655   18.919740   23.454062 H          1 MOL1         0.0764
      24    H14     15.958150   17.692332   23.011341 H          1 MOL1         0.0764
      25    H15     17.127158   17.357358   24.304819 H          1 MOL1         0.0764
@<TRIPOS>BOND
    1     1     2    1
    2     1     3    2
    3     1     4    1
    4     4     5    1
    5     4     6    1
    6     4     7    1
    7     7     8    1
    8     7     9    1
    9     7    10    1
   10    10    11    1
   11    10    12    1
   12    10    13    1
   13    13    14    1
   14    13    15    1
   15    13    16    1
   16    16    17    1
   17    16    18    1
   18    16    19    1
   19    19    20    1
   20    19    21    1
   21    19    22    1
   22    22    23    1
   23    22    24    1
   24    22    25    1
@<TRIPOS>SUBSTRUCTURE
       1 MOL1            1 RESIDUE      1      MOL     
@<SCITEGIC>MOL_PROPERTY
VConf Rank
SciTegic.value.IntegerValue
188

@<SCITEGIC>MOL_PROPERTY
Conf_Id
SciTegic.value.IntegerValue
4

@<SCITEGIC>MOL_PROPERTY
Delta U+W
SciTegic.value.DoubleValue
0.189

@<SCITEGIC>MOL_PROPERTY
U+W
SciTegic.value.DoubleValue
-51.441

@<SCITEGIC>MOL_PROPERTY
Grad RMS
SciTegic.value.DoubleValue
0.000000

@<SCITEGIC>MOL_PROPERTY
U
SciTegic.value.DoubleValue
7.701

@<SCITEGIC>MOL_PROPERTY
W
SciTegic.value.DoubleValue
-59.141

@<SCITEGIC>MOL_PROPERTY
W(PB)
SciTegic.value.DoubleValue
-61.609

@<SCITEGIC>MOL_PROPERTY
W(SA)
SciTegic.value.DoubleValue
2.467

@<SCITEGIC>MOL_PROPERTY
Valence
SciTegic.value.DoubleValue
8.550

@<SCITEGIC>MOL_PROPERTY
Coulomb
SciTegic.value.DoubleValue
-1.988

@<SCITEGIC>MOL_PROPERTY
VdW
SciTegic.value.DoubleValue
1.139

@<SCITEGIC>MOL_PROPERTY
VdW6
SciTegic.value.DoubleValue
-8.988

@<SCITEGIC>MOL_PROPERTY
VdW12
SciTegic.value.DoubleValue
10.127

@<SCITEGIC>MOL_PROPERTY
Bond
SciTegic.value.DoubleValue
0.191

@<SCITEGIC>MOL_PROPERTY
Angle
SciTegic.value.DoubleValue
2.738

@<SCITEGIC>MOL_PROPERTY
Pdih
SciTegic.value.DoubleValue
5.621

@<SCITEGIC>MOL_PROPERTY
Idih
SciTegic.value.DoubleValue
0.001

@<SCITEGIC>MOL_PROPERTY
Tether
SciTegic.value.DoubleValue
0.000

@<TRIPOS>MOLECULE
guest-8_confgen4.mol2 : confsearch ligand conformer 189
          25          24           1
SMALL
USER_CHARGES
 
@<TRIPOS>ATOM
       1    C1      22.336305   16.239281   24.905354 C.2        1 MOL1         0.6168
       2    O1      23.480372   16.642544   24.833353 O.co2      1 MOL1        -0.6703
       3    O2      22.016611   15.221923   25.488038 O.co2      1 MOL1        -0.6703
       4    C2      21.238051   17.067729   24.248441 C.3        1 MOL1        -0.1963
       5    H1      20.451904   16.382587   23.909457 H          1 MOL1         0.0750
       6    H2      21.665550   17.539737   23.356715 H          1 MOL1         0.0750
       7    C3      20.642312   18.136649   25.201196 C.3        1 MOL1        -0.1860
       8    H3      20.309702   17.640557   26.123535 H          1 MOL1         0.0752
       9    H4      21.429265   18.844395   25.496377 H          1 MOL1         0.0752
      10    C4      19.446067   18.908017   24.594446 C.3        1 MOL1        -0.1858
      11    H5      19.017278   19.553429   25.373223 H          1 MOL1         0.0752
      12    H6      18.657076   18.198603   24.309496 H          1 MOL1         0.0752
      13    C5      19.829745   19.777474   23.374597 C.3        1 MOL1        -0.1858
      14    H7      20.652745   20.451391   23.648587 H          1 MOL1         0.0752
      15    H8      20.195600   19.134044   22.565415 H          1 MOL1         0.0752
      16    C6      18.628647   20.609216   22.867872 C.3        1 MOL1        -0.1858
      17    H9      18.228035   21.203403   23.700516 H          1 MOL1         0.0752
      18    H10     17.820956   19.936249   22.549064 H          1 MOL1         0.0752
      19    C7      18.989568   21.568928   21.710070 C.3        1 MOL1        -0.1834
      20    H11     18.118093   22.201694   21.492431 H          1 MOL1         0.0752
      21    H12     19.793740   22.247141   22.027310 H          1 MOL1         0.0752
      22    C8      19.407478   20.837020   20.416142 C.3        1 MOL1        -0.2849
      23    H13     18.631436   20.129270   20.096832 H          1 MOL1         0.0764
      24    H14     19.564414   21.556353   19.602001 H          1 MOL1         0.0764
      25    H15     20.344112   20.282550   20.553866 H          1 MOL1         0.0764
@<TRIPOS>BOND
    1     1     2    1
    2     1     3    2
    3     1     4    1
    4     4     5    1
    5     4     6    1
    6     4     7    1
    7     7     8    1
    8     7     9    1
    9     7    10    1
   10    10    11    1
   11    10    12    1
   12    10    13    1
   13    13    14    1
   14    13    15    1
   15    13    16    1
   16    16    17    1
   17    16    18    1
   18    16    19    1
   19    19    20    1
   20    19    21    1
   21    19    22    1
   22    22    23    1
   23    22    24    1
   24    22    25    1
@<TRIPOS>SUBSTRUCTURE
       1 MOL1            1 RESIDUE      1      MOL     
@<SCITEGIC>MOL_PROPERTY
VConf Rank
SciTegic.value.IntegerValue
189

@<SCITEGIC>MOL_PROPERTY
Conf_Id
SciTegic.value.IntegerValue
17

@<SCITEGIC>MOL_PROPERTY
Delta U+W
SciTegic.value.DoubleValue
0.219

@<SCITEGIC>MOL_PROPERTY
U+W
SciTegic.value.DoubleValue
-51.411

@<SCITEGIC>MOL_PROPERTY
Grad RMS
SciTegic.value.DoubleValue
0.000000

@<SCITEGIC>MOL_PROPERTY
U
SciTegic.value.DoubleValue
7.701

@<SCITEGIC>MOL_PROPERTY
W
SciTegic.value.DoubleValue
-59.111

@<SCITEGIC>MOL_PROPERTY
W(PB)
SciTegic.value.DoubleValue
-61.599

@<SCITEGIC>MOL_PROPERTY
W(SA)
SciTegic.value.DoubleValue
2.488

@<SCITEGIC>MOL_PROPERTY
Valence
SciTegic.value.DoubleValue
8.550

@<SCITEGIC>MOL_PROPERTY
Coulomb
SciTegic.value.DoubleValue
-1.988

@<SCITEGIC>MOL_PROPERTY
VdW
SciTegic.value.DoubleValue
1.139

@<SCITEGIC>MOL_PROPERTY
VdW6
SciTegic.value.DoubleValue
-8.988

@<SCITEGIC>MOL_PROPERTY
VdW12
SciTegic.value.DoubleValue
10.127

@<SCITEGIC>MOL_PROPERTY
Bond
SciTegic.value.DoubleValue
0.191

@<SCITEGIC>MOL_PROPERTY
Angle
SciTegic.value.DoubleValue
2.738

@<SCITEGIC>MOL_PROPERTY
Pdih
SciTegic.value.DoubleValue
5.621

@<SCITEGIC>MOL_PROPERTY
Idih
SciTegic.value.DoubleValue
0.001

@<SCITEGIC>MOL_PROPERTY
Tether
SciTegic.value.DoubleValue
0.000

@<TRIPOS>MOLECULE
guest-8_confgen4.mol2 : confsearch ligand conformer 190
          25          24           1
SMALL
USER_CHARGES
 
@<TRIPOS>ATOM
       1    C1      20.924195   18.112143   26.861123 C.2        1 MOL1         0.6168
       2    O1      21.413791   17.001431   26.800490 O.co2      1 MOL1        -0.6703
       3    O2      19.875829   18.355385   27.425779 O.co2      1 MOL1        -0.6703
       4    C2      21.675177   19.269987   26.209697 C.3        1 MOL1        -0.1963
       5    H1      22.722790   18.975342   26.073811 H          1 MOL1         0.0750
       6    H2      21.670112   20.105481   26.919562 H          1 MOL1         0.0750
       7    C3      21.068423   19.733190   24.859811 C.3        1 MOL1        -0.1860
       8    H3      20.016070   20.004017   25.017529 H          1 MOL1         0.0752
       9    H4      21.585389   20.644433   24.530194 H          1 MOL1         0.0752
      10    C4      21.183634   18.653203   23.757493 C.3        1 MOL1        -0.1858
      11    H5      20.609946   17.761874   24.046866 H          1 MOL1         0.0752
      12    H6      22.231812   18.333862   23.678811 H          1 MOL1         0.0752
      13    C5      20.712546   19.139909   22.366481 C.3        1 MOL1        -0.1858
      14    H7      21.290918   20.025956   22.071090 H          1 MOL1         0.0752
      15    H8      20.942246   18.358895   21.628840 H          1 MOL1         0.0752
      16    C6      19.200877   19.459500   22.305250 C.3        1 MOL1        -0.1858
      17    H9      18.965814   20.290828   22.982425 H          1 MOL1         0.0752
      18    H10     18.627453   18.589649   22.653729 H          1 MOL1         0.0752
      19    C7      18.754131   19.831842   20.875730 C.3        1 MOL1        -0.1834
      20    H11     19.327266   20.700676   20.523451 H          1 MOL1         0.0752
      21    H12     18.976858   19.002863   20.189720 H          1 MOL1         0.0752
      22    C8      17.247286   20.153857   20.817019 C.3        1 MOL1        -0.2849
      23    H13     17.000981   21.001347   21.470072 H          1 MOL1         0.0764
      24    H14     16.947149   20.415827   19.794109 H          1 MOL1         0.0764
      25    H15     16.648511   19.290435   21.135379 H          1 MOL1         0.0764
@<TRIPOS>BOND
    1     1     2    1
    2     1     3    2
    3     1     4    1
    4     4     5    1
    5     4     6    1
    6     4     7    1
    7     7     8    1
    8     7     9    1
    9     7    10    1
   10    10    11    1
   11    10    12    1
   12    10    13    1
   13    13    14    1
   14    13    15    1
   15    13    16    1
   16    16    17    1
   17    16    18    1
   18    16    19    1
   19    19    20    1
   20    19    21    1
   21    19    22    1
   22    22    23    1
   23    22    24    1
   24    22    25    1
@<TRIPOS>SUBSTRUCTURE
       1 MOL1            1 RESIDUE      1      MOL     
@<SCITEGIC>MOL_PROPERTY
VConf Rank
SciTegic.value.IntegerValue
190

@<SCITEGIC>MOL_PROPERTY
Conf_Id
SciTegic.value.IntegerValue
142

@<SCITEGIC>MOL_PROPERTY
Delta U+W
SciTegic.value.DoubleValue
0.593

@<SCITEGIC>MOL_PROPERTY
U+W
SciTegic.value.DoubleValue
-51.037

@<SCITEGIC>MOL_PROPERTY
Grad RMS
SciTegic.value.DoubleValue
0.000000

@<SCITEGIC>MOL_PROPERTY
U
SciTegic.value.DoubleValue
8.903

@<SCITEGIC>MOL_PROPERTY
W
SciTegic.value.DoubleValue
-59.940

@<SCITEGIC>MOL_PROPERTY
W(PB)
SciTegic.value.DoubleValue
-62.418

@<SCITEGIC>MOL_PROPERTY
W(SA)
SciTegic.value.DoubleValue
2.478

@<SCITEGIC>MOL_PROPERTY
Valence
SciTegic.value.DoubleValue
8.305

@<SCITEGIC>MOL_PROPERTY
Coulomb
SciTegic.value.DoubleValue
-0.223

@<SCITEGIC>MOL_PROPERTY
VdW
SciTegic.value.DoubleValue
0.821

@<SCITEGIC>MOL_PROPERTY
VdW6
SciTegic.value.DoubleValue
-9.236

@<SCITEGIC>MOL_PROPERTY
VdW12
SciTegic.value.DoubleValue
10.057

@<SCITEGIC>MOL_PROPERTY
Bond
SciTegic.value.DoubleValue
0.173

@<SCITEGIC>MOL_PROPERTY
Angle
SciTegic.value.DoubleValue
2.663

@<SCITEGIC>MOL_PROPERTY
Pdih
SciTegic.value.DoubleValue
5.469

@<SCITEGIC>MOL_PROPERTY
Idih
SciTegic.value.DoubleValue
0.001

@<SCITEGIC>MOL_PROPERTY
Tether
SciTegic.value.DoubleValue
0.000

@<TRIPOS>MOLECULE
guest-8_confgen4.mol2 : confsearch ligand conformer 191
          25          24           1
SMALL
USER_CHARGES
 
@<TRIPOS>ATOM
       1    C1      19.048462   18.754624   20.132903 C.2        1 MOL1         0.6168
       2    O1      18.003922   18.516495   19.558630 O.co2      1 MOL1        -0.6703
       3    O2      19.846530   19.590610   19.757040 O.co2      1 MOL1        -0.6703
       4    C2      19.386224   17.938727   21.377557 C.3        1 MOL1        -0.1963
       5    H1      20.450210   18.069861   21.605672 H          1 MOL1         0.0750
       6    H2      19.251608   16.881532   21.121165 H          1 MOL1         0.0750
       7    C3      18.515146   18.282492   22.616582 C.3        1 MOL1        -0.1860
       8    H3      17.463444   18.074730   22.375886 H          1 MOL1         0.0752
       9    H4      18.774294   17.604675   23.440144 H          1 MOL1         0.0752
      10    C4      18.632719   19.753072   23.094298 C.3        1 MOL1        -0.1858
      11    H5      17.978042   19.894386   23.964945 H          1 MOL1         0.0752
      12    H6      18.239741   20.415858   22.311119 H          1 MOL1         0.0752
      13    C5      20.064318   20.217023   23.462541 C.3        1 MOL1        -0.1858
      14    H7      20.706722   20.188391   22.572231 H          1 MOL1         0.0752
      15    H8      20.017420   21.271067   23.768029 H          1 MOL1         0.0752
      16    C6      20.707950   19.392018   24.600860 C.3        1 MOL1        -0.1858
      17    H9      20.828643   18.348221   24.283012 H          1 MOL1         0.0752
      18    H10     20.040814   19.387587   25.473548 H          1 MOL1         0.0752
      19    C7      22.085125   19.957716   25.006829 C.3        1 MOL1        -0.1834
      20    H11     22.753278   19.965487   24.134483 H          1 MOL1         0.0752
      21    H12     21.975660   21.000769   25.334595 H          1 MOL1         0.0752
      22    C8      22.728379   19.130311   26.137898 C.3        1 MOL1        -0.2849
      23    H13     22.879267   18.088679   25.825486 H          1 MOL1         0.0764
      24    H14     23.706012   19.546424   26.413795 H          1 MOL1         0.0764
      25    H15     22.094412   19.131004   27.034246 H          1 MOL1         0.0764
@<TRIPOS>BOND
    1     1     2    1
    2     1     3    2
    3     1     4    1
    4     4     5    1
    5     4     6    1
    6     4     7    1
    7     7     8    1
    8     7     9    1
    9     7    10    1
   10    10    11    1
   11    10    12    1
   12    10    13    1
   13    13    14    1
   14    13    15    1
   15    13    16    1
   16    16    17    1
   17    16    18    1
   18    16    19    1
   19    19    20    1
   20    19    21    1
   21    19    22    1
   22    22    23    1
   23    22    24    1
   24    22    25    1
@<TRIPOS>SUBSTRUCTURE
       1 MOL1            1 RESIDUE      1      MOL     
@<SCITEGIC>MOL_PROPERTY
VConf Rank
SciTegic.value.IntegerValue
191

@<SCITEGIC>MOL_PROPERTY
Conf_Id
SciTegic.value.IntegerValue
135

@<SCITEGIC>MOL_PROPERTY
Delta U+W
SciTegic.value.DoubleValue
1.314

@<SCITEGIC>MOL_PROPERTY
U+W
SciTegic.value.DoubleValue
-50.316

@<SCITEGIC>MOL_PROPERTY
Grad RMS
SciTegic.value.DoubleValue
0.000000

@<SCITEGIC>MOL_PROPERTY
U
SciTegic.value.DoubleValue
9.773

@<SCITEGIC>MOL_PROPERTY
W
SciTegic.value.DoubleValue
-60.088

@<SCITEGIC>MOL_PROPERTY
W(PB)
SciTegic.value.DoubleValue
-62.535

@<SCITEGIC>MOL_PROPERTY
W(SA)
SciTegic.value.DoubleValue
2.447

@<SCITEGIC>MOL_PROPERTY
Valence
SciTegic.value.DoubleValue
8.741

@<SCITEGIC>MOL_PROPERTY
Coulomb
SciTegic.value.DoubleValue
0.479

@<SCITEGIC>MOL_PROPERTY
VdW
SciTegic.value.DoubleValue
0.552

@<SCITEGIC>MOL_PROPERTY
VdW6
SciTegic.value.DoubleValue
-10.627

@<SCITEGIC>MOL_PROPERTY
VdW12
SciTegic.value.DoubleValue
11.179

@<SCITEGIC>MOL_PROPERTY
Bond
SciTegic.value.DoubleValue
0.227

@<SCITEGIC>MOL_PROPERTY
Angle
SciTegic.value.DoubleValue
3.155

@<SCITEGIC>MOL_PROPERTY
Pdih
SciTegic.value.DoubleValue
5.358

@<SCITEGIC>MOL_PROPERTY
Idih
SciTegic.value.DoubleValue
0.001

@<SCITEGIC>MOL_PROPERTY
Tether
SciTegic.value.DoubleValue
0.000

@<TRIPOS>MOLECULE
guest-8_confgen4.mol2 : confsearch ligand conformer 192
          25          24           1
SMALL
USER_CHARGES
 
@<TRIPOS>ATOM
       1    C1      21.368457   19.144035   19.242938 C.2        1 MOL1         0.6168
       2    O1      22.463453   18.640336   19.087983 O.co2      1 MOL1        -0.6703
       3    O2      20.556858   19.278574   18.348524 O.co2      1 MOL1        -0.6703
       4    C2      20.982637   19.612479   20.641468 C.3        1 MOL1        -0.1963
       5    H1      20.313120   20.474708   20.538238 H          1 MOL1         0.0750
       6    H2      21.893926   19.965411   21.136607 H          1 MOL1         0.0750
       7    C3      20.297669   18.500336   21.477999 C.3        1 MOL1        -0.1860
       8    H3      19.447037   18.105481   20.905321 H          1 MOL1         0.0752
       9    H4      20.993834   17.661568   21.616218 H          1 MOL1         0.0752
      10    C4      19.782549   18.985992   22.854126 C.3        1 MOL1        -0.1858
      11    H5      19.184659   18.177780   23.293796 H          1 MOL1         0.0752
      12    H6      19.106485   19.840525   22.715244 H          1 MOL1         0.0752
      13    C5      20.915223   19.366303   23.837424 C.3        1 MOL1        -0.1858
      14    H7      21.551975   18.489312   24.016392 H          1 MOL1         0.0752
      15    H8      21.559509   20.126709   23.379000 H          1 MOL1         0.0752
      16    C6      20.417083   19.925548   25.194099 C.3        1 MOL1        -0.1858
      17    H9      19.856746   20.856828   25.033949 H          1 MOL1         0.0752
      18    H10     21.302658   20.208023   25.779622 H          1 MOL1         0.0752
      19    C7      19.578611   18.932961   26.037862 C.3        1 MOL1        -0.1834
      20    H11     19.849957   17.897526   25.789908 H          1 MOL1         0.0752
      21    H12     19.833790   19.069534   27.097830 H          1 MOL1         0.0752
      22    C8      18.055308   19.139899   25.882966 C.3        1 MOL1        -0.2849
      23    H13     17.728991   19.008889   24.844953 H          1 MOL1         0.0764
      24    H14     17.504934   18.419110   26.501316 H          1 MOL1         0.0764
      25    H15     17.764244   20.148511   26.204004 H          1 MOL1         0.0764
@<TRIPOS>BOND
    1     1     2    1
    2     1     3    2
    3     1     4    1
    4     4     5    1
    5     4     6    1
    6     4     7    1
    7     7     8    1
    8     7     9    1
    9     7    10    1
   10    10    11    1
   11    10    12    1
   12    10    13    1
   13    13    14    1
   14    13    15    1
   15    13    16    1
   16    16    17    1
   17    16    18    1
   18    16    19    1
   19    19    20    1
   20    19    21    1
   21    19    22    1
   22    22    23    1
   23    22    24    1
   24    22    25    1
@<TRIPOS>SUBSTRUCTURE
       1 MOL1            1 RESIDUE      1      MOL     
@<SCITEGIC>MOL_PROPERTY
VConf Rank
SciTegic.value.IntegerValue
192

@<SCITEGIC>MOL_PROPERTY
Conf_Id
SciTegic.value.IntegerValue
19

@<SCITEGIC>MOL_PROPERTY
Delta U+W
SciTegic.value.DoubleValue
3.222

@<SCITEGIC>MOL_PROPERTY
U+W
SciTegic.value.DoubleValue
-48.407

@<SCITEGIC>MOL_PROPERTY
Grad RMS
SciTegic.value.DoubleValue
0.000000

@<SCITEGIC>MOL_PROPERTY
U
SciTegic.value.DoubleValue
10.617

@<SCITEGIC>MOL_PROPERTY
W
SciTegic.value.DoubleValue
-59.025

@<SCITEGIC>MOL_PROPERTY
W(PB)
SciTegic.value.DoubleValue
-61.462

@<SCITEGIC>MOL_PROPERTY
W(SA)
SciTegic.value.DoubleValue
2.437

@<SCITEGIC>MOL_PROPERTY
Valence
SciTegic.value.DoubleValue
11.188

@<SCITEGIC>MOL_PROPERTY
Coulomb
SciTegic.value.DoubleValue
-1.778

@<SCITEGIC>MOL_PROPERTY
VdW
SciTegic.value.DoubleValue
1.208

@<SCITEGIC>MOL_PROPERTY
VdW6
SciTegic.value.DoubleValue
-9.786

@<SCITEGIC>MOL_PROPERTY
VdW12
SciTegic.value.DoubleValue
10.993

@<SCITEGIC>MOL_PROPERTY
Bond
SciTegic.value.DoubleValue
0.241

@<SCITEGIC>MOL_PROPERTY
Angle
SciTegic.value.DoubleValue
3.294

@<SCITEGIC>MOL_PROPERTY
Pdih
SciTegic.value.DoubleValue
7.653

@<SCITEGIC>MOL_PROPERTY
Idih
SciTegic.value.DoubleValue
0.001

@<SCITEGIC>MOL_PROPERTY
Tether
SciTegic.value.DoubleValue
0.000

@<TRIPOS>MOLECULE
guest-8_confgen4.mol2 : confsearch ligand conformer 193
          25          24           1
SMALL
USER_CHARGES
 
@<TRIPOS>ATOM
       1    C1      19.791747   18.955371   27.454163 C.2        1 MOL1         0.6168
       2    O1      20.531700   18.127364   27.947737 O.co2      1 MOL1        -0.6703
       3    O2      18.811528   19.402327   28.016454 O.co2      1 MOL1        -0.6703
       4    C2      20.096710   19.443254   26.042373 C.3        1 MOL1        -0.1963
       5    H1      21.185340   19.445317   25.919689 H          1 MOL1         0.0750
       6    H2      19.757773   20.482944   25.961665 H          1 MOL1         0.0750
       7    C3      19.421719   18.574079   24.949326 C.3        1 MOL1        -0.1860
       8    H3      19.804028   17.545648   25.008079 H          1 MOL1         0.0752
       9    H4      18.345364   18.516897   25.162951 H          1 MOL1         0.0752
      10    C4      19.611072   19.122362   23.514590 C.3        1 MOL1        -0.1858
      11    H5      19.251357   20.159028   23.464502 H          1 MOL1         0.0752
      12    H6      18.973928   18.533617   22.842715 H          1 MOL1         0.0752
      13    C5      21.073502   19.048732   23.014249 C.3        1 MOL1        -0.1858
      14    H7      21.729009   19.578223   23.716692 H          1 MOL1         0.0752
      15    H8      21.405368   18.001614   23.011731 H          1 MOL1         0.0752
      16    C6      21.295171   19.661799   21.608374 C.3        1 MOL1        -0.1858
      17    H9      22.369592   19.600778   21.387544 H          1 MOL1         0.0752
      18    H10     21.054864   20.733681   21.623467 H          1 MOL1         0.0752
      19    C7      20.527388   18.955684   20.462898 C.3        1 MOL1        -0.1834
      20    H11     21.166664   18.938387   19.569407 H          1 MOL1         0.0752
      21    H12     20.337189   17.905024   20.722074 H          1 MOL1         0.0752
      22    C8      19.205617   19.663943   20.090669 C.3        1 MOL1        -0.2849
      23    H13     19.395234   20.691609   19.754471 H          1 MOL1         0.0764
      24    H14     18.701277   19.131461   19.274023 H          1 MOL1         0.0764
      25    H15     18.513505   19.708831   20.939247 H          1 MOL1         0.0764
@<TRIPOS>BOND
    1     1     2    1
    2     1     3    2
    3     1     4    1
    4     4     5    1
    5     4     6    1
    6     4     7    1
    7     7     8    1
    8     7     9    1
    9     7    10    1
   10    10    11    1
   11    10    12    1
   12    10    13    1
   13    13    14    1
   14    13    15    1
   15    13    16    1
   16    16    17    1
   17    16    18    1
   18    16    19    1
   19    19    20    1
   20    19    21    1
   21    19    22    1
   22    22    23    1
   23    22    24    1
   24    22    25    1
@<TRIPOS>SUBSTRUCTURE
       1 MOL1            1 RESIDUE      1      MOL     
@<SCITEGIC>MOL_PROPERTY
VConf Rank
SciTegic.value.IntegerValue
193

@<SCITEGIC>MOL_PROPERTY
Conf_Id
SciTegic.value.IntegerValue
20

@<SCITEGIC>MOL_PROPERTY
Delta U+W
SciTegic.value.DoubleValue
3.224

@<SCITEGIC>MOL_PROPERTY
U+W
SciTegic.value.DoubleValue
-48.406

@<SCITEGIC>MOL_PROPERTY
Grad RMS
SciTegic.value.DoubleValue
0.000000

@<SCITEGIC>MOL_PROPERTY
U
SciTegic.value.DoubleValue
10.617

@<SCITEGIC>MOL_PROPERTY
W
SciTegic.value.DoubleValue
-59.023

@<SCITEGIC>MOL_PROPERTY
W(PB)
SciTegic.value.DoubleValue
-61.467

@<SCITEGIC>MOL_PROPERTY
W(SA)
SciTegic.value.DoubleValue
2.444

@<SCITEGIC>MOL_PROPERTY
Valence
SciTegic.value.DoubleValue
11.188

@<SCITEGIC>MOL_PROPERTY
Coulomb
SciTegic.value.DoubleValue
-1.778

@<SCITEGIC>MOL_PROPERTY
VdW
SciTegic.value.DoubleValue
1.208

@<SCITEGIC>MOL_PROPERTY
VdW6
SciTegic.value.DoubleValue
-9.786

@<SCITEGIC>MOL_PROPERTY
VdW12
SciTegic.value.DoubleValue
10.993

@<SCITEGIC>MOL_PROPERTY
Bond
SciTegic.value.DoubleValue
0.241

@<SCITEGIC>MOL_PROPERTY
Angle
SciTegic.value.DoubleValue
3.294

@<SCITEGIC>MOL_PROPERTY
Pdih
SciTegic.value.DoubleValue
7.653

@<SCITEGIC>MOL_PROPERTY
Idih
SciTegic.value.DoubleValue
0.001

@<SCITEGIC>MOL_PROPERTY
Tether
SciTegic.value.DoubleValue
0.000

@<TRIPOS>MOLECULE
guest-8_confgen4.mol2 : confsearch ligand conformer 194
          25          24           1
SMALL
USER_CHARGES
 
@<TRIPOS>ATOM
       1    C1      20.814490   20.501393   26.373712 C.2        1 MOL1         0.6168
       2    O1      19.796628   20.708147   27.005261 O.co2      1 MOL1        -0.6703
       3    O2      21.441958   21.375241   25.808123 O.co2      1 MOL1        -0.6703
       4    C2      21.372473   19.079739   26.342952 C.3        1 MOL1        -0.1963
       5    H1      21.628268   18.826819   27.378358 H          1 MOL1         0.0750
       6    H2      22.312512   19.077861   25.778051 H          1 MOL1         0.0750
       7    C3      20.405095   17.999379   25.782496 C.3        1 MOL1        -0.1860
       8    H3      20.747427   17.019116   26.140718 H          1 MOL1         0.0752
       9    H4      19.400427   18.141020   26.204602 H          1 MOL1         0.0752
      10    C4      20.327482   17.935806   24.236851 C.3        1 MOL1        -0.1858
      11    H5      19.741165   17.048859   23.960191 H          1 MOL1         0.0752
      12    H6      21.333136   17.782461   23.822148 H          1 MOL1         0.0752
      13    C5      19.681874   19.180349   23.586520 C.3        1 MOL1        -0.1858
      14    H7      18.721197   19.395077   24.074412 H          1 MOL1         0.0752
      15    H8      20.323865   20.056760   23.740651 H          1 MOL1         0.0752
      16    C6      19.460097   18.982815   22.071144 C.3        1 MOL1        -0.1858
      17    H9      18.811140   18.112132   21.904613 H          1 MOL1         0.0752
      18    H10     20.420997   18.763438   21.585781 H          1 MOL1         0.0752
      19    C7      18.825978   20.229263   21.418736 C.3        1 MOL1        -0.1834
      20    H11     17.864105   20.450941   21.901558 H          1 MOL1         0.0752
      21    H12     19.473324   21.102157   21.581844 H          1 MOL1         0.0752
      22    C8      18.606237   20.029346   19.905655 C.3        1 MOL1        -0.2849
      23    H13     17.936162   19.180851   19.714799 H          1 MOL1         0.0764
      24    H14     18.155097   20.924714   19.458606 H          1 MOL1         0.0764
      25    H15     19.557675   19.837041   19.392664 H          1 MOL1         0.0764
@<TRIPOS>BOND
    1     1     2    1
    2     1     3    2
    3     1     4    1
    4     4     5    1
    5     4     6    1
    6     4     7    1
    7     7     8    1
    8     7     9    1
    9     7    10    1
   10    10    11    1
   11    10    12    1
   12    10    13    1
   13    13    14    1
   14    13    15    1
   15    13    16    1
   16    16    17    1
   17    16    18    1
   18    16    19    1
   19    19    20    1
   20    19    21    1
   21    19    22    1
   22    22    23    1
   23    22    24    1
   24    22    25    1
@<TRIPOS>SUBSTRUCTURE
       1 MOL1            1 RESIDUE      1      MOL     
@<SCITEGIC>MOL_PROPERTY
VConf Rank
SciTegic.value.IntegerValue
194

@<SCITEGIC>MOL_PROPERTY
Conf_Id
SciTegic.value.IntegerValue
24

@<SCITEGIC>MOL_PROPERTY
Delta U+W
SciTegic.value.DoubleValue
1.784

@<SCITEGIC>MOL_PROPERTY
U+W
SciTegic.value.DoubleValue
-49.846

@<SCITEGIC>MOL_PROPERTY
Grad RMS
SciTegic.value.DoubleValue
0.000000

@<SCITEGIC>MOL_PROPERTY
U
SciTegic.value.DoubleValue
10.904

@<SCITEGIC>MOL_PROPERTY
W
SciTegic.value.DoubleValue
-60.749

@<SCITEGIC>MOL_PROPERTY
W(PB)
SciTegic.value.DoubleValue
-63.220

@<SCITEGIC>MOL_PROPERTY
W(SA)
SciTegic.value.DoubleValue
2.471

@<SCITEGIC>MOL_PROPERTY
Valence
SciTegic.value.DoubleValue
9.445

@<SCITEGIC>MOL_PROPERTY
Coulomb
SciTegic.value.DoubleValue
0.780

@<SCITEGIC>MOL_PROPERTY
VdW
SciTegic.value.DoubleValue
0.679

@<SCITEGIC>MOL_PROPERTY
VdW6
SciTegic.value.DoubleValue
-10.008

@<SCITEGIC>MOL_PROPERTY
VdW12
SciTegic.value.DoubleValue
10.687

@<SCITEGIC>MOL_PROPERTY
Bond
SciTegic.value.DoubleValue
0.201

@<SCITEGIC>MOL_PROPERTY
Angle
SciTegic.value.DoubleValue
3.198

@<SCITEGIC>MOL_PROPERTY
Pdih
SciTegic.value.DoubleValue
6.039

@<SCITEGIC>MOL_PROPERTY
Idih
SciTegic.value.DoubleValue
0.006

@<SCITEGIC>MOL_PROPERTY
Tether
SciTegic.value.DoubleValue
0.000

@<TRIPOS>MOLECULE
guest-8_confgen4.mol2 : confsearch ligand conformer 195
          25          24           1
SMALL
USER_CHARGES
 
@<TRIPOS>ATOM
       1    C1      23.181263   18.647960   22.598884 C.2        1 MOL1         0.6168
       2    O1      23.265611   17.520995   22.151136 O.co2      1 MOL1        -0.6703
       3    O2      23.095396   19.641134   21.903579 O.co2      1 MOL1        -0.6703
       4    C2      23.253886   18.833687   24.113355 C.3        1 MOL1        -0.1963
       5    H1      23.214640   19.905285   24.343408 H          1 MOL1         0.0750
       6    H2      24.246403   18.483347   24.419360 H          1 MOL1         0.0750
       7    C3      22.173683   18.067928   24.928141 C.3        1 MOL1        -0.1860
       8    H3      22.074253   17.042095   24.546859 H          1 MOL1         0.0752
       9    H4      22.533110   17.972186   25.961618 H          1 MOL1         0.0752
      10    C4      20.785969   18.754444   24.973207 C.3        1 MOL1        -0.1858
      11    H5      20.890874   19.774855   25.366387 H          1 MOL1         0.0752
      12    H6      20.158354   18.209915   25.691935 H          1 MOL1         0.0752
      13    C5      20.058543   18.795445   23.610197 C.3        1 MOL1        -0.1858
      14    H7      20.605182   19.445423   22.915416 H          1 MOL1         0.0752
      15    H8      20.046216   17.789694   23.168202 H          1 MOL1         0.0752
      16    C6      18.611871   19.317071   23.750258 C.3        1 MOL1        -0.1858
      17    H9      18.625943   20.320758   24.196851 H          1 MOL1         0.0752
      18    H10     18.051788   18.668552   24.437786 H          1 MOL1         0.0752
      19    C7      17.888406   19.369246   22.388183 C.3        1 MOL1        -0.1834
      20    H11     18.444953   20.018653   21.698161 H          1 MOL1         0.0752
      21    H12     17.872024   18.366504   21.939075 H          1 MOL1         0.0752
      22    C8      16.444373   19.890807   22.531056 C.3        1 MOL1        -0.2849
      23    H13     16.433013   20.905891   22.949207 H          1 MOL1         0.0764
      24    H14     15.945570   19.921305   21.553647 H          1 MOL1         0.0764
      25    H15     15.855685   19.241123   23.191910 H          1 MOL1         0.0764
@<TRIPOS>BOND
    1     1     2    1
    2     1     3    2
    3     1     4    1
    4     4     5    1
    5     4     6    1
    6     4     7    1
    7     7     8    1
    8     7     9    1
    9     7    10    1
   10    10    11    1
   11    10    12    1
   12    10    13    1
   13    13    14    1
   14    13    15    1
   15    13    16    1
   16    16    17    1
   17    16    18    1
   18    16    19    1
   19    19    20    1
   20    19    21    1
   21    19    22    1
   22    22    23    1
   23    22    24    1
   24    22    25    1
@<TRIPOS>SUBSTRUCTURE
       1 MOL1            1 RESIDUE      1      MOL     
@<SCITEGIC>MOL_PROPERTY
VConf Rank
SciTegic.value.IntegerValue
195

@<SCITEGIC>MOL_PROPERTY
Conf_Id
SciTegic.value.IntegerValue
9

@<SCITEGIC>MOL_PROPERTY
Delta U+W
SciTegic.value.DoubleValue
1.764

@<SCITEGIC>MOL_PROPERTY
U+W
SciTegic.value.DoubleValue
-49.865

@<SCITEGIC>MOL_PROPERTY
Grad RMS
SciTegic.value.DoubleValue
0.000000

@<SCITEGIC>MOL_PROPERTY
U
SciTegic.value.DoubleValue
10.902

@<SCITEGIC>MOL_PROPERTY
W
SciTegic.value.DoubleValue
-60.768

@<SCITEGIC>MOL_PROPERTY
W(PB)
SciTegic.value.DoubleValue
-63.223

@<SCITEGIC>MOL_PROPERTY
W(SA)
SciTegic.value.DoubleValue
2.456

@<SCITEGIC>MOL_PROPERTY
Valence
SciTegic.value.DoubleValue
9.445

@<SCITEGIC>MOL_PROPERTY
Coulomb
SciTegic.value.DoubleValue
0.778

@<SCITEGIC>MOL_PROPERTY
VdW
SciTegic.value.DoubleValue
0.679

@<SCITEGIC>MOL_PROPERTY
VdW6
SciTegic.value.DoubleValue
-10.007

@<SCITEGIC>MOL_PROPERTY
VdW12
SciTegic.value.DoubleValue
10.687

@<SCITEGIC>MOL_PROPERTY
Bond
SciTegic.value.DoubleValue
0.201

@<SCITEGIC>MOL_PROPERTY
Angle
SciTegic.value.DoubleValue
3.198

@<SCITEGIC>MOL_PROPERTY
Pdih
SciTegic.value.DoubleValue
6.040

@<SCITEGIC>MOL_PROPERTY
Idih
SciTegic.value.DoubleValue
0.006

@<SCITEGIC>MOL_PROPERTY
Tether
SciTegic.value.DoubleValue
0.000

@<TRIPOS>MOLECULE
guest-8_confgen4.mol2 : confsearch ligand conformer 196
          25          24           1
SMALL
USER_CHARGES
 
@<TRIPOS>ATOM
       1    C1      23.536561   19.985098   24.042696 C.2        1 MOL1         0.6168
       2    O1      23.686617   20.382053   22.904050 O.co2      1 MOL1        -0.6703
       3    O2      24.314457   20.221140   24.946029 O.co2      1 MOL1        -0.6703
       4    C2      22.293176   19.162524   24.360628 C.3        1 MOL1        -0.1963
       5    H1      22.556325   18.441136   25.143321 H          1 MOL1         0.0750
       6    H2      22.036993   18.584600   23.467411 H          1 MOL1         0.0750
       7    C3      21.098019   20.037094   24.823636 C.3        1 MOL1        -0.1860
       8    H3      21.409943   20.585924   25.723039 H          1 MOL1         0.0752
       9    H4      20.870085   20.798626   24.065000 H          1 MOL1         0.0752
      10    C4      19.826234   19.217514   25.160002 C.3        1 MOL1        -0.1858
      11    H5      19.318004   19.706640   26.002246 H          1 MOL1         0.0752
      12    H6      20.101397   18.216277   25.518679 H          1 MOL1         0.0752
      13    C5      18.803505   19.106477   24.001357 C.3        1 MOL1        -0.1858
      14    H7      17.913749   18.582426   24.375862 H          1 MOL1         0.0752
      15    H8      18.472474   20.114288   23.718229 H          1 MOL1         0.0752
      16    C6      19.335525   18.362803   22.753528 C.3        1 MOL1        -0.1858
      17    H9      19.804124   17.420837   23.068982 H          1 MOL1         0.0752
      18    H10     20.118086   18.961974   22.269956 H          1 MOL1         0.0752
      19    C7      18.233985   18.042475   21.716449 C.3        1 MOL1        -0.1834
      20    H11     18.671267   17.432196   20.914259 H          1 MOL1         0.0752
      21    H12     17.452265   17.427330   22.183078 H          1 MOL1         0.0752
      22    C8      17.598689   19.304181   21.092893 C.3        1 MOL1        -0.2849
      23    H13     18.365219   19.947722   20.641859 H          1 MOL1         0.0764
      24    H14     16.884833   19.026406   20.306700 H          1 MOL1         0.0764
      25    H15     17.054822   19.890865   21.843814 H          1 MOL1         0.0764
@<TRIPOS>BOND
    1     1     2    1
    2     1     3    2
    3     1     4    1
    4     4     5    1
    5     4     6    1
    6     4     7    1
    7     7     8    1
    8     7     9    1
    9     7    10    1
   10    10    11    1
   11    10    12    1
   12    10    13    1
   13    13    14    1
   14    13    15    1
   15    13    16    1
   16    16    17    1
   17    16    18    1
   18    16    19    1
   19    19    20    1
   20    19    21    1
   21    19    22    1
   22    22    23    1
   23    22    24    1
   24    22    25    1
@<TRIPOS>SUBSTRUCTURE
       1 MOL1            1 RESIDUE      1      MOL     
@<SCITEGIC>MOL_PROPERTY
VConf Rank
SciTegic.value.IntegerValue
196

@<SCITEGIC>MOL_PROPERTY
Conf_Id
SciTegic.value.IntegerValue
89

@<SCITEGIC>MOL_PROPERTY
Delta U+W
SciTegic.value.DoubleValue
2.903

@<SCITEGIC>MOL_PROPERTY
U+W
SciTegic.value.DoubleValue
-48.726

@<SCITEGIC>MOL_PROPERTY
Grad RMS
SciTegic.value.DoubleValue
0.000000

@<SCITEGIC>MOL_PROPERTY
U
SciTegic.value.DoubleValue
10.996

@<SCITEGIC>MOL_PROPERTY
W
SciTegic.value.DoubleValue
-59.723

@<SCITEGIC>MOL_PROPERTY
W(PB)
SciTegic.value.DoubleValue
-62.151

@<SCITEGIC>MOL_PROPERTY
W(SA)
SciTegic.value.DoubleValue
2.428

@<SCITEGIC>MOL_PROPERTY
Valence
SciTegic.value.DoubleValue
10.985

@<SCITEGIC>MOL_PROPERTY
Coulomb
SciTegic.value.DoubleValue
-0.995

@<SCITEGIC>MOL_PROPERTY
VdW
SciTegic.value.DoubleValue
1.006

@<SCITEGIC>MOL_PROPERTY
VdW6
SciTegic.value.DoubleValue
-10.062

@<SCITEGIC>MOL_PROPERTY
VdW12
SciTegic.value.DoubleValue
11.069

@<SCITEGIC>MOL_PROPERTY
Bond
SciTegic.value.DoubleValue
0.238

@<SCITEGIC>MOL_PROPERTY
Angle
SciTegic.value.DoubleValue
3.202

@<SCITEGIC>MOL_PROPERTY
Pdih
SciTegic.value.DoubleValue
7.544

@<SCITEGIC>MOL_PROPERTY
Idih
SciTegic.value.DoubleValue
0.001

@<SCITEGIC>MOL_PROPERTY
Tether
SciTegic.value.DoubleValue
0.000

@<TRIPOS>MOLECULE
guest-8_confgen4.mol2 : confsearch ligand conformer 197
          25          24           1
SMALL
USER_CHARGES
 
@<TRIPOS>ATOM
       1    C1      21.520916   16.977832   25.881219 C.2        1 MOL1         0.6168
       2    O1      22.442700   16.535246   25.224186 O.co2      1 MOL1        -0.6703
       3    O2      21.672921   17.680482   26.861416 O.co2      1 MOL1        -0.6703
       4    C2      20.100105   16.575491   25.490497 C.3        1 MOL1        -0.1963
       5    H1      19.707826   15.983680   26.325575 H          1 MOL1         0.0750
       6    H2      20.144583   15.904340   24.624270 H          1 MOL1         0.0750
       7    C3      19.129245   17.756750   25.208293 C.3        1 MOL1        -0.1860
       8    H3      18.102287   17.384372   25.322902 H          1 MOL1         0.0752
       9    H4      19.254200   18.536218   25.972746 H          1 MOL1         0.0752
      10    C4      19.249153   18.376201   23.793430 C.3        1 MOL1        -0.1858
      11    H5      18.409557   19.070075   23.662529 H          1 MOL1         0.0752
      12    H6      19.122876   17.591827   23.034902 H          1 MOL1         0.0752
      13    C5      20.578724   19.129506   23.546132 C.3        1 MOL1        -0.1858
      14    H7      20.739185   19.874199   24.337621 H          1 MOL1         0.0752
      15    H8      21.413027   18.420602   23.611161 H          1 MOL1         0.0752
      16    C6      20.651325   19.817125   22.161472 C.3        1 MOL1        -0.1858
      17    H9      20.458401   19.077636   21.372319 H          1 MOL1         0.0752
      18    H10     21.678585   20.174478   22.006753 H          1 MOL1         0.0752
      19    C7      19.681003   21.010748   22.009221 C.3        1 MOL1        -0.1834
      20    H11     18.640976   20.666611   22.077368 H          1 MOL1         0.0752
      21    H12     19.837810   21.722714   22.831233 H          1 MOL1         0.0752
      22    C8      19.881038   21.733158   20.661555 C.3        1 MOL1        -0.2849
      23    H13     19.703907   21.050329   19.820284 H          1 MOL1         0.0764
      24    H14     19.183578   22.575573   20.567022 H          1 MOL1         0.0764
      25    H15     20.901967   22.127398   20.574249 H          1 MOL1         0.0764
@<TRIPOS>BOND
    1     1     2    1
    2     1     3    2
    3     1     4    1
    4     4     5    1
    5     4     6    1
    6     4     7    1
    7     7     8    1
    8     7     9    1
    9     7    10    1
   10    10    11    1
   11    10    12    1
   12    10    13    1
   13    13    14    1
   14    13    15    1
   15    13    16    1
   16    16    17    1
   17    16    18    1
   18    16    19    1
   19    19    20    1
   20    19    21    1
   21    19    22    1
   22    22    23    1
   23    22    24    1
   24    22    25    1
@<TRIPOS>SUBSTRUCTURE
       1 MOL1            1 RESIDUE      1      MOL     
@<SCITEGIC>MOL_PROPERTY
VConf Rank
SciTegic.value.IntegerValue
197

@<SCITEGIC>MOL_PROPERTY
Conf_Id
SciTegic.value.IntegerValue
114

@<SCITEGIC>MOL_PROPERTY
Delta U+W
SciTegic.value.DoubleValue
2.758

@<SCITEGIC>MOL_PROPERTY
U+W
SciTegic.value.DoubleValue
-48.871

@<SCITEGIC>MOL_PROPERTY
Grad RMS
SciTegic.value.DoubleValue
0.000000

@<SCITEGIC>MOL_PROPERTY
U
SciTegic.value.DoubleValue
11.422

@<SCITEGIC>MOL_PROPERTY
W
SciTegic.value.DoubleValue
-60.293

@<SCITEGIC>MOL_PROPERTY
W(PB)
SciTegic.value.DoubleValue
-62.719

@<SCITEGIC>MOL_PROPERTY
W(SA)
SciTegic.value.DoubleValue
2.425

@<SCITEGIC>MOL_PROPERTY
Valence
SciTegic.value.DoubleValue
10.135

@<SCITEGIC>MOL_PROPERTY
Coulomb
SciTegic.value.DoubleValue
0.369

@<SCITEGIC>MOL_PROPERTY
VdW
SciTegic.value.DoubleValue
0.918

@<SCITEGIC>MOL_PROPERTY
VdW6
SciTegic.value.DoubleValue
-10.482

@<SCITEGIC>MOL_PROPERTY
VdW12
SciTegic.value.DoubleValue
11.400

@<SCITEGIC>MOL_PROPERTY
Bond
SciTegic.value.DoubleValue
0.245

@<SCITEGIC>MOL_PROPERTY
Angle
SciTegic.value.DoubleValue
3.539

@<SCITEGIC>MOL_PROPERTY
Pdih
SciTegic.value.DoubleValue
6.346

@<SCITEGIC>MOL_PROPERTY
Idih
SciTegic.value.DoubleValue
0.006

@<SCITEGIC>MOL_PROPERTY
Tether
SciTegic.value.DoubleValue
0.000

@<TRIPOS>MOLECULE
guest-8_confgen4.mol2 : confsearch ligand conformer 198
          25          24           1
SMALL
USER_CHARGES
 
@<TRIPOS>ATOM
       1    C1      22.781194   20.922153   21.241782 C.2        1 MOL1         0.6168
       2    O1      23.253834   20.078226   20.505942 O.co2      1 MOL1        -0.6703
       3    O2      22.172518   21.896308   20.844754 O.co2      1 MOL1        -0.6703
       4    C2      22.979513   20.762653   22.746501 C.3        1 MOL1        -0.1963
       5    H1      23.283399   21.738593   23.142951 H          1 MOL1         0.0750
       6    H2      23.816946   20.075641   22.918249 H          1 MOL1         0.0750
       7    C3      21.716639   20.268197   23.498592 C.3        1 MOL1        -0.1860
       8    H3      21.907365   20.306692   24.579514 H          1 MOL1         0.0752
       9    H4      20.889557   20.961374   23.296684 H          1 MOL1         0.0752
      10    C4      21.317847   18.826623   23.100995 C.3        1 MOL1        -0.1858
      11    H5      22.190142   18.170080   23.223040 H          1 MOL1         0.0752
      12    H6      21.052632   18.792547   22.035255 H          1 MOL1         0.0752
      13    C5      20.151781   18.252710   23.940994 C.3        1 MOL1        -0.1858
      14    H7      20.043377   17.190351   23.688356 H          1 MOL1         0.0752
      15    H8      20.410893   18.294377   25.007600 H          1 MOL1         0.0752
      16    C6      18.804363   18.977650   23.701268 C.3        1 MOL1        -0.1858
      17    H9      18.547567   18.938787   22.633922 H          1 MOL1         0.0752
      18    H10     18.909970   20.039316   23.957735 H          1 MOL1         0.0752
      19    C7      17.637889   18.398226   24.535561 C.3        1 MOL1        -0.1834
      20    H11     17.896096   18.424835   25.603227 H          1 MOL1         0.0752
      21    H12     16.761107   19.048898   24.412594 H          1 MOL1         0.0752
      22    C8      17.247314   16.960201   24.130050 C.3        1 MOL1        -0.2849
      23    H13     16.357141   16.634246   24.683447 H          1 MOL1         0.0764
      24    H14     17.018239   16.902709   23.057980 H          1 MOL1         0.0764
      25    H15     18.052487   16.248127   24.349264 H          1 MOL1         0.0764
@<TRIPOS>BOND
    1     1     2    1
    2     1     3    2
    3     1     4    1
    4     4     5    1
    5     4     6    1
    6     4     7    1
    7     7     8    1
    8     7     9    1
    9     7    10    1
   10    10    11    1
   11    10    12    1
   12    10    13    1
   13    13    14    1
   14    13    15    1
   15    13    16    1
   16    16    17    1
   17    16    18    1
   18    16    19    1
   19    19    20    1
   20    19    21    1
   21    19    22    1
   22    22    23    1
   23    22    24    1
   24    22    25    1
@<TRIPOS>SUBSTRUCTURE
       1 MOL1            1 RESIDUE      1      MOL     
@<SCITEGIC>MOL_PROPERTY
VConf Rank
SciTegic.value.IntegerValue
198

@<SCITEGIC>MOL_PROPERTY
Conf_Id
SciTegic.value.IntegerValue
87

@<SCITEGIC>MOL_PROPERTY
Delta U+W
SciTegic.value.DoubleValue
1.453

@<SCITEGIC>MOL_PROPERTY
U+W
SciTegic.value.DoubleValue
-50.176

@<SCITEGIC>MOL_PROPERTY
Grad RMS
SciTegic.value.DoubleValue
0.000000

@<SCITEGIC>MOL_PROPERTY
U
SciTegic.value.DoubleValue
9.763

@<SCITEGIC>MOL_PROPERTY
W
SciTegic.value.DoubleValue
-59.940

@<SCITEGIC>MOL_PROPERTY
W(PB)
SciTegic.value.DoubleValue
-62.392

@<SCITEGIC>MOL_PROPERTY
W(SA)
SciTegic.value.DoubleValue
2.452

@<SCITEGIC>MOL_PROPERTY
Valence
SciTegic.value.DoubleValue
8.883

@<SCITEGIC>MOL_PROPERTY
Coulomb
SciTegic.value.DoubleValue
-0.122

@<SCITEGIC>MOL_PROPERTY
VdW
SciTegic.value.DoubleValue
1.003

@<SCITEGIC>MOL_PROPERTY
VdW6
SciTegic.value.DoubleValue
-9.782

@<SCITEGIC>MOL_PROPERTY
VdW12
SciTegic.value.DoubleValue
10.785

@<SCITEGIC>MOL_PROPERTY
Bond
SciTegic.value.DoubleValue
0.212

@<SCITEGIC>MOL_PROPERTY
Angle
SciTegic.value.DoubleValue
2.940

@<SCITEGIC>MOL_PROPERTY
Pdih
SciTegic.value.DoubleValue
5.730

@<SCITEGIC>MOL_PROPERTY
Idih
SciTegic.value.DoubleValue
0.001

@<SCITEGIC>MOL_PROPERTY
Tether
SciTegic.value.DoubleValue
0.000

@<TRIPOS>MOLECULE
guest-8_confgen4.mol2 : confsearch ligand conformer 199
          25          24           1
SMALL
USER_CHARGES
 
@<TRIPOS>ATOM
       1    C1      23.995362   19.256351   23.812015 C.2        1 MOL1         0.6168
       2    O1      24.392286   18.727864   22.792290 O.co2      1 MOL1        -0.6703
       3    O2      24.596914   20.139449   24.390822 O.co2      1 MOL1        -0.6703
       4    C2      22.659647   18.798888   24.387130 C.3        1 MOL1        -0.1963
       5    H1      22.709582   18.890441   25.478738 H          1 MOL1         0.0750
       6    H2      22.535883   17.734078   24.155965 H          1 MOL1         0.0750
       7    C3      21.459302   19.607464   23.836380 C.3        1 MOL1        -0.1860
       8    H3      21.601133   20.672128   24.067717 H          1 MOL1         0.0752
       9    H4      21.442160   19.516658   22.742193 H          1 MOL1         0.0752
      10    C4      20.117793   19.118881   24.429900 C.3        1 MOL1        -0.1858
      11    H5      20.179117   19.151426   25.526168 H          1 MOL1         0.0752
      12    H6      19.955878   18.065717   24.165258 H          1 MOL1         0.0752
      13    C5      18.900774   19.967678   23.984092 C.3        1 MOL1        -0.1858
      14    H7      18.002587   19.594338   24.493265 H          1 MOL1         0.0752
      15    H8      19.037590   20.997465   24.340869 H          1 MOL1         0.0752
      16    C6      18.642924   20.004337   22.454389 C.3        1 MOL1        -0.1858
      17    H9      19.470971   20.527709   21.958723 H          1 MOL1         0.0752
      18    H10     17.750401   20.615851   22.264805 H          1 MOL1         0.0752
      19    C7      18.450854   18.621325   21.784675 C.3        1 MOL1        -0.1834
      20    H11     18.302251   18.771816   20.706633 H          1 MOL1         0.0752
      21    H12     19.366151   18.022891   21.884377 H          1 MOL1         0.0752
      22    C8      17.248296   17.832830   22.346967 C.3        1 MOL1        -0.2849
      23    H13     16.323960   18.420136   22.272071 H          1 MOL1         0.0764
      24    H14     17.103777   16.900534   21.786016 H          1 MOL1         0.0764
      25    H15     17.403414   17.567115   23.400190 H          1 MOL1         0.0764
@<TRIPOS>BOND
    1     1     2    1
    2     1     3    2
    3     1     4    1
    4     4     5    1
    5     4     6    1
    6     4     7    1
    7     7     8    1
    8     7     9    1
    9     7    10    1
   10    10    11    1
   11    10    12    1
   12    10    13    1
   13    13    14    1
   14    13    15    1
   15    13    16    1
   16    16    17    1
   17    16    18    1
   18    16    19    1
   19    19    20    1
   20    19    21    1
   21    19    22    1
   22    22    23    1
   23    22    24    1
   24    22    25    1
@<TRIPOS>SUBSTRUCTURE
       1 MOL1            1 RESIDUE      1      MOL     
@<SCITEGIC>MOL_PROPERTY
VConf Rank
SciTegic.value.IntegerValue
199

@<SCITEGIC>MOL_PROPERTY
Conf_Id
SciTegic.value.IntegerValue
29

@<SCITEGIC>MOL_PROPERTY
Delta U+W
SciTegic.value.DoubleValue
0.850

@<SCITEGIC>MOL_PROPERTY
U+W
SciTegic.value.DoubleValue
-50.780

@<SCITEGIC>MOL_PROPERTY
Grad RMS
SciTegic.value.DoubleValue
0.000000

@<SCITEGIC>MOL_PROPERTY
U
SciTegic.value.DoubleValue
8.646

@<SCITEGIC>MOL_PROPERTY
W
SciTegic.value.DoubleValue
-59.426

@<SCITEGIC>MOL_PROPERTY
W(PB)
SciTegic.value.DoubleValue
-61.868

@<SCITEGIC>MOL_PROPERTY
W(SA)
SciTegic.value.DoubleValue
2.442

@<SCITEGIC>MOL_PROPERTY
Valence
SciTegic.value.DoubleValue
8.924

@<SCITEGIC>MOL_PROPERTY
Coulomb
SciTegic.value.DoubleValue
-1.171

@<SCITEGIC>MOL_PROPERTY
VdW
SciTegic.value.DoubleValue
0.894

@<SCITEGIC>MOL_PROPERTY
VdW6
SciTegic.value.DoubleValue
-10.223

@<SCITEGIC>MOL_PROPERTY
VdW12
SciTegic.value.DoubleValue
11.117

@<SCITEGIC>MOL_PROPERTY
Bond
SciTegic.value.DoubleValue
0.231

@<SCITEGIC>MOL_PROPERTY
Angle
SciTegic.value.DoubleValue
3.232

@<SCITEGIC>MOL_PROPERTY
Pdih
SciTegic.value.DoubleValue
5.461

@<SCITEGIC>MOL_PROPERTY
Idih
SciTegic.value.DoubleValue
0.001

@<SCITEGIC>MOL_PROPERTY
Tether
SciTegic.value.DoubleValue
0.000

@<TRIPOS>MOLECULE
guest-8_confgen4.mol2 : confsearch ligand conformer 200
          25          24           1
SMALL
USER_CHARGES
 
@<TRIPOS>ATOM
       1    C1      23.635109   17.634637   23.558172 C.2        1 MOL1         0.6168
       2    O1      24.065773   17.846998   22.441876 O.co2      1 MOL1        -0.6703
       3    O2      23.948179   16.670569   24.228470 O.co2      1 MOL1        -0.6703
       4    C2      22.631858   18.622512   24.142776 C.3        1 MOL1        -0.1963
       5    H1      22.868553   19.619645   23.752550 H          1 MOL1         0.0750
       6    H2      22.779617   18.655444   25.228854 H          1 MOL1         0.0750
       7    C3      21.164138   18.255080   23.813007 C.3        1 MOL1        -0.1860
       8    H3      21.046215   18.208838   22.722254 H          1 MOL1         0.0752
       9    H4      20.944187   17.251465   24.202262 H          1 MOL1         0.0752
      10    C4      20.168929   19.276198   24.410933 C.3        1 MOL1        -0.1858
      11    H5      20.362131   20.272529   23.992120 H          1 MOL1         0.0752
      12    H6      20.348777   19.359922   25.491333 H          1 MOL1         0.0752
      13    C5      18.684305   18.891079   24.192042 C.3        1 MOL1        -0.1858
      14    H7      18.487454   17.937123   24.699674 H          1 MOL1         0.0752
      15    H8      18.048215   19.631314   24.694859 H          1 MOL1         0.0752
      16    C6      18.244581   18.762432   22.709505 C.3        1 MOL1        -0.1858
      17    H9      17.176540   18.507393   22.682447 H          1 MOL1         0.0752
      18    H10     18.763716   17.911726   22.249001 H          1 MOL1         0.0752
      19    C7      18.478101   20.022853   21.840632 C.3        1 MOL1        -0.1834
      20    H11     19.551533   20.246171   21.779725 H          1 MOL1         0.0752
      21    H12     18.154374   19.805191   20.813633 H          1 MOL1         0.0752
      22    C8      17.715007   21.264850   22.349716 C.3        1 MOL1        -0.2849
      23    H13     18.082781   21.582966   23.333327 H          1 MOL1         0.0764
      24    H14     17.845135   22.106468   21.657276 H          1 MOL1         0.0764
      25    H15     16.640212   21.058248   22.433778 H          1 MOL1         0.0764
@<TRIPOS>BOND
    1     1     2    1
    2     1     3    2
    3     1     4    1
    4     4     5    1
    5     4     6    1
    6     4     7    1
    7     7     8    1
    8     7     9    1
    9     7    10    1
   10    10    11    1
   11    10    12    1
   12    10    13    1
   13    13    14    1
   14    13    15    1
   15    13    16    1
   16    16    17    1
   17    16    18    1
   18    16    19    1
   19    19    20    1
   20    19    21    1
   21    19    22    1
   22    22    23    1
   23    22    24    1
   24    22    25    1
@<TRIPOS>SUBSTRUCTURE
       1 MOL1            1 RESIDUE      1      MOL     
@<SCITEGIC>MOL_PROPERTY
VConf Rank
SciTegic.value.IntegerValue
200

@<SCITEGIC>MOL_PROPERTY
Conf_Id
SciTegic.value.IntegerValue
30

@<SCITEGIC>MOL_PROPERTY
Delta U+W
SciTegic.value.DoubleValue
0.843

@<SCITEGIC>MOL_PROPERTY
U+W
SciTegic.value.DoubleValue
-50.787

@<SCITEGIC>MOL_PROPERTY
Grad RMS
SciTegic.value.DoubleValue
0.000000

@<SCITEGIC>MOL_PROPERTY
U
SciTegic.value.DoubleValue
8.647

@<SCITEGIC>MOL_PROPERTY
W
SciTegic.value.DoubleValue
-59.434

@<SCITEGIC>MOL_PROPERTY
W(PB)
SciTegic.value.DoubleValue
-61.861

@<SCITEGIC>MOL_PROPERTY
W(SA)
SciTegic.value.DoubleValue
2.428

@<SCITEGIC>MOL_PROPERTY
Valence
SciTegic.value.DoubleValue
8.924

@<SCITEGIC>MOL_PROPERTY
Coulomb
SciTegic.value.DoubleValue
-1.170

@<SCITEGIC>MOL_PROPERTY
VdW
SciTegic.value.DoubleValue
0.894

@<SCITEGIC>MOL_PROPERTY
VdW6
SciTegic.value.DoubleValue
-10.224

@<SCITEGIC>MOL_PROPERTY
VdW12
SciTegic.value.DoubleValue
11.118

@<SCITEGIC>MOL_PROPERTY
Bond
SciTegic.value.DoubleValue
0.231

@<SCITEGIC>MOL_PROPERTY
Angle
SciTegic.value.DoubleValue
3.232

@<SCITEGIC>MOL_PROPERTY
Pdih
SciTegic.value.DoubleValue
5.460

@<SCITEGIC>MOL_PROPERTY
Idih
SciTegic.value.DoubleValue
0.000

@<SCITEGIC>MOL_PROPERTY
Tether
SciTegic.value.DoubleValue
0.000

@<TRIPOS>MOLECULE
guest-8_confgen4.mol2 : confsearch ligand conformer 201
          25          24           1
SMALL
USER_CHARGES
 
@<TRIPOS>ATOM
       1    C1      17.669530   15.485862   24.784402 C.2        1 MOL1         0.6168
       2    O1      18.169671   14.707782   23.995065 O.co2      1 MOL1        -0.6703
       3    O2      16.849047   15.152186   25.616018 O.co2      1 MOL1        -0.6703
       4    C2      18.071817   16.961197   24.753605 C.3        1 MOL1        -0.1963
       5    H1      18.454202   17.216570   25.748831 H          1 MOL1         0.0750
       6    H2      17.157275   17.546261   24.601229 H          1 MOL1         0.0750
       7    C3      19.122031   17.338809   23.675237 C.3        1 MOL1        -0.1860
       8    H3      20.033217   16.744410   23.829948 H          1 MOL1         0.0752
       9    H4      18.735106   17.074457   22.681299 H          1 MOL1         0.0752
      10    C4      19.469988   18.842823   23.714154 C.3        1 MOL1        -0.1858
      11    H5      19.856524   19.104784   24.708690 H          1 MOL1         0.0752
      12    H6      18.557606   19.435035   23.559301 H          1 MOL1         0.0752
      13    C5      20.514832   19.216220   22.640673 C.3        1 MOL1        -0.1858
      14    H7      21.427347   18.624179   22.795297 H          1 MOL1         0.0752
      15    H8      20.128551   18.954412   21.646014 H          1 MOL1         0.0752
      16    C6      20.863205   20.719908   22.679047 C.3        1 MOL1        -0.1858
      17    H9      21.249561   20.981929   23.673616 H          1 MOL1         0.0752
      18    H10     19.950838   21.312146   22.524337 H          1 MOL1         0.0752
      19    C7      21.907611   21.093249   21.606110 C.3        1 MOL1        -0.1834
      20    H11     22.822504   20.504067   21.758830 H          1 MOL1         0.0752
      21    H12     21.523795   20.834290   20.609559 H          1 MOL1         0.0752
      22    C8      22.252803   22.595487   21.647679 C.3        1 MOL1        -0.2849
      23    H13     22.668891   22.876068   22.624174 H          1 MOL1         0.0764
      24    H14     22.996181   22.843085   20.878803 H          1 MOL1         0.0764
      25    H15     21.360418   23.208778   21.466234 H          1 MOL1         0.0764
@<TRIPOS>BOND
    1     1     2    1
    2     1     3    2
    3     1     4    1
    4     4     5    1
    5     4     6    1
    6     4     7    1
    7     7     8    1
    8     7     9    1
    9     7    10    1
   10    10    11    1
   11    10    12    1
   12    10    13    1
   13    13    14    1
   14    13    15    1
   15    13    16    1
   16    16    17    1
   17    16    18    1
   18    16    19    1
   19    19    20    1
   20    19    21    1
   21    19    22    1
   22    22    23    1
   23    22    24    1
   24    22    25    1
@<TRIPOS>SUBSTRUCTURE
       1 MOL1            1 RESIDUE      1      MOL     
@<SCITEGIC>MOL_PROPERTY
VConf Rank
SciTegic.value.IntegerValue
201

@<SCITEGIC>MOL_PROPERTY
Conf_Id
SciTegic.value.IntegerValue
0

@<SCITEGIC>MOL_PROPERTY
Delta U+W
SciTegic.value.DoubleValue
0.000

@<SCITEGIC>MOL_PROPERTY
U+W
SciTegic.value.DoubleValue
-51.629

@<SCITEGIC>MOL_PROPERTY
Grad RMS
SciTegic.value.DoubleValue
0.000000

@<SCITEGIC>MOL_PROPERTY
U
SciTegic.value.DoubleValue
6.586

@<SCITEGIC>MOL_PROPERTY
W
SciTegic.value.DoubleValue
-58.216

@<SCITEGIC>MOL_PROPERTY
W(PB)
SciTegic.value.DoubleValue
-60.757

@<SCITEGIC>MOL_PROPERTY
W(SA)
SciTegic.value.DoubleValue
2.541

@<SCITEGIC>MOL_PROPERTY
Valence
SciTegic.value.DoubleValue
8.027

@<SCITEGIC>MOL_PROPERTY
Coulomb
SciTegic.value.DoubleValue
-2.892

@<SCITEGIC>MOL_PROPERTY
VdW
SciTegic.value.DoubleValue
1.451

@<SCITEGIC>MOL_PROPERTY
VdW6
SciTegic.value.DoubleValue
-7.931

@<SCITEGIC>MOL_PROPERTY
VdW12
SciTegic.value.DoubleValue
9.383

@<SCITEGIC>MOL_PROPERTY
Bond
SciTegic.value.DoubleValue
0.149

@<SCITEGIC>MOL_PROPERTY
Angle
SciTegic.value.DoubleValue
2.726

@<SCITEGIC>MOL_PROPERTY
Pdih
SciTegic.value.DoubleValue
5.152

@<SCITEGIC>MOL_PROPERTY
Idih
SciTegic.value.DoubleValue
0.000

@<SCITEGIC>MOL_PROPERTY
Tether
SciTegic.value.DoubleValue
0.000

@<TRIPOS>MOLECULE
guest-8_confgen4.mol2 : confsearch ligand conformer 202
          25          24           1
SMALL
USER_CHARGES
 
@<TRIPOS>ATOM
       1    C1      16.591401   16.900891   21.057299 C.2        1 MOL1         0.6168
       2    O1      16.613476   16.947125   19.843217 O.co2      1 MOL1        -0.6703
       3    O2      16.154270   15.958355   21.687509 O.co2      1 MOL1        -0.6703
       4    C2      17.165112   18.081265   21.832962 C.3        1 MOL1        -0.1963
       5    H1      16.604571   18.177488   22.770587 H          1 MOL1         0.0750
       6    H2      16.982360   18.992507   21.250858 H          1 MOL1         0.0750
       7    C3      18.677785   17.929163   22.127428 C.3        1 MOL1        -0.1860
       8    H3      18.845136   17.005733   22.699147 H          1 MOL1         0.0752
       9    H4      19.222888   17.820574   21.179449 H          1 MOL1         0.0752
      10    C4      19.234784   19.136076   22.913007 C.3        1 MOL1        -0.1858
      11    H5      18.687079   19.242536   23.859510 H          1 MOL1         0.0752
      12    H6      19.064711   20.057652   22.339463 H          1 MOL1         0.0752
      13    C5      20.742911   18.981733   23.204894 C.3        1 MOL1        -0.1858
      14    H7      20.913218   18.060272   23.778487 H          1 MOL1         0.0752
      15    H8      21.290793   18.875277   22.258534 H          1 MOL1         0.0752
      16    C6      21.300624   20.188306   23.990397 C.3        1 MOL1        -0.1858
      17    H9      20.753007   20.294976   24.936882 H          1 MOL1         0.0752
      18    H10     21.130476   21.109942   23.417044 H          1 MOL1         0.0752
      19    C7      22.808101   20.034239   24.282178 C.3        1 MOL1        -0.1834
      20    H11     22.981997   19.114193   24.857298 H          1 MOL1         0.0752
      21    H12     23.359464   19.929183   23.337481 H          1 MOL1         0.0752
      22    C8      23.361189   21.241001   25.066666 C.3        1 MOL1        -0.2849
      23    H13     24.433433   21.114816   25.265309 H          1 MOL1         0.0764
      24    H14     23.228773   22.172001   24.500008 H          1 MOL1         0.0764
      25    H15     22.848464   21.350871   26.031258 H          1 MOL1         0.0764
@<TRIPOS>BOND
    1     1     2    1
    2     1     3    2
    3     1     4    1
    4     4     5    1
    5     4     6    1
    6     4     7    1
    7     7     8    1
    8     7     9    1
    9     7    10    1
   10    10    11    1
   11    10    12    1
   12    10    13    1
   13    13    14    1
   14    13    15    1
   15    13    16    1
   16    16    17    1
   17    16    18    1
   18    16    19    1
   19    19    20    1
   20    19    21    1
   21    19    22    1
   22    22    23    1
   23    22    24    1
   24    22    25    1
@<TRIPOS>SUBSTRUCTURE
       1 MOL1            1 RESIDUE      1      MOL     
@<SCITEGIC>MOL_PROPERTY
VConf Rank
SciTegic.value.IntegerValue
202

@<SCITEGIC>MOL_PROPERTY
Conf_Id
SciTegic.value.IntegerValue
27

@<SCITEGIC>MOL_PROPERTY
Delta U+W
SciTegic.value.DoubleValue
-1.297

@<SCITEGIC>MOL_PROPERTY
U+W
SciTegic.value.DoubleValue
-52.926

@<SCITEGIC>MOL_PROPERTY
Grad RMS
SciTegic.value.DoubleValue
0.000000

@<SCITEGIC>MOL_PROPERTY
U
SciTegic.value.DoubleValue
5.617

@<SCITEGIC>MOL_PROPERTY
W
SciTegic.value.DoubleValue
-58.543

@<SCITEGIC>MOL_PROPERTY
W(PB)
SciTegic.value.DoubleValue
-61.065

@<SCITEGIC>MOL_PROPERTY
W(SA)
SciTegic.value.DoubleValue
2.522

@<SCITEGIC>MOL_PROPERTY
Valence
SciTegic.value.DoubleValue
7.531

@<SCITEGIC>MOL_PROPERTY
Coulomb
SciTegic.value.DoubleValue
-2.818

@<SCITEGIC>MOL_PROPERTY
VdW
SciTegic.value.DoubleValue
0.904

@<SCITEGIC>MOL_PROPERTY
VdW6
SciTegic.value.DoubleValue
-7.640

@<SCITEGIC>MOL_PROPERTY
VdW12
SciTegic.value.DoubleValue
8.544

@<SCITEGIC>MOL_PROPERTY
Bond
SciTegic.value.DoubleValue
0.115

@<SCITEGIC>MOL_PROPERTY
Angle
SciTegic.value.DoubleValue
2.271

@<SCITEGIC>MOL_PROPERTY
Pdih
SciTegic.value.DoubleValue
5.144

@<SCITEGIC>MOL_PROPERTY
Idih
SciTegic.value.DoubleValue
0.001

@<SCITEGIC>MOL_PROPERTY
Tether
SciTegic.value.DoubleValue
0.000

@<TRIPOS>MOLECULE
guest-8_confgen4.mol2 : confsearch ligand conformer 203
          25          24           1
SMALL
USER_CHARGES
 
@<TRIPOS>ATOM
       1    C1      22.705632   21.001733   25.874595 C.2        1 MOL1         0.6168
       2    O1      23.366941   20.252447   26.566199 O.co2      1 MOL1        -0.6703
       3    O2      23.180996   21.725179   25.021590 O.co2      1 MOL1        -0.6703
       4    C2      21.197447   21.047324   26.103206 C.3        1 MOL1        -0.1963
       5    H1      20.806329   21.977868   25.674299 H          1 MOL1         0.0750
       6    H2      21.031422   21.102252   27.185520 H          1 MOL1         0.0750
       7    C3      20.434849   19.827939   25.523129 C.3        1 MOL1        -0.1860
       8    H3      20.856144   18.902904   25.940853 H          1 MOL1         0.0752
       9    H4      19.387309   19.874135   25.850349 H          1 MOL1         0.0752
      10    C4      20.484595   19.775338   23.979585 C.3        1 MOL1        -0.1858
      11    H5      21.529215   19.711297   23.644784 H          1 MOL1         0.0752
      12    H6      20.074917   20.707602   23.567188 H          1 MOL1         0.0752
      13    C5      19.692921   18.572548   23.422647 C.3        1 MOL1        -0.1858
      14    H7      20.103320   17.640799   23.835568 H          1 MOL1         0.0752
      15    H8      18.647255   18.636093   23.753679 H          1 MOL1         0.0752
      16    C6      19.742900   18.518868   21.880414 C.3        1 MOL1        -0.1858
      17    H9      20.788560   18.455391   21.549212 H          1 MOL1         0.0752
      18    H10     19.332871   19.450685   21.467286 H          1 MOL1         0.0752
      19    C7      18.952162   17.316495   21.323277 C.3        1 MOL1        -0.1834
      20    H11     19.360851   16.382402   21.733066 H          1 MOL1         0.0752
      21    H12     17.905122   17.377733   21.651052 H          1 MOL1         0.0752
      22    C8      19.004729   17.266446   19.783038 C.3        1 MOL1        -0.2849
      23    H13     20.039504   17.173228   19.428144 H          1 MOL1         0.0764
      24    H14     18.437796   16.406088   19.404287 H          1 MOL1         0.0764
      25    H15     18.572858   18.176079   19.345488 H          1 MOL1         0.0764
@<TRIPOS>BOND
    1     1     2    1
    2     1     3    2
    3     1     4    1
    4     4     5    1
    5     4     6    1
    6     4     7    1
    7     7     8    1
    8     7     9    1
    9     7    10    1
   10    10    11    1
   11    10    12    1
   12    10    13    1
   13    13    14    1
   14    13    15    1
   15    13    16    1
   16    16    17    1
   17    16    18    1
   18    16    19    1
   19    19    20    1
   20    19    21    1
   21    19    22    1
   22    22    23    1
   23    22    24    1
   24    22    25    1
@<TRIPOS>SUBSTRUCTURE
       1 MOL1            1 RESIDUE      1      MOL     
@<SCITEGIC>MOL_PROPERTY
VConf Rank
SciTegic.value.IntegerValue
203

@<SCITEGIC>MOL_PROPERTY
Conf_Id
SciTegic.value.IntegerValue
37

@<SCITEGIC>MOL_PROPERTY
Delta U+W
SciTegic.value.DoubleValue
-0.230

@<SCITEGIC>MOL_PROPERTY
U+W
SciTegic.value.DoubleValue
-51.860

@<SCITEGIC>MOL_PROPERTY
Grad RMS
SciTegic.value.DoubleValue
0.000000

@<SCITEGIC>MOL_PROPERTY
U
SciTegic.value.DoubleValue
7.816

@<SCITEGIC>MOL_PROPERTY
W
SciTegic.value.DoubleValue
-59.675

@<SCITEGIC>MOL_PROPERTY
W(PB)
SciTegic.value.DoubleValue
-62.180

@<SCITEGIC>MOL_PROPERTY
W(SA)
SciTegic.value.DoubleValue
2.505

@<SCITEGIC>MOL_PROPERTY
Valence
SciTegic.value.DoubleValue
7.785

@<SCITEGIC>MOL_PROPERTY
Coulomb
SciTegic.value.DoubleValue
-0.713

@<SCITEGIC>MOL_PROPERTY
VdW
SciTegic.value.DoubleValue
0.744

@<SCITEGIC>MOL_PROPERTY
VdW6
SciTegic.value.DoubleValue
-8.514

@<SCITEGIC>MOL_PROPERTY
VdW12
SciTegic.value.DoubleValue
9.259

@<SCITEGIC>MOL_PROPERTY
Bond
SciTegic.value.DoubleValue
0.136

@<SCITEGIC>MOL_PROPERTY
Angle
SciTegic.value.DoubleValue
2.433

@<SCITEGIC>MOL_PROPERTY
Pdih
SciTegic.value.DoubleValue
5.216

@<SCITEGIC>MOL_PROPERTY
Idih
SciTegic.value.DoubleValue
0.000

@<SCITEGIC>MOL_PROPERTY
Tether
SciTegic.value.DoubleValue
0.000

@<TRIPOS>MOLECULE
guest-8_confgen4.mol2 : confsearch ligand conformer 204
          25          24           1
SMALL
USER_CHARGES
 
@<TRIPOS>ATOM
       1    C1      16.356091   20.529266   22.069808 C.2        1 MOL1         0.6168
       2    O1      16.030168   21.622830   22.488099 O.co2      1 MOL1        -0.6703
       3    O2      15.798052   19.495809   22.382093 O.co2      1 MOL1        -0.6703
       4    C2      17.520089   20.453884   21.085738 C.3        1 MOL1        -0.1963
       5    H1      17.368553   21.241022   20.337784 H          1 MOL1         0.0750
       6    H2      17.467462   19.496133   20.553959 H          1 MOL1         0.0750
       7    C3      18.913862   20.625537   21.743670 C.3        1 MOL1        -0.1860
       8    H3      19.674385   20.696032   20.954249 H          1 MOL1         0.0752
       9    H4      18.941457   21.575696   22.295131 H          1 MOL1         0.0752
      10    C4      19.270886   19.459221   22.692356 C.3        1 MOL1        -0.1858
      11    H5      19.228871   18.510603   22.139742 H          1 MOL1         0.0752
      12    H6      18.523684   19.393081   23.495312 H          1 MOL1         0.0752
      13    C5      20.674446   19.634638   23.311127 C.3        1 MOL1        -0.1858
      14    H7      21.423666   19.698083   22.510078 H          1 MOL1         0.0752
      15    H8      20.715437   20.583415   23.863602 H          1 MOL1         0.0752
      16    C6      21.031587   18.469967   24.259729 C.3        1 MOL1        -0.1858
      17    H9      20.990371   17.521050   23.707516 H          1 MOL1         0.0752
      18    H10     20.282351   18.406300   25.060802 H          1 MOL1         0.0752
      19    C7      22.434173   18.645170   24.878941 C.3        1 MOL1        -0.1834
      20    H11     23.186512   18.707417   24.080449 H          1 MOL1         0.0752
      21    H12     22.478426   19.592608   25.433816 H          1 MOL1         0.0752
      22    C8      22.786900   17.480164   25.825485 C.3        1 MOL1        -0.2849
      23    H13     22.781039   16.522410   25.288766 H          1 MOL1         0.0764
      24    H14     23.786630   17.620946   26.256532 H          1 MOL1         0.0764
      25    H15     22.067559   17.414233   26.652287 H          1 MOL1         0.0764
@<TRIPOS>BOND
    1     1     2    1
    2     1     3    2
    3     1     4    1
    4     4     5    1
    5     4     6    1
    6     4     7    1
    7     7     8    1
    8     7     9    1
    9     7    10    1
   10    10    11    1
   11    10    12    1
   12    10    13    1
   13    13    14    1
   14    13    15    1
   15    13    16    1
   16    16    17    1
   17    16    18    1
   18    16    19    1
   19    19    20    1
   20    19    21    1
   21    19    22    1
   22    22    23    1
   23    22    24    1
   24    22    25    1
@<TRIPOS>SUBSTRUCTURE
       1 MOL1            1 RESIDUE      1      MOL     
@<SCITEGIC>MOL_PROPERTY
VConf Rank
SciTegic.value.IntegerValue
204

@<SCITEGIC>MOL_PROPERTY
Conf_Id
SciTegic.value.IntegerValue
54

@<SCITEGIC>MOL_PROPERTY
Delta U+W
SciTegic.value.DoubleValue
-0.224

@<SCITEGIC>MOL_PROPERTY
U+W
SciTegic.value.DoubleValue
-51.854

@<SCITEGIC>MOL_PROPERTY
Grad RMS
SciTegic.value.DoubleValue
0.000000

@<SCITEGIC>MOL_PROPERTY
U
SciTegic.value.DoubleValue
7.816

@<SCITEGIC>MOL_PROPERTY
W
SciTegic.value.DoubleValue
-59.670

@<SCITEGIC>MOL_PROPERTY
W(PB)
SciTegic.value.DoubleValue
-62.157

@<SCITEGIC>MOL_PROPERTY
W(SA)
SciTegic.value.DoubleValue
2.487

@<SCITEGIC>MOL_PROPERTY
Valence
SciTegic.value.DoubleValue
7.785

@<SCITEGIC>MOL_PROPERTY
Coulomb
SciTegic.value.DoubleValue
-0.713

@<SCITEGIC>MOL_PROPERTY
VdW
SciTegic.value.DoubleValue
0.744

@<SCITEGIC>MOL_PROPERTY
VdW6
SciTegic.value.DoubleValue
-8.515

@<SCITEGIC>MOL_PROPERTY
VdW12
SciTegic.value.DoubleValue
9.259

@<SCITEGIC>MOL_PROPERTY
Bond
SciTegic.value.DoubleValue
0.136

@<SCITEGIC>MOL_PROPERTY
Angle
SciTegic.value.DoubleValue
2.433

@<SCITEGIC>MOL_PROPERTY
Pdih
SciTegic.value.DoubleValue
5.215

@<SCITEGIC>MOL_PROPERTY
Idih
SciTegic.value.DoubleValue
0.000

@<SCITEGIC>MOL_PROPERTY
Tether
SciTegic.value.DoubleValue
0.000

@<TRIPOS>MOLECULE
guest-8_confgen4.mol2 : confsearch ligand conformer 205
          25          24           1
SMALL
USER_CHARGES
 
@<TRIPOS>ATOM
       1    C1      23.173960   20.479556   20.996317 C.2        1 MOL1         0.6168
       2    O1      24.086495   19.701100   21.192112 O.co2      1 MOL1        -0.6703
       3    O2      22.791231   20.802402   19.888888 O.co2      1 MOL1        -0.6703
       4    C2      22.481426   21.101229   22.205905 C.3        1 MOL1        -0.1963
       5    H1      22.389336   22.176496   22.012801 H          1 MOL1         0.0750
       6    H2      23.135187   20.990431   23.079489 H          1 MOL1         0.0750
       7    C3      21.080430   20.507652   22.506805 C.3        1 MOL1        -0.1860
       8    H3      20.605015   21.118686   23.284251 H          1 MOL1         0.0752
       9    H4      20.450910   20.588619   21.609838 H          1 MOL1         0.0752
      10    C4      21.147675   19.032047   22.969426 C.3        1 MOL1        -0.1858
      11    H5      21.739485   18.958597   23.892001 H          1 MOL1         0.0752
      12    H6      21.682342   18.442416   22.212165 H          1 MOL1         0.0752
      13    C5      19.758055   18.388277   23.191851 C.3        1 MOL1        -0.1858
      14    H7      19.159908   18.478803   22.275008 H          1 MOL1         0.0752
      15    H8      19.906416   17.314323   23.361504 H          1 MOL1         0.0752
      16    C6      18.979877   18.993402   24.386460 C.3        1 MOL1        -0.1858
      17    H9      18.823761   20.065954   24.215770 H          1 MOL1         0.0752
      18    H10     19.580630   18.907157   25.302033 H          1 MOL1         0.0752
      19    C7      17.596246   18.339974   24.612473 C.3        1 MOL1        -0.1834
      20    H11     17.058424   18.913182   25.380214 H          1 MOL1         0.0752
      21    H12     16.996758   18.413188   23.694566 H          1 MOL1         0.0752
      22    C8      17.679223   16.865441   25.063920 C.3        1 MOL1        -0.2849
      23    H13     18.100029   16.227287   24.277101 H          1 MOL1         0.0764
      24    H14     18.303297   16.763689   25.961299 H          1 MOL1         0.0764
      25    H15     16.679253   16.480831   25.302751 H          1 MOL1         0.0764
@<TRIPOS>BOND
    1     1     2    1
    2     1     3    2
    3     1     4    1
    4     4     5    1
    5     4     6    1
    6     4     7    1
    7     7     8    1
    8     7     9    1
    9     7    10    1
   10    10    11    1
   11    10    12    1
   12    10    13    1
   13    13    14    1
   14    13    15    1
   15    13    16    1
   16    16    17    1
   17    16    18    1
   18    16    19    1
   19    19    20    1
   20    19    21    1
   21    19    22    1
   22    22    23    1
   23    22    24    1
   24    22    25    1
@<TRIPOS>SUBSTRUCTURE
       1 MOL1            1 RESIDUE      1      MOL     
@<SCITEGIC>MOL_PROPERTY
VConf Rank
SciTegic.value.IntegerValue
205

@<SCITEGIC>MOL_PROPERTY
Conf_Id
SciTegic.value.IntegerValue
101

@<SCITEGIC>MOL_PROPERTY
Delta U+W
SciTegic.value.DoubleValue
1.534

@<SCITEGIC>MOL_PROPERTY
U+W
SciTegic.value.DoubleValue
-50.095

@<SCITEGIC>MOL_PROPERTY
Grad RMS
SciTegic.value.DoubleValue
0.000000

@<SCITEGIC>MOL_PROPERTY
U
SciTegic.value.DoubleValue
9.416

@<SCITEGIC>MOL_PROPERTY
W
SciTegic.value.DoubleValue
-59.512

@<SCITEGIC>MOL_PROPERTY
W(PB)
SciTegic.value.DoubleValue
-61.988

@<SCITEGIC>MOL_PROPERTY
W(SA)
SciTegic.value.DoubleValue
2.476

@<SCITEGIC>MOL_PROPERTY
Valence
SciTegic.value.DoubleValue
8.939

@<SCITEGIC>MOL_PROPERTY
Coulomb
SciTegic.value.DoubleValue
-0.615

@<SCITEGIC>MOL_PROPERTY
VdW
SciTegic.value.DoubleValue
1.092

@<SCITEGIC>MOL_PROPERTY
VdW6
SciTegic.value.DoubleValue
-9.710

@<SCITEGIC>MOL_PROPERTY
VdW12
SciTegic.value.DoubleValue
10.802

@<SCITEGIC>MOL_PROPERTY
Bond
SciTegic.value.DoubleValue
0.216

@<SCITEGIC>MOL_PROPERTY
Angle
SciTegic.value.DoubleValue
2.979

@<SCITEGIC>MOL_PROPERTY
Pdih
SciTegic.value.DoubleValue
5.743

@<SCITEGIC>MOL_PROPERTY
Idih
SciTegic.value.DoubleValue
0.000

@<SCITEGIC>MOL_PROPERTY
Tether
SciTegic.value.DoubleValue
0.000

@<TRIPOS>MOLECULE
guest-8_confgen4.mol2 : confsearch ligand conformer 206
          25          24           1
SMALL
USER_CHARGES
 
@<TRIPOS>ATOM
       1    C1      21.293320   20.876524   19.624737 C.2        1 MOL1         0.6168
       2    O1      22.348750   21.447251   19.817282 O.co2      1 MOL1        -0.6703
       3    O2      20.910339   20.521989   18.527281 O.co2      1 MOL1        -0.6703
       4    C2      20.411178   20.568030   20.829238 C.3        1 MOL1        -0.1963
       5    H1      19.365415   20.596150   20.500714 H          1 MOL1         0.0750
       6    H2      20.546263   21.376837   21.555835 H          1 MOL1         0.0750
       7    C3      20.733585   19.193650   21.471647 C.3        1 MOL1        -0.1860
       8    H3      20.683631   18.421350   20.691593 H          1 MOL1         0.0752
       9    H4      21.768360   19.194019   21.841161 H          1 MOL1         0.0752
      10    C4      19.769478   18.801746   22.616906 C.3        1 MOL1        -0.1858
      11    H5      19.988862   17.765497   22.904220 H          1 MOL1         0.0752
      12    H6      18.734967   18.811535   22.247775 H          1 MOL1         0.0752
      13    C5      19.889601   19.714385   23.862121 C.3        1 MOL1        -0.1858
      14    H7      20.923262   19.704019   24.231518 H          1 MOL1         0.0752
      15    H8      19.679060   20.752382   23.575847 H          1 MOL1         0.0752
      16    C6      18.915184   19.332372   25.005334 C.3        1 MOL1        -0.1858
      17    H9      17.883615   19.432844   24.641401 H          1 MOL1         0.0752
      18    H10     19.022298   20.065339   25.816479 H          1 MOL1         0.0752
      19    C7      19.100406   17.910932   25.592413 C.3        1 MOL1        -0.1834
      20    H11     18.354435   17.761002   26.384936 H          1 MOL1         0.0752
      21    H12     18.884876   17.153011   24.827923 H          1 MOL1         0.0752
      22    C8      20.506579   17.670379   26.182967 C.3        1 MOL1        -0.2849
      23    H13     20.753158   18.432337   26.933698 H          1 MOL1         0.0764
      24    H14     20.556355   16.687414   26.668835 H          1 MOL1         0.0764
      25    H15     21.276325   17.694130   25.401299 H          1 MOL1         0.0764
@<TRIPOS>BOND
    1     1     2    1
    2     1     3    2
    3     1     4    1
    4     4     5    1
    5     4     6    1
    6     4     7    1
    7     7     8    1
    8     7     9    1
    9     7    10    1
   10    10    11    1
   11    10    12    1
   12    10    13    1
   13    13    14    1
   14    13    15    1
   15    13    16    1
   16    16    17    1
   17    16    18    1
   18    16    19    1
   19    19    20    1
   20    19    21    1
   21    19    22    1
   22    22    23    1
   23    22    24    1
   24    22    25    1
@<TRIPOS>SUBSTRUCTURE
       1 MOL1            1 RESIDUE      1      MOL     
@<SCITEGIC>MOL_PROPERTY
VConf Rank
SciTegic.value.IntegerValue
206

@<SCITEGIC>MOL_PROPERTY
Conf_Id
SciTegic.value.IntegerValue
75

@<SCITEGIC>MOL_PROPERTY
Delta U+W
SciTegic.value.DoubleValue
1.014

@<SCITEGIC>MOL_PROPERTY
U+W
SciTegic.value.DoubleValue
-50.615

@<SCITEGIC>MOL_PROPERTY
Grad RMS
SciTegic.value.DoubleValue
0.000000

@<SCITEGIC>MOL_PROPERTY
U
SciTegic.value.DoubleValue
8.474

@<SCITEGIC>MOL_PROPERTY
W
SciTegic.value.DoubleValue
-59.089

@<SCITEGIC>MOL_PROPERTY
W(PB)
SciTegic.value.DoubleValue
-61.530

@<SCITEGIC>MOL_PROPERTY
W(SA)
SciTegic.value.DoubleValue
2.441

@<SCITEGIC>MOL_PROPERTY
Valence
SciTegic.value.DoubleValue
9.080

@<SCITEGIC>MOL_PROPERTY
Coulomb
SciTegic.value.DoubleValue
-1.772

@<SCITEGIC>MOL_PROPERTY
VdW
SciTegic.value.DoubleValue
1.165

@<SCITEGIC>MOL_PROPERTY
VdW6
SciTegic.value.DoubleValue
-9.830

@<SCITEGIC>MOL_PROPERTY
VdW12
SciTegic.value.DoubleValue
10.996

@<SCITEGIC>MOL_PROPERTY
Bond
SciTegic.value.DoubleValue
0.240

@<SCITEGIC>MOL_PROPERTY
Angle
SciTegic.value.DoubleValue
3.225

@<SCITEGIC>MOL_PROPERTY
Pdih
SciTegic.value.DoubleValue
5.615

@<SCITEGIC>MOL_PROPERTY
Idih
SciTegic.value.DoubleValue
0.001

@<SCITEGIC>MOL_PROPERTY
Tether
SciTegic.value.DoubleValue
0.000

@<TRIPOS>MOLECULE
guest-8_confgen4.mol2 : confsearch ligand conformer 207
          25          24           1
SMALL
USER_CHARGES
 
@<TRIPOS>ATOM
       1    C1      17.973187   22.770312   22.552745 C.2        1 MOL1         0.6168
       2    O1      17.995818   22.989109   21.357643 O.co2      1 MOL1        -0.6703
       3    O2      17.104460   23.181612   23.296260 O.co2      1 MOL1        -0.6703
       4    C2      19.084932   21.914368   23.148951 C.3        1 MOL1        -0.1963
       5    H1      19.268416   22.259515   24.173533 H          1 MOL1         0.0750
       6    H2      20.001386   22.098661   22.575581 H          1 MOL1         0.0750
       7    C3      18.747610   20.402982   23.146237 C.3        1 MOL1        -0.1860
       8    H3      17.821042   20.236713   23.713089 H          1 MOL1         0.0752
       9    H4      18.553875   20.076467   22.115029 H          1 MOL1         0.0752
      10    C4      19.888750   19.558114   23.752990 C.3        1 MOL1        -0.1858
      11    H5      20.079178   19.888231   24.783317 H          1 MOL1         0.0752
      12    H6      20.811978   19.737991   23.189512 H          1 MOL1         0.0752
      13    C5      19.544513   18.050057   23.753490 C.3        1 MOL1        -0.1858
      14    H7      18.634624   17.907304   24.352355 H          1 MOL1         0.0752
      15    H8      19.297974   17.713558   22.737219 H          1 MOL1         0.0752
      16    C6      20.668137   17.163623   24.348577 C.3        1 MOL1        -0.1858
      17    H9      20.196238   16.338109   24.898765 H          1 MOL1         0.0752
      18    H10     21.244315   17.728093   25.094384 H          1 MOL1         0.0752
      19    C7      21.622368   16.538961   23.300653 C.3        1 MOL1        -0.1834
      20    H11     22.322350   15.870976   23.821222 H          1 MOL1         0.0752
      21    H12     21.047823   15.904793   22.611474 H          1 MOL1         0.0752
      22    C8      22.434256   17.570621   22.490168 C.3        1 MOL1        -0.2849
      23    H13     22.968047   18.262234   23.154773 H          1 MOL1         0.0764
      24    H14     23.177140   17.064916   21.859977 H          1 MOL1         0.0764
      25    H15     21.782761   18.154730   21.828354 H          1 MOL1         0.0764
@<TRIPOS>BOND
    1     1     2    1
    2     1     3    2
    3     1     4    1
    4     4     5    1
    5     4     6    1
    6     4     7    1
    7     7     8    1
    8     7     9    1
    9     7    10    1
   10    10    11    1
   11    10    12    1
   12    10    13    1
   13    13    14    1
   14    13    15    1
   15    13    16    1
   16    16    17    1
   17    16    18    1
   18    16    19    1
   19    19    20    1
   20    19    21    1
   21    19    22    1
   22    22    23    1
   23    22    24    1
   24    22    25    1
@<TRIPOS>SUBSTRUCTURE
       1 MOL1            1 RESIDUE      1      MOL     
@<SCITEGIC>MOL_PROPERTY
VConf Rank
SciTegic.value.IntegerValue
207

@<SCITEGIC>MOL_PROPERTY
Conf_Id
SciTegic.value.IntegerValue
125

@<SCITEGIC>MOL_PROPERTY
Delta U+W
SciTegic.value.DoubleValue
2.314

@<SCITEGIC>MOL_PROPERTY
U+W
SciTegic.value.DoubleValue
-49.315

@<SCITEGIC>MOL_PROPERTY
Grad RMS
SciTegic.value.DoubleValue
0.000000

@<SCITEGIC>MOL_PROPERTY
U
SciTegic.value.DoubleValue
9.740

@<SCITEGIC>MOL_PROPERTY
W
SciTegic.value.DoubleValue
-59.054

@<SCITEGIC>MOL_PROPERTY
W(PB)
SciTegic.value.DoubleValue
-61.488

@<SCITEGIC>MOL_PROPERTY
W(SA)
SciTegic.value.DoubleValue
2.433

@<SCITEGIC>MOL_PROPERTY
Valence
SciTegic.value.DoubleValue
10.506

@<SCITEGIC>MOL_PROPERTY
Coulomb
SciTegic.value.DoubleValue
-1.761

@<SCITEGIC>MOL_PROPERTY
VdW
SciTegic.value.DoubleValue
0.994

@<SCITEGIC>MOL_PROPERTY
VdW6
SciTegic.value.DoubleValue
-9.209

@<SCITEGIC>MOL_PROPERTY
VdW12
SciTegic.value.DoubleValue
10.203

@<SCITEGIC>MOL_PROPERTY
Bond
SciTegic.value.DoubleValue
0.193

@<SCITEGIC>MOL_PROPERTY
Angle
SciTegic.value.DoubleValue
2.979

@<SCITEGIC>MOL_PROPERTY
Pdih
SciTegic.value.DoubleValue
7.334

@<SCITEGIC>MOL_PROPERTY
Idih
SciTegic.value.DoubleValue
0.001

@<SCITEGIC>MOL_PROPERTY
Tether
SciTegic.value.DoubleValue
0.000

@<TRIPOS>MOLECULE
guest-8_confgen4.mol2 : confsearch ligand conformer 208
          25          24           1
SMALL
USER_CHARGES
 
@<TRIPOS>ATOM
       1    C1      23.201389   21.690364   22.507387 C.2        1 MOL1         0.6168
       2    O1      24.173352   20.977803   22.351700 O.co2      1 MOL1        -0.6703
       3    O2      23.256723   22.903387   22.554886 O.co2      1 MOL1        -0.6703
       4    C2      21.840315   21.024903   22.676671 C.3        1 MOL1        -0.1963
       5    H1      21.838888   20.111484   22.071374 H          1 MOL1         0.0750
       6    H2      21.079839   21.694681   22.257830 H          1 MOL1         0.0750
       7    C3      21.511388   20.700889   24.157232 C.3        1 MOL1        -0.1860
       8    H3      22.253378   19.992778   24.551389 H          1 MOL1         0.0752
       9    H4      21.614426   21.620067   24.750478 H          1 MOL1         0.0752
      10    C4      20.086448   20.134554   24.364506 C.3        1 MOL1        -0.1858
      11    H5      19.346637   20.848998   23.978217 H          1 MOL1         0.0752
      12    H6      19.900327   20.047388   25.443706 H          1 MOL1         0.0752
      13    C5      19.871174   18.753469   23.703102 C.3        1 MOL1        -0.1858
      14    H7      19.988040   18.844335   22.616496 H          1 MOL1         0.0752
      15    H8      20.642613   18.054479   24.053614 H          1 MOL1         0.0752
      16    C6      18.471283   18.180388   24.024176 C.3        1 MOL1        -0.1858
      17    H9      17.697049   18.854590   23.633152 H          1 MOL1         0.0752
      18    H10     18.337512   18.152060   25.114198 H          1 MOL1         0.0752
      19    C7      18.246753   16.755782   23.465694 C.3        1 MOL1        -0.1834
      20    H11     19.016400   16.077442   23.859148 H          1 MOL1         0.0752
      21    H12     17.283208   16.379898   23.836529 H          1 MOL1         0.0752
      22    C8      18.242173   16.697009   21.922610 C.3        1 MOL1        -0.2849
      23    H13     19.225659   16.952356   21.508798 H          1 MOL1         0.0764
      24    H14     17.989529   15.685959   21.577871 H          1 MOL1         0.0764
      25    H15     17.501447   17.391348   21.505088 H          1 MOL1         0.0764
@<TRIPOS>BOND
    1     1     2    1
    2     1     3    2
    3     1     4    1
    4     4     5    1
    5     4     6    1
    6     4     7    1
    7     7     8    1
    8     7     9    1
    9     7    10    1
   10    10    11    1
   11    10    12    1
   12    10    13    1
   13    13    14    1
   14    13    15    1
   15    13    16    1
   16    16    17    1
   17    16    18    1
   18    16    19    1
   19    19    20    1
   20    19    21    1
   21    19    22    1
   22    22    23    1
   23    22    24    1
   24    22    25    1
@<TRIPOS>SUBSTRUCTURE
       1 MOL1            1 RESIDUE      1      MOL     
@<SCITEGIC>MOL_PROPERTY
VConf Rank
SciTegic.value.IntegerValue
208

@<SCITEGIC>MOL_PROPERTY
Conf_Id
SciTegic.value.IntegerValue
4

@<SCITEGIC>MOL_PROPERTY
Delta U+W
SciTegic.value.DoubleValue
0.189

@<SCITEGIC>MOL_PROPERTY
U+W
SciTegic.value.DoubleValue
-51.441

@<SCITEGIC>MOL_PROPERTY
Grad RMS
SciTegic.value.DoubleValue
0.000000

@<SCITEGIC>MOL_PROPERTY
U
SciTegic.value.DoubleValue
7.701

@<SCITEGIC>MOL_PROPERTY
W
SciTegic.value.DoubleValue
-59.141

@<SCITEGIC>MOL_PROPERTY
W(PB)
SciTegic.value.DoubleValue
-61.609

@<SCITEGIC>MOL_PROPERTY
W(SA)
SciTegic.value.DoubleValue
2.467

@<SCITEGIC>MOL_PROPERTY
Valence
SciTegic.value.DoubleValue
8.550

@<SCITEGIC>MOL_PROPERTY
Coulomb
SciTegic.value.DoubleValue
-1.988

@<SCITEGIC>MOL_PROPERTY
VdW
SciTegic.value.DoubleValue
1.139

@<SCITEGIC>MOL_PROPERTY
VdW6
SciTegic.value.DoubleValue
-8.988

@<SCITEGIC>MOL_PROPERTY
VdW12
SciTegic.value.DoubleValue
10.127

@<SCITEGIC>MOL_PROPERTY
Bond
SciTegic.value.DoubleValue
0.191

@<SCITEGIC>MOL_PROPERTY
Angle
SciTegic.value.DoubleValue
2.738

@<SCITEGIC>MOL_PROPERTY
Pdih
SciTegic.value.DoubleValue
5.621

@<SCITEGIC>MOL_PROPERTY
Idih
SciTegic.value.DoubleValue
0.001

@<SCITEGIC>MOL_PROPERTY
Tether
SciTegic.value.DoubleValue
0.000

@<TRIPOS>MOLECULE
guest-8_confgen4.mol2 : confsearch ligand conformer 209
          25          24           1
SMALL
USER_CHARGES
 
@<TRIPOS>ATOM
       1    C1      18.681799   22.809814   21.904416 C.2        1 MOL1         0.6168
       2    O1      19.352563   23.648624   22.472895 O.co2      1 MOL1        -0.6703
       3    O2      17.900397   23.065907   21.009671 O.co2      1 MOL1        -0.6703
       4    C2      18.846833   21.352554   22.320562 C.3        1 MOL1        -0.1963
       5    H1      17.884562   20.846802   22.177015 H          1 MOL1         0.0750
       6    H2      19.066693   21.335838   23.393923 H          1 MOL1         0.0750
       7    C3      19.959053   20.623490   21.522645 C.3        1 MOL1        -0.1860
       8    H3      19.757348   20.741158   20.448905 H          1 MOL1         0.0752
       9    H4      20.925591   21.110727   21.711681 H          1 MOL1         0.0752
      10    C4      20.062735   19.113635   21.844735 C.3        1 MOL1        -0.1858
      11    H5      20.787678   18.659826   21.155224 H          1 MOL1         0.0752
      12    H6      19.097836   18.627649   21.645337 H          1 MOL1         0.0752
      13    C5      20.501044   18.823550   23.299015 C.3        1 MOL1        -0.1858
      14    H7      21.440766   19.351222   23.511260 H          1 MOL1         0.0752
      15    H8      19.748039   19.213579   23.994347 H          1 MOL1         0.0752
      16    C6      20.692928   17.308912   23.544483 C.3        1 MOL1        -0.1858
      17    H9      21.400641   16.913049   22.803348 H          1 MOL1         0.0752
      18    H10     19.742316   16.783942   23.378260 H          1 MOL1         0.0752
      19    C7      21.226670   16.977402   24.957648 C.3        1 MOL1        -0.1834
      20    H11     21.446278   15.902007   25.007894 H          1 MOL1         0.0752
      21    H12     22.180294   17.496802   25.125376 H          1 MOL1         0.0752
      22    C8      20.234871   17.335039   26.085930 C.3        1 MOL1        -0.2849
      23    H13     19.262810   16.851831   25.922477 H          1 MOL1         0.0764
      24    H14     20.620580   16.998324   27.056881 H          1 MOL1         0.0764
      25    H15     20.074740   18.418501   26.150401 H          1 MOL1         0.0764
@<TRIPOS>BOND
    1     1     2    1
    2     1     3    2
    3     1     4    1
    4     4     5    1
    5     4     6    1
    6     4     7    1
    7     7     8    1
    8     7     9    1
    9     7    10    1
   10    10    11    1
   11    10    12    1
   12    10    13    1
   13    13    14    1
   14    13    15    1
   15    13    16    1
   16    16    17    1
   17    16    18    1
   18    16    19    1
   19    19    20    1
   20    19    21    1
   21    19    22    1
   22    22    23    1
   23    22    24    1
   24    22    25    1
@<TRIPOS>SUBSTRUCTURE
       1 MOL1            1 RESIDUE      1      MOL     
@<SCITEGIC>MOL_PROPERTY
VConf Rank
SciTegic.value.IntegerValue
209

@<SCITEGIC>MOL_PROPERTY
Conf_Id
SciTegic.value.IntegerValue
17

@<SCITEGIC>MOL_PROPERTY
Delta U+W
SciTegic.value.DoubleValue
0.219

@<SCITEGIC>MOL_PROPERTY
U+W
SciTegic.value.DoubleValue
-51.411

@<SCITEGIC>MOL_PROPERTY
Grad RMS
SciTegic.value.DoubleValue
0.000000

@<SCITEGIC>MOL_PROPERTY
U
SciTegic.value.DoubleValue
7.701

@<SCITEGIC>MOL_PROPERTY
W
SciTegic.value.DoubleValue
-59.111

@<SCITEGIC>MOL_PROPERTY
W(PB)
SciTegic.value.DoubleValue
-61.599

@<SCITEGIC>MOL_PROPERTY
W(SA)
SciTegic.value.DoubleValue
2.488

@<SCITEGIC>MOL_PROPERTY
Valence
SciTegic.value.DoubleValue
8.550

@<SCITEGIC>MOL_PROPERTY
Coulomb
SciTegic.value.DoubleValue
-1.988

@<SCITEGIC>MOL_PROPERTY
VdW
SciTegic.value.DoubleValue
1.139

@<SCITEGIC>MOL_PROPERTY
VdW6
SciTegic.value.DoubleValue
-8.988

@<SCITEGIC>MOL_PROPERTY
VdW12
SciTegic.value.DoubleValue
10.127

@<SCITEGIC>MOL_PROPERTY
Bond
SciTegic.value.DoubleValue
0.191

@<SCITEGIC>MOL_PROPERTY
Angle
SciTegic.value.DoubleValue
2.738

@<SCITEGIC>MOL_PROPERTY
Pdih
SciTegic.value.DoubleValue
5.621

@<SCITEGIC>MOL_PROPERTY
Idih
SciTegic.value.DoubleValue
0.001

@<SCITEGIC>MOL_PROPERTY
Tether
SciTegic.value.DoubleValue
0.000

@<TRIPOS>MOLECULE
guest-8_confgen4.mol2 : confsearch ligand conformer 210
          25          24           1
SMALL
USER_CHARGES
 
@<TRIPOS>ATOM
       1    C1      23.287121   20.104646   25.083502 C.2        1 MOL1         0.6168
       2    O1      23.321957   19.611129   26.193587 O.co2      1 MOL1        -0.6703
       3    O2      23.314181   21.302275   24.878493 O.co2      1 MOL1        -0.6703
       4    C2      23.225522   19.170390   23.878387 C.3        1 MOL1        -0.1963
       5    H1      23.564963   18.175017   24.189493 H          1 MOL1         0.0750
       6    H2      23.949985   19.536698   23.141532 H          1 MOL1         0.0750
       7    C3      21.822365   19.078915   23.224414 C.3        1 MOL1        -0.1860
       8    H3      21.496607   20.088076   22.939557 H          1 MOL1         0.0752
       9    H4      21.898293   18.495569   22.296940 H          1 MOL1         0.0752
      10    C4      20.776430   18.422252   24.156919 C.3        1 MOL1        -0.1858
      11    H5      20.641169   19.037058   25.057497 H          1 MOL1         0.0752
      12    H6      21.162767   17.452733   24.499882 H          1 MOL1         0.0752
      13    C5      19.404737   18.192610   23.479097 C.3        1 MOL1        -0.1858
      14    H7      19.536288   17.570669   22.583143 H          1 MOL1         0.0752
      15    H8      18.769517   17.617104   24.166228 H          1 MOL1         0.0752
      16    C6      18.677072   19.503756   23.101697 C.3        1 MOL1        -0.1858
      17    H9      19.263607   20.056868   22.356732 H          1 MOL1         0.0752
      18    H10     18.596214   20.146991   23.988604 H          1 MOL1         0.0752
      19    C7      17.268513   19.230955   22.533112 C.3        1 MOL1        -0.1834
      20    H11     17.345791   18.586142   21.646713 H          1 MOL1         0.0752
      21    H12     16.668745   18.684586   23.274181 H          1 MOL1         0.0752
      22    C8      16.545643   20.539123   22.153802 C.3        1 MOL1        -0.2849
      23    H13     17.107937   21.091191   21.389323 H          1 MOL1         0.0764
      24    H14     15.546403   20.326585   21.752050 H          1 MOL1         0.0764
      25    H15     16.427376   21.190594   23.029576 H          1 MOL1         0.0764
@<TRIPOS>BOND
    1     1     2    1
    2     1     3    2
    3     1     4    1
    4     4     5    1
    5     4     6    1
    6     4     7    1
    7     7     8    1
    8     7     9    1
    9     7    10    1
   10    10    11    1
   11    10    12    1
   12    10    13    1
   13    13    14    1
   14    13    15    1
   15    13    16    1
   16    16    17    1
   17    16    18    1
   18    16    19    1
   19    19    20    1
   20    19    21    1
   21    19    22    1
   22    22    23    1
   23    22    24    1
   24    22    25    1
@<TRIPOS>SUBSTRUCTURE
       1 MOL1            1 RESIDUE      1      MOL     
@<SCITEGIC>MOL_PROPERTY
VConf Rank
SciTegic.value.IntegerValue
210

@<SCITEGIC>MOL_PROPERTY
Conf_Id
SciTegic.value.IntegerValue
142

@<SCITEGIC>MOL_PROPERTY
Delta U+W
SciTegic.value.DoubleValue
0.593

@<SCITEGIC>MOL_PROPERTY
U+W
SciTegic.value.DoubleValue
-51.037

@<SCITEGIC>MOL_PROPERTY
Grad RMS
SciTegic.value.DoubleValue
0.000000

@<SCITEGIC>MOL_PROPERTY
U
SciTegic.value.DoubleValue
8.903

@<SCITEGIC>MOL_PROPERTY
W
SciTegic.value.DoubleValue
-59.940

@<SCITEGIC>MOL_PROPERTY
W(PB)
SciTegic.value.DoubleValue
-62.418

@<SCITEGIC>MOL_PROPERTY
W(SA)
SciTegic.value.DoubleValue
2.478

@<SCITEGIC>MOL_PROPERTY
Valence
SciTegic.value.DoubleValue
8.305

@<SCITEGIC>MOL_PROPERTY
Coulomb
SciTegic.value.DoubleValue
-0.223

@<SCITEGIC>MOL_PROPERTY
VdW
SciTegic.value.DoubleValue
0.821

@<SCITEGIC>MOL_PROPERTY
VdW6
SciTegic.value.DoubleValue
-9.236

@<SCITEGIC>MOL_PROPERTY
VdW12
SciTegic.value.DoubleValue
10.057

@<SCITEGIC>MOL_PROPERTY
Bond
SciTegic.value.DoubleValue
0.173

@<SCITEGIC>MOL_PROPERTY
Angle
SciTegic.value.DoubleValue
2.663

@<SCITEGIC>MOL_PROPERTY
Pdih
SciTegic.value.DoubleValue
5.469

@<SCITEGIC>MOL_PROPERTY
Idih
SciTegic.value.DoubleValue
0.001

@<SCITEGIC>MOL_PROPERTY
Tether
SciTegic.value.DoubleValue
0.000

@<TRIPOS>MOLECULE
guest-8_confgen4.mol2 : confsearch ligand conformer 211
          25          24           1
SMALL
USER_CHARGES
 
@<TRIPOS>ATOM
       1    C1      23.562279   18.177643   22.778153 C.2        1 MOL1         0.6168
       2    O1      24.167717   17.206023   22.369549 O.co2      1 MOL1        -0.6703
       3    O2      23.819257   19.318134   22.446042 O.co2      1 MOL1        -0.6703
       4    C2      22.436860   17.952204   23.783909 C.3        1 MOL1        -0.1963
       5    H1      22.188716   18.910569   24.254293 H          1 MOL1         0.0750
       6    H2      22.833275   17.309665   24.578589 H          1 MOL1         0.0750
       7    C3      21.166629   17.295892   23.177363 C.3        1 MOL1        -0.1860
       8    H3      21.437463   16.309309   22.776763 H          1 MOL1         0.0752
       9    H4      20.440311   17.105805   23.978098 H          1 MOL1         0.0752
      10    C4      20.495527   18.121343   22.049136 C.3        1 MOL1        -0.1858
      11    H5      19.616575   17.572017   21.685433 H          1 MOL1         0.0752
      12    H6      21.184409   18.186557   21.195746 H          1 MOL1         0.0752
      13    C5      20.062334   19.554969   22.445861 C.3        1 MOL1        -0.1858
      14    H7      20.945713   20.153539   22.705689 H          1 MOL1         0.0752
      15    H8      19.618458   20.037472   21.564557 H          1 MOL1         0.0752
      16    C6      19.042214   19.593492   23.607126 C.3        1 MOL1        -0.1858
      17    H9      19.496652   19.180128   24.516919 H          1 MOL1         0.0752
      18    H10     18.180836   18.958034   23.360356 H          1 MOL1         0.0752
      19    C7      18.558222   21.030536   23.893644 C.3        1 MOL1        -0.1834
      20    H11     19.418809   21.668563   24.138159 H          1 MOL1         0.0752
      21    H12     18.094009   21.452360   22.991455 H          1 MOL1         0.0752
      22    C8      17.545610   21.068029   25.055927 C.3        1 MOL1        -0.2849
      23    H13     17.994243   20.681134   25.980269 H          1 MOL1         0.0764
      24    H14     17.212265   22.096581   25.245656 H          1 MOL1         0.0764
      25    H15     16.659959   20.461765   24.824802 H          1 MOL1         0.0764
@<TRIPOS>BOND
    1     1     2    1
    2     1     3    2
    3     1     4    1
    4     4     5    1
    5     4     6    1
    6     4     7    1
    7     7     8    1
    8     7     9    1
    9     7    10    1
   10    10    11    1
   11    10    12    1
   12    10    13    1
   13    13    14    1
   14    13    15    1
   15    13    16    1
   16    16    17    1
   17    16    18    1
   18    16    19    1
   19    19    20    1
   20    19    21    1
   21    19    22    1
   22    22    23    1
   23    22    24    1
   24    22    25    1
@<TRIPOS>SUBSTRUCTURE
       1 MOL1            1 RESIDUE      1      MOL     
@<SCITEGIC>MOL_PROPERTY
VConf Rank
SciTegic.value.IntegerValue
211

@<SCITEGIC>MOL_PROPERTY
Conf_Id
SciTegic.value.IntegerValue
135

@<SCITEGIC>MOL_PROPERTY
Delta U+W
SciTegic.value.DoubleValue
1.314

@<SCITEGIC>MOL_PROPERTY
U+W
SciTegic.value.DoubleValue
-50.316

@<SCITEGIC>MOL_PROPERTY
Grad RMS
SciTegic.value.DoubleValue
0.000000

@<SCITEGIC>MOL_PROPERTY
U
SciTegic.value.DoubleValue
9.773

@<SCITEGIC>MOL_PROPERTY
W
SciTegic.value.DoubleValue
-60.088

@<SCITEGIC>MOL_PROPERTY
W(PB)
SciTegic.value.DoubleValue
-62.535

@<SCITEGIC>MOL_PROPERTY
W(SA)
SciTegic.value.DoubleValue
2.447

@<SCITEGIC>MOL_PROPERTY
Valence
SciTegic.value.DoubleValue
8.741

@<SCITEGIC>MOL_PROPERTY
Coulomb
SciTegic.value.DoubleValue
0.479

@<SCITEGIC>MOL_PROPERTY
VdW
SciTegic.value.DoubleValue
0.552

@<SCITEGIC>MOL_PROPERTY
VdW6
SciTegic.value.DoubleValue
-10.627

@<SCITEGIC>MOL_PROPERTY
VdW12
SciTegic.value.DoubleValue
11.179

@<SCITEGIC>MOL_PROPERTY
Bond
SciTegic.value.DoubleValue
0.227

@<SCITEGIC>MOL_PROPERTY
Angle
SciTegic.value.DoubleValue
3.155

@<SCITEGIC>MOL_PROPERTY
Pdih
SciTegic.value.DoubleValue
5.358

@<SCITEGIC>MOL_PROPERTY
Idih
SciTegic.value.DoubleValue
0.001

@<SCITEGIC>MOL_PROPERTY
Tether
SciTegic.value.DoubleValue
0.000

@<TRIPOS>MOLECULE
guest-8_confgen4.mol2 : confsearch ligand conformer 212
          25          24           1
SMALL
USER_CHARGES
 
@<TRIPOS>ATOM
       1    C1      18.076174   20.333378   19.736552 C.2        1 MOL1         0.6168
       2    O1      18.224614   21.504321   19.447416 O.co2      1 MOL1        -0.6703
       3    O2      17.719556   19.484326   18.943643 O.co2      1 MOL1        -0.6703
       4    C2      18.375740   19.901381   21.167573 C.3        1 MOL1        -0.1963
       5    H1      17.713639   19.063074   21.414980 H          1 MOL1         0.0750
       6    H2      18.108463   20.733277   21.828392 H          1 MOL1         0.0750
       7    C3      19.857575   19.491088   21.371664 C.3        1 MOL1        -0.1860
       8    H3      20.114231   18.724861   20.627036 H          1 MOL1         0.0752
       9    H4      20.509661   20.351601   21.167746 H          1 MOL1         0.0752
      10    C4      20.158063   18.928426   22.781647 C.3        1 MOL1        -0.1858
      11    H5      21.179309   18.527214   22.773062 H          1 MOL1         0.0752
      12    H6      19.487923   18.084230   22.993363 H          1 MOL1         0.0752
      13    C5      20.042240   19.986044   23.905253 C.3        1 MOL1        -0.1858
      14    H7      20.757865   20.797771   23.716637 H          1 MOL1         0.0752
      15    H8      19.044820   20.442042   23.878903 H          1 MOL1         0.0752
      16    C6      20.266534   19.423942   25.331857 C.3        1 MOL1        -0.1858
      17    H9      19.496793   18.676091   25.566645 H          1 MOL1         0.0752
      18    H10     20.106413   20.248281   26.040164 H          1 MOL1         0.0752
      19    C7      21.678453   18.838786   25.585387 C.3        1 MOL1        -0.1834
      20    H11     22.413162   19.313423   24.920437 H          1 MOL1         0.0752
      21    H12     21.985536   19.092335   26.609455 H          1 MOL1         0.0752
      22    C8      21.734781   17.301910   25.436704 C.3        1 MOL1        -0.2849
      23    H13     21.447037   16.978352   24.429911 H          1 MOL1         0.0764
      24    H14     22.750858   16.934332   25.629785 H          1 MOL1         0.0764
      25    H15     21.060272   16.815890   26.153576 H          1 MOL1         0.0764
@<TRIPOS>BOND
    1     1     2    1
    2     1     3    2
    3     1     4    1
    4     4     5    1
    5     4     6    1
    6     4     7    1
    7     7     8    1
    8     7     9    1
    9     7    10    1
   10    10    11    1
   11    10    12    1
   12    10    13    1
   13    13    14    1
   14    13    15    1
   15    13    16    1
   16    16    17    1
   17    16    18    1
   18    16    19    1
   19    19    20    1
   20    19    21    1
   21    19    22    1
   22    22    23    1
   23    22    24    1
   24    22    25    1
@<TRIPOS>SUBSTRUCTURE
       1 MOL1            1 RESIDUE      1      MOL     
@<SCITEGIC>MOL_PROPERTY
VConf Rank
SciTegic.value.IntegerValue
212

@<SCITEGIC>MOL_PROPERTY
Conf_Id
SciTegic.value.IntegerValue
19

@<SCITEGIC>MOL_PROPERTY
Delta U+W
SciTegic.value.DoubleValue
3.222

@<SCITEGIC>MOL_PROPERTY
U+W
SciTegic.value.DoubleValue
-48.407

@<SCITEGIC>MOL_PROPERTY
Grad RMS
SciTegic.value.DoubleValue
0.000000

@<SCITEGIC>MOL_PROPERTY
U
SciTegic.value.DoubleValue
10.617

@<SCITEGIC>MOL_PROPERTY
W
SciTegic.value.DoubleValue
-59.025

@<SCITEGIC>MOL_PROPERTY
W(PB)
SciTegic.value.DoubleValue
-61.462

@<SCITEGIC>MOL_PROPERTY
W(SA)
SciTegic.value.DoubleValue
2.437

@<SCITEGIC>MOL_PROPERTY
Valence
SciTegic.value.DoubleValue
11.188

@<SCITEGIC>MOL_PROPERTY
Coulomb
SciTegic.value.DoubleValue
-1.778

@<SCITEGIC>MOL_PROPERTY
VdW
SciTegic.value.DoubleValue
1.208

@<SCITEGIC>MOL_PROPERTY
VdW6
SciTegic.value.DoubleValue
-9.786

@<SCITEGIC>MOL_PROPERTY
VdW12
SciTegic.value.DoubleValue
10.993

@<SCITEGIC>MOL_PROPERTY
Bond
SciTegic.value.DoubleValue
0.241

@<SCITEGIC>MOL_PROPERTY
Angle
SciTegic.value.DoubleValue
3.294

@<SCITEGIC>MOL_PROPERTY
Pdih
SciTegic.value.DoubleValue
7.653

@<SCITEGIC>MOL_PROPERTY
Idih
SciTegic.value.DoubleValue
0.001

@<SCITEGIC>MOL_PROPERTY
Tether
SciTegic.value.DoubleValue
0.000

@<TRIPOS>MOLECULE
guest-8_confgen4.mol2 : confsearch ligand conformer 213
          25          24           1
SMALL
USER_CHARGES
 
@<TRIPOS>ATOM
       1    C1      19.699471   15.535467   21.211137 C.2        1 MOL1         0.6168
       2    O1      18.566141   15.096952   21.214004 O.co2      1 MOL1        -0.6703
       3    O2      20.683157   14.856800   20.990812 O.co2      1 MOL1        -0.6703
       4    C2      19.900393   17.013914   21.524199 C.3        1 MOL1        -0.1963
       5    H1      19.033405   17.557081   21.132441 H          1 MOL1         0.0750
       6    H2      20.780393   17.361874   20.970239 H          1 MOL1         0.0750
       7    C3      20.080651   17.286041   23.040537 C.3        1 MOL1        -0.1860
       8    H3      19.174552   16.978228   23.580462 H          1 MOL1         0.0752
       9    H4      20.895240   16.651036   23.415583 H          1 MOL1         0.0752
      10    C4      20.412666   18.760758   23.372067 C.3        1 MOL1        -0.1858
      11    H5      21.304122   19.073953   22.811893 H          1 MOL1         0.0752
      12    H6      20.672491   18.815885   24.436698 H          1 MOL1         0.0752
      13    C5      19.244341   19.734824   23.088025 C.3        1 MOL1        -0.1858
      14    H7      18.932030   19.638179   22.040839 H          1 MOL1         0.0752
      15    H8      18.375772   19.449262   23.696827 H          1 MOL1         0.0752
      16    C6      19.583803   21.225108   23.343551 C.3        1 MOL1        -0.1858
      17    H9      18.703942   21.817568   23.057710 H          1 MOL1         0.0752
      18    H10     20.390801   21.547492   22.671444 H          1 MOL1         0.0752
      19    C7      19.938973   21.568345   24.811967 C.3        1 MOL1        -0.1834
      20    H11     19.517467   22.553600   25.054671 H          1 MOL1         0.0752
      21    H12     19.460461   20.854886   25.496976 H          1 MOL1         0.0752
      22    C8      21.461042   21.622970   25.071947 C.3        1 MOL1        -0.2849
      23    H13     21.936064   22.390093   24.446681 H          1 MOL1         0.0764
      24    H14     21.662702   21.873414   26.121431 H          1 MOL1         0.0764
      25    H15     21.946568   20.664242   24.856950 H          1 MOL1         0.0764
@<TRIPOS>BOND
    1     1     2    1
    2     1     3    2
    3     1     4    1
    4     4     5    1
    5     4     6    1
    6     4     7    1
    7     7     8    1
    8     7     9    1
    9     7    10    1
   10    10    11    1
   11    10    12    1
   12    10    13    1
   13    13    14    1
   14    13    15    1
   15    13    16    1
   16    16    17    1
   17    16    18    1
   18    16    19    1
   19    19    20    1
   20    19    21    1
   21    19    22    1
   22    22    23    1
   23    22    24    1
   24    22    25    1
@<TRIPOS>SUBSTRUCTURE
       1 MOL1            1 RESIDUE      1      MOL     
@<SCITEGIC>MOL_PROPERTY
VConf Rank
SciTegic.value.IntegerValue
213

@<SCITEGIC>MOL_PROPERTY
Conf_Id
SciTegic.value.IntegerValue
20

@<SCITEGIC>MOL_PROPERTY
Delta U+W
SciTegic.value.DoubleValue
3.224

@<SCITEGIC>MOL_PROPERTY
U+W
SciTegic.value.DoubleValue
-48.406

@<SCITEGIC>MOL_PROPERTY
Grad RMS
SciTegic.value.DoubleValue
0.000000

@<SCITEGIC>MOL_PROPERTY
U
SciTegic.value.DoubleValue
10.617

@<SCITEGIC>MOL_PROPERTY
W
SciTegic.value.DoubleValue
-59.023

@<SCITEGIC>MOL_PROPERTY
W(PB)
SciTegic.value.DoubleValue
-61.467

@<SCITEGIC>MOL_PROPERTY
W(SA)
SciTegic.value.DoubleValue
2.444

@<SCITEGIC>MOL_PROPERTY
Valence
SciTegic.value.DoubleValue
11.188

@<SCITEGIC>MOL_PROPERTY
Coulomb
SciTegic.value.DoubleValue
-1.778

@<SCITEGIC>MOL_PROPERTY
VdW
SciTegic.value.DoubleValue
1.208

@<SCITEGIC>MOL_PROPERTY
VdW6
SciTegic.value.DoubleValue
-9.786

@<SCITEGIC>MOL_PROPERTY
VdW12
SciTegic.value.DoubleValue
10.993

@<SCITEGIC>MOL_PROPERTY
Bond
SciTegic.value.DoubleValue
0.241

@<SCITEGIC>MOL_PROPERTY
Angle
SciTegic.value.DoubleValue
3.294

@<SCITEGIC>MOL_PROPERTY
Pdih
SciTegic.value.DoubleValue
7.653

@<SCITEGIC>MOL_PROPERTY
Idih
SciTegic.value.DoubleValue
0.001

@<SCITEGIC>MOL_PROPERTY
Tether
SciTegic.value.DoubleValue
0.000

@<TRIPOS>MOLECULE
guest-8_confgen4.mol2 : confsearch ligand conformer 214
          25          24           1
SMALL
USER_CHARGES
 
@<TRIPOS>ATOM
       1    C1      19.974004   18.378204   26.641719 C.2        1 MOL1         0.6168
       2    O1      19.754260   17.182704   26.653495 O.co2      1 MOL1        -0.6703
       3    O2      19.142322   19.215820   26.931410 O.co2      1 MOL1        -0.6703
       4    C2      21.387656   18.852280   26.309707 C.3        1 MOL1        -0.1963
       5    H1      22.038602   18.454936   27.097015 H          1 MOL1         0.0750
       6    H2      21.425880   19.945178   26.392780 H          1 MOL1         0.0750
       7    C3      21.931916   18.397888   24.926082 C.3        1 MOL1        -0.1860
       8    H3      23.027690   18.468497   24.952965 H          1 MOL1         0.0752
       9    H4      21.701759   17.335723   24.763520 H          1 MOL1         0.0752
      10    C4      21.434543   19.238907   23.724253 C.3        1 MOL1        -0.1858
      11    H5      21.996326   18.927214   22.833057 H          1 MOL1         0.0752
      12    H6      21.678100   20.297572   23.887785 H          1 MOL1         0.0752
      13    C5      19.923434   19.092450   23.434897 C.3        1 MOL1        -0.1858
      14    H7      19.660816   18.027325   23.375010 H          1 MOL1         0.0752
      15    H8      19.342476   19.520982   24.261246 H          1 MOL1         0.0752
      16    C6      19.522142   19.799148   22.121842 C.3        1 MOL1        -0.1858
      17    H9      20.091897   19.372203   21.285144 H          1 MOL1         0.0752
      18    H10     19.789898   20.862986   22.181723 H          1 MOL1         0.0752
      19    C7      18.011429   19.663221   21.837861 C.3        1 MOL1        -0.1834
      20    H11     17.740469   18.600073   21.776581 H          1 MOL1         0.0752
      21    H12     17.438088   20.090856   22.672136 H          1 MOL1         0.0752
      22    C8      17.613591   20.370234   20.526554 C.3        1 MOL1        -0.2849
      23    H13     18.149620   19.940327   19.670269 H          1 MOL1         0.0764
      24    H14     16.536958   20.263508   20.340718 H          1 MOL1         0.0764
      25    H15     17.844936   21.442486   20.572681 H          1 MOL1         0.0764
@<TRIPOS>BOND
    1     1     2    1
    2     1     3    2
    3     1     4    1
    4     4     5    1
    5     4     6    1
    6     4     7    1
    7     7     8    1
    8     7     9    1
    9     7    10    1
   10    10    11    1
   11    10    12    1
   12    10    13    1
   13    13    14    1
   14    13    15    1
   15    13    16    1
   16    16    17    1
   17    16    18    1
   18    16    19    1
   19    19    20    1
   20    19    21    1
   21    19    22    1
   22    22    23    1
   23    22    24    1
   24    22    25    1
@<TRIPOS>SUBSTRUCTURE
       1 MOL1            1 RESIDUE      1      MOL     
@<SCITEGIC>MOL_PROPERTY
VConf Rank
SciTegic.value.IntegerValue
214

@<SCITEGIC>MOL_PROPERTY
Conf_Id
SciTegic.value.IntegerValue
24

@<SCITEGIC>MOL_PROPERTY
Delta U+W
SciTegic.value.DoubleValue
1.784

@<SCITEGIC>MOL_PROPERTY
U+W
SciTegic.value.DoubleValue
-49.846

@<SCITEGIC>MOL_PROPERTY
Grad RMS
SciTegic.value.DoubleValue
0.000000

@<SCITEGIC>MOL_PROPERTY
U
SciTegic.value.DoubleValue
10.904

@<SCITEGIC>MOL_PROPERTY
W
SciTegic.value.DoubleValue
-60.749

@<SCITEGIC>MOL_PROPERTY
W(PB)
SciTegic.value.DoubleValue
-63.220

@<SCITEGIC>MOL_PROPERTY
W(SA)
SciTegic.value.DoubleValue
2.471

@<SCITEGIC>MOL_PROPERTY
Valence
SciTegic.value.DoubleValue
9.445

@<SCITEGIC>MOL_PROPERTY
Coulomb
SciTegic.value.DoubleValue
0.780

@<SCITEGIC>MOL_PROPERTY
VdW
SciTegic.value.DoubleValue
0.679

@<SCITEGIC>MOL_PROPERTY
VdW6
SciTegic.value.DoubleValue
-10.008

@<SCITEGIC>MOL_PROPERTY
VdW12
SciTegic.value.DoubleValue
10.687

@<SCITEGIC>MOL_PROPERTY
Bond
SciTegic.value.DoubleValue
0.201

@<SCITEGIC>MOL_PROPERTY
Angle
SciTegic.value.DoubleValue
3.198

@<SCITEGIC>MOL_PROPERTY
Pdih
SciTegic.value.DoubleValue
6.039

@<SCITEGIC>MOL_PROPERTY
Idih
SciTegic.value.DoubleValue
0.006

@<SCITEGIC>MOL_PROPERTY
Tether
SciTegic.value.DoubleValue
0.000

@<TRIPOS>MOLECULE
guest-8_confgen4.mol2 : confsearch ligand conformer 215
          25          24           1
SMALL
USER_CHARGES
 
@<TRIPOS>ATOM
       1    C1      21.349925   16.450788   22.043701 C.2        1 MOL1         0.6168
       2    O1      21.075916   16.601474   20.869028 O.co2      1 MOL1        -0.6703
       3    O2      22.452889   16.663801   22.507719 O.co2      1 MOL1        -0.6703
       4    C2      20.271079   15.901269   22.975104 C.3        1 MOL1        -0.1963
       5    H1      20.695215   15.779286   23.979103 H          1 MOL1         0.0750
       6    H2      20.032972   14.895241   22.610853 H          1 MOL1         0.0750
       7    C3      18.962561   16.738238   23.041177 C.3        1 MOL1        -0.1860
       8    H3      18.655846   17.034378   22.028348 H          1 MOL1         0.0752
       9    H4      18.162871   16.087854   23.420553 H          1 MOL1         0.0752
      10    C4      19.033439   17.983294   23.959816 C.3        1 MOL1        -0.1858
      11    H5      19.328748   17.678755   24.973169 H          1 MOL1         0.0752
      12    H6      18.021590   18.402435   24.046221 H          1 MOL1         0.0752
      13    C5      19.986780   19.088327   23.451221 C.3        1 MOL1        -0.1858
      14    H7      21.023371   18.729885   23.482940 H          1 MOL1         0.0752
      15    H8      19.757727   19.318885   22.401734 H          1 MOL1         0.0752
      16    C6      19.875594   20.373707   24.299751 C.3        1 MOL1        -0.1858
      17    H9      20.100179   20.140252   25.349557 H          1 MOL1         0.0752
      18    H10     18.842806   20.747001   24.268651 H          1 MOL1         0.0752
      19    C7      20.835422   21.473775   23.799798 C.3        1 MOL1        -0.1834
      20    H11     21.869963   21.104526   23.831163 H          1 MOL1         0.0752
      21    H12     20.612894   21.710115   22.749997 H          1 MOL1         0.0752
      22    C8      20.722515   22.755794   24.649119 C.3        1 MOL1        -0.2849
      23    H13     20.970918   22.554248   25.699380 H          1 MOL1         0.0764
      24    H14     21.411505   23.526473   24.279782 H          1 MOL1         0.0764
      25    H15     19.704283   23.164499   24.609934 H          1 MOL1         0.0764
@<TRIPOS>BOND
    1     1     2    1
    2     1     3    2
    3     1     4    1
    4     4     5    1
    5     4     6    1
    6     4     7    1
    7     7     8    1
    8     7     9    1
    9     7    10    1
   10    10    11    1
   11    10    12    1
   12    10    13    1
   13    13    14    1
   14    13    15    1
   15    13    16    1
   16    16    17    1
   17    16    18    1
   18    16    19    1
   19    19    20    1
   20    19    21    1
   21    19    22    1
   22    22    23    1
   23    22    24    1
   24    22    25    1
@<TRIPOS>SUBSTRUCTURE
       1 MOL1            1 RESIDUE      1      MOL     
@<SCITEGIC>MOL_PROPERTY
VConf Rank
SciTegic.value.IntegerValue
215

@<SCITEGIC>MOL_PROPERTY
Conf_Id
SciTegic.value.IntegerValue
9

@<SCITEGIC>MOL_PROPERTY
Delta U+W
SciTegic.value.DoubleValue
1.764

@<SCITEGIC>MOL_PROPERTY
U+W
SciTegic.value.DoubleValue
-49.865

@<SCITEGIC>MOL_PROPERTY
Grad RMS
SciTegic.value.DoubleValue
0.000000

@<SCITEGIC>MOL_PROPERTY
U
SciTegic.value.DoubleValue
10.902

@<SCITEGIC>MOL_PROPERTY
W
SciTegic.value.DoubleValue
-60.768

@<SCITEGIC>MOL_PROPERTY
W(PB)
SciTegic.value.DoubleValue
-63.223

@<SCITEGIC>MOL_PROPERTY
W(SA)
SciTegic.value.DoubleValue
2.456

@<SCITEGIC>MOL_PROPERTY
Valence
SciTegic.value.DoubleValue
9.445

@<SCITEGIC>MOL_PROPERTY
Coulomb
SciTegic.value.DoubleValue
0.778

@<SCITEGIC>MOL_PROPERTY
VdW
SciTegic.value.DoubleValue
0.679

@<SCITEGIC>MOL_PROPERTY
VdW6
SciTegic.value.DoubleValue
-10.007

@<SCITEGIC>MOL_PROPERTY
VdW12
SciTegic.value.DoubleValue
10.687

@<SCITEGIC>MOL_PROPERTY
Bond
SciTegic.value.DoubleValue
0.201

@<SCITEGIC>MOL_PROPERTY
Angle
SciTegic.value.DoubleValue
3.198

@<SCITEGIC>MOL_PROPERTY
Pdih
SciTegic.value.DoubleValue
6.040

@<SCITEGIC>MOL_PROPERTY
Idih
SciTegic.value.DoubleValue
0.006

@<SCITEGIC>MOL_PROPERTY
Tether
SciTegic.value.DoubleValue
0.000

@<TRIPOS>MOLECULE
guest-8_confgen4.mol2 : confsearch ligand conformer 216
          25          24           1
SMALL
USER_CHARGES
 
@<TRIPOS>ATOM
       1    C1      16.466721   18.421444   24.245739 C.2        1 MOL1         0.6168
       2    O1      16.517224   17.349633   23.675411 O.co2      1 MOL1        -0.6703
       3    O2      15.586744   18.728286   25.025699 O.co2      1 MOL1        -0.6703
       4    C2      17.579832   19.429555   23.984180 C.3        1 MOL1        -0.1963
       5    H1      17.147781   20.435048   24.051794 H          1 MOL1         0.0750
       6    H2      17.916362   19.295885   22.951541 H          1 MOL1         0.0750
       7    C3      18.761086   19.290293   24.980622 C.3        1 MOL1        -0.1860
       8    H3      18.366346   19.440451   25.995052 H          1 MOL1         0.0752
       9    H4      19.158137   18.266007   24.956047 H          1 MOL1         0.0752
      10    C4      19.899745   20.313005   24.736074 C.3        1 MOL1        -0.1858
      11    H5      20.317188   20.598481   25.711350 H          1 MOL1         0.0752
      12    H6      19.495253   21.237889   24.302698 H          1 MOL1         0.0752
      13    C5      21.068520   19.783724   23.867405 C.3        1 MOL1        -0.1858
      14    H7      21.848777   20.556039   23.831630 H          1 MOL1         0.0752
      15    H8      21.517584   18.913251   24.363432 H          1 MOL1         0.0752
      16    C6      20.666372   19.409624   22.421204 C.3        1 MOL1        -0.1858
      17    H9      20.082257   20.231881   21.986346 H          1 MOL1         0.0752
      18    H10     20.013808   18.526876   22.433994 H          1 MOL1         0.0752
      19    C7      21.878201   19.126320   21.503194 C.3        1 MOL1        -0.1834
      20    H11     21.515083   18.967040   20.478528 H          1 MOL1         0.0752
      21    H12     22.531124   20.009282   21.467105 H          1 MOL1         0.0752
      22    C8      22.697499   17.892194   21.939097 C.3        1 MOL1        -0.2849
      23    H13     22.059565   17.001344   22.006704 H          1 MOL1         0.0764
      24    H14     23.493847   17.683681   21.213009 H          1 MOL1         0.0764
      25    H15     23.171298   18.051379   22.915850 H          1 MOL1         0.0764
@<TRIPOS>BOND
    1     1     2    1
    2     1     3    2
    3     1     4    1
    4     4     5    1
    5     4     6    1
    6     4     7    1
    7     7     8    1
    8     7     9    1
    9     7    10    1
   10    10    11    1
   11    10    12    1
   12    10    13    1
   13    13    14    1
   14    13    15    1
   15    13    16    1
   16    16    17    1
   17    16    18    1
   18    16    19    1
   19    19    20    1
   20    19    21    1
   21    19    22    1
   22    22    23    1
   23    22    24    1
   24    22    25    1
@<TRIPOS>SUBSTRUCTURE
       1 MOL1            1 RESIDUE      1      MOL     
@<SCITEGIC>MOL_PROPERTY
VConf Rank
SciTegic.value.IntegerValue
216

@<SCITEGIC>MOL_PROPERTY
Conf_Id
SciTegic.value.IntegerValue
89

@<SCITEGIC>MOL_PROPERTY
Delta U+W
SciTegic.value.DoubleValue
2.903

@<SCITEGIC>MOL_PROPERTY
U+W
SciTegic.value.DoubleValue
-48.726

@<SCITEGIC>MOL_PROPERTY
Grad RMS
SciTegic.value.DoubleValue
0.000000

@<SCITEGIC>MOL_PROPERTY
U
SciTegic.value.DoubleValue
10.996

@<SCITEGIC>MOL_PROPERTY
W
SciTegic.value.DoubleValue
-59.723

@<SCITEGIC>MOL_PROPERTY
W(PB)
SciTegic.value.DoubleValue
-62.151

@<SCITEGIC>MOL_PROPERTY
W(SA)
SciTegic.value.DoubleValue
2.428

@<SCITEGIC>MOL_PROPERTY
Valence
SciTegic.value.DoubleValue
10.985

@<SCITEGIC>MOL_PROPERTY
Coulomb
SciTegic.value.DoubleValue
-0.995

@<SCITEGIC>MOL_PROPERTY
VdW
SciTegic.value.DoubleValue
1.006

@<SCITEGIC>MOL_PROPERTY
VdW6
SciTegic.value.DoubleValue
-10.062

@<SCITEGIC>MOL_PROPERTY
VdW12
SciTegic.value.DoubleValue
11.069

@<SCITEGIC>MOL_PROPERTY
Bond
SciTegic.value.DoubleValue
0.238

@<SCITEGIC>MOL_PROPERTY
Angle
SciTegic.value.DoubleValue
3.202

@<SCITEGIC>MOL_PROPERTY
Pdih
SciTegic.value.DoubleValue
7.544

@<SCITEGIC>MOL_PROPERTY
Idih
SciTegic.value.DoubleValue
0.001

@<SCITEGIC>MOL_PROPERTY
Tether
SciTegic.value.DoubleValue
0.000

@<TRIPOS>MOLECULE
guest-8_confgen4.mol2 : confsearch ligand conformer 217
          25          24           1
SMALL
USER_CHARGES
 
@<TRIPOS>ATOM
       1    C1      20.494203   17.353572   26.488925 C.2        1 MOL1         0.6168
       2    O1      20.797803   18.298491   27.190506 O.co2      1 MOL1        -0.6703
       3    O2      19.477126   16.705371   26.640573 O.co2      1 MOL1        -0.6703
       4    C2      21.475202   16.920022   25.401302 C.3        1 MOL1        -0.1963
       5    H1      21.818635   15.916966   25.679527 H          1 MOL1         0.0750
       6    H2      22.355681   17.573071   25.433785 H          1 MOL1         0.0750
       7    C3      20.891494   16.872855   23.960941 C.3        1 MOL1        -0.1860
       8    H3      21.526595   16.207149   23.361002 H          1 MOL1         0.0752
       9    H4      19.895844   16.408017   23.974399 H          1 MOL1         0.0752
      10    C4      20.829272   18.241028   23.236947 C.3        1 MOL1        -0.1858
      11    H5      20.566732   18.050468   22.188959 H          1 MOL1         0.0752
      12    H6      21.827465   18.699356   23.226964 H          1 MOL1         0.0752
      13    C5      19.808449   19.231354   23.848141 C.3        1 MOL1        -0.1858
      14    H7      18.820775   18.755331   23.916483 H          1 MOL1         0.0752
      15    H8      20.109796   19.473125   24.874578 H          1 MOL1         0.0752
      16    C6      19.692609   20.561406   23.065250 C.3        1 MOL1        -0.1858
      17    H9      20.686145   21.020237   22.969404 H          1 MOL1         0.0752
      18    H10     19.085000   21.259084   23.657667 H          1 MOL1         0.0752
      19    C7      19.050719   20.405510   21.667712 C.3        1 MOL1        -0.1834
      20    H11     19.682818   19.777610   21.026679 H          1 MOL1         0.0752
      21    H12     18.081504   19.896303   21.760016 H          1 MOL1         0.0752
      22    C8      18.847303   21.772572   20.983710 C.3        1 MOL1        -0.2849
      23    H13     19.805345   22.292909   20.854200 H          1 MOL1         0.0764
      24    H14     18.393945   21.645263   19.992090 H          1 MOL1         0.0764
      25    H15     18.185436   22.415521   21.578596 H          1 MOL1         0.0764
@<TRIPOS>BOND
    1     1     2    1
    2     1     3    2
    3     1     4    1
    4     4     5    1
    5     4     6    1
    6     4     7    1
    7     7     8    1
    8     7     9    1
    9     7    10    1
   10    10    11    1
   11    10    12    1
   12    10    13    1
   13    13    14    1
   14    13    15    1
   15    13    16    1
   16    16    17    1
   17    16    18    1
   18    16    19    1
   19    19    20    1
   20    19    21    1
   21    19    22    1
   22    22    23    1
   23    22    24    1
   24    22    25    1
@<TRIPOS>SUBSTRUCTURE
       1 MOL1            1 RESIDUE      1      MOL     
@<SCITEGIC>MOL_PROPERTY
VConf Rank
SciTegic.value.IntegerValue
217

@<SCITEGIC>MOL_PROPERTY
Conf_Id
SciTegic.value.IntegerValue
114

@<SCITEGIC>MOL_PROPERTY
Delta U+W
SciTegic.value.DoubleValue
2.758

@<SCITEGIC>MOL_PROPERTY
U+W
SciTegic.value.DoubleValue
-48.871

@<SCITEGIC>MOL_PROPERTY
Grad RMS
SciTegic.value.DoubleValue
0.000000

@<SCITEGIC>MOL_PROPERTY
U
SciTegic.value.DoubleValue
11.422

@<SCITEGIC>MOL_PROPERTY
W
SciTegic.value.DoubleValue
-60.293

@<SCITEGIC>MOL_PROPERTY
W(PB)
SciTegic.value.DoubleValue
-62.719

@<SCITEGIC>MOL_PROPERTY
W(SA)
SciTegic.value.DoubleValue
2.425

@<SCITEGIC>MOL_PROPERTY
Valence
SciTegic.value.DoubleValue
10.135

@<SCITEGIC>MOL_PROPERTY
Coulomb
SciTegic.value.DoubleValue
0.369

@<SCITEGIC>MOL_PROPERTY
VdW
SciTegic.value.DoubleValue
0.918

@<SCITEGIC>MOL_PROPERTY
VdW6
SciTegic.value.DoubleValue
-10.482

@<SCITEGIC>MOL_PROPERTY
VdW12
SciTegic.value.DoubleValue
11.400

@<SCITEGIC>MOL_PROPERTY
Bond
SciTegic.value.DoubleValue
0.245

@<SCITEGIC>MOL_PROPERTY
Angle
SciTegic.value.DoubleValue
3.539

@<SCITEGIC>MOL_PROPERTY
Pdih
SciTegic.value.DoubleValue
6.346

@<SCITEGIC>MOL_PROPERTY
Idih
SciTegic.value.DoubleValue
0.006

@<SCITEGIC>MOL_PROPERTY
Tether
SciTegic.value.DoubleValue
0.000

@<TRIPOS>MOLECULE
guest-8_confgen4.mol2 : confsearch ligand conformer 218
          25          24           1
SMALL
USER_CHARGES
 
@<TRIPOS>ATOM
       1    C1      21.606001   21.270843   26.202971 C.2        1 MOL1         0.6168
       2    O1      22.786959   21.409645   25.951704 O.co2      1 MOL1        -0.6703
       3    O2      20.817463   22.193859   26.260826 O.co2      1 MOL1        -0.6703
       4    C2      21.086550   19.863233   26.481814 C.3        1 MOL1        -0.1963
       5    H1      20.446058   19.919481   27.369837 H          1 MOL1         0.0750
       6    H2      21.936767   19.221961   26.743879 H          1 MOL1         0.0750
       7    C3      20.288567   19.242663   25.305765 C.3        1 MOL1        -0.1860
       8    H3      19.845839   18.293597   25.636699 H          1 MOL1         0.0752
       9    H4      19.455317   19.910620   25.051101 H          1 MOL1         0.0752
      10    C4      21.171915   18.987911   24.060753 C.3        1 MOL1        -0.1858
      11    H5      22.047593   18.396529   24.361248 H          1 MOL1         0.0752
      12    H6      21.560384   19.941215   23.676559 H          1 MOL1         0.0752
      13    C5      20.438832   18.234750   22.924962 C.3        1 MOL1        -0.1858
      14    H7      21.179493   17.974499   22.158232 H          1 MOL1         0.0752
      15    H8      20.041472   17.285516   23.309126 H          1 MOL1         0.0752
      16    C6      19.296617   19.056288   22.277688 C.3        1 MOL1        -0.1858
      17    H9      19.693911   20.007003   21.896927 H          1 MOL1         0.0752
      18    H10     18.552869   19.313496   23.042376 H          1 MOL1         0.0752
      19    C7      18.569624   18.305520   21.137396 C.3        1 MOL1        -0.1834
      20    H11     18.180857   17.348483   21.511866 H          1 MOL1         0.0752
      21    H12     17.695512   18.895850   20.829698 H          1 MOL1         0.0752
      22    C8      19.459435   18.057556   19.899795 C.3        1 MOL1        -0.2849
      23    H13     18.871068   17.610762   19.087943 H          1 MOL1         0.0764
      24    H14     19.887349   18.997915   19.528678 H          1 MOL1         0.0764
      25    H15     20.283362   17.370326   20.128415 H          1 MOL1         0.0764
@<TRIPOS>BOND
    1     1     2    1
    2     1     3    2
    3     1     4    1
    4     4     5    1
    5     4     6    1
    6     4     7    1
    7     7     8    1
    8     7     9    1
    9     7    10    1
   10    10    11    1
   11    10    12    1
   12    10    13    1
   13    13    14    1
   14    13    15    1
   15    13    16    1
   16    16    17    1
   17    16    18    1
   18    16    19    1
   19    19    20    1
   20    19    21    1
   21    19    22    1
   22    22    23    1
   23    22    24    1
   24    22    25    1
@<TRIPOS>SUBSTRUCTURE
       1 MOL1            1 RESIDUE      1      MOL     
@<SCITEGIC>MOL_PROPERTY
VConf Rank
SciTegic.value.IntegerValue
218

@<SCITEGIC>MOL_PROPERTY
Conf_Id
SciTegic.value.IntegerValue
87

@<SCITEGIC>MOL_PROPERTY
Delta U+W
SciTegic.value.DoubleValue
1.453

@<SCITEGIC>MOL_PROPERTY
U+W
SciTegic.value.DoubleValue
-50.176

@<SCITEGIC>MOL_PROPERTY
Grad RMS
SciTegic.value.DoubleValue
0.000000

@<SCITEGIC>MOL_PROPERTY
U
SciTegic.value.DoubleValue
9.763

@<SCITEGIC>MOL_PROPERTY
W
SciTegic.value.DoubleValue
-59.940

@<SCITEGIC>MOL_PROPERTY
W(PB)
SciTegic.value.DoubleValue
-62.392

@<SCITEGIC>MOL_PROPERTY
W(SA)
SciTegic.value.DoubleValue
2.452

@<SCITEGIC>MOL_PROPERTY
Valence
SciTegic.value.DoubleValue
8.883

@<SCITEGIC>MOL_PROPERTY
Coulomb
SciTegic.value.DoubleValue
-0.122

@<SCITEGIC>MOL_PROPERTY
VdW
SciTegic.value.DoubleValue
1.003

@<SCITEGIC>MOL_PROPERTY
VdW6
SciTegic.value.DoubleValue
-9.782

@<SCITEGIC>MOL_PROPERTY
VdW12
SciTegic.value.DoubleValue
10.785

@<SCITEGIC>MOL_PROPERTY
Bond
SciTegic.value.DoubleValue
0.212

@<SCITEGIC>MOL_PROPERTY
Angle
SciTegic.value.DoubleValue
2.940

@<SCITEGIC>MOL_PROPERTY
Pdih
SciTegic.value.DoubleValue
5.730

@<SCITEGIC>MOL_PROPERTY
Idih
SciTegic.value.DoubleValue
0.001

@<SCITEGIC>MOL_PROPERTY
Tether
SciTegic.value.DoubleValue
0.000

@<TRIPOS>MOLECULE
guest-8_confgen4.mol2 : confsearch ligand conformer 219
          25          24           1
SMALL
USER_CHARGES
 
@<TRIPOS>ATOM
       1    C1      19.249164   16.538164   26.245983 C.2        1 MOL1         0.6168
       2    O1      18.742304   15.618233   25.634833 O.co2      1 MOL1        -0.6703
       3    O2      19.906979   16.393157   27.257415 O.co2      1 MOL1        -0.6703
       4    C2      19.065000   17.950986   25.703595 C.3        1 MOL1        -0.1963
       5    H1      19.037471   18.641703   26.554850 H          1 MOL1         0.0750
       6    H2      18.086068   18.002358   25.212038 H          1 MOL1         0.0750
       7    C3      20.181468   18.365353   24.713773 C.3        1 MOL1        -0.1860
       8    H3      21.156003   18.300938   25.217035 H          1 MOL1         0.0752
       9    H4      20.202272   17.648897   23.881881 H          1 MOL1         0.0752
      10    C4      19.966798   19.798256   24.174019 C.3        1 MOL1        -0.1858
      11    H5      19.879068   20.490311   25.022538 H          1 MOL1         0.0752
      12    H6      19.011283   19.853557   23.636115 H          1 MOL1         0.0752
      13    C5      21.116052   20.291226   23.259397 C.3        1 MOL1        -0.1858
      14    H7      20.916925   21.331189   22.969218 H          1 MOL1         0.0752
      15    H8      22.046031   20.319023   23.843211 H          1 MOL1         0.0752
      16    C6      21.358278   19.442146   21.983384 C.3        1 MOL1        -0.1858
      17    H9      21.717707   18.445935   22.272588 H          1 MOL1         0.0752
      18    H10     22.177362   19.897646   21.410574 H          1 MOL1         0.0752
      19    C7      20.129484   19.282191   21.054615 C.3        1 MOL1        -0.1834
      20    H11     20.413012   18.645939   20.205086 H          1 MOL1         0.0752
      21    H12     19.326306   18.747942   21.579321 H          1 MOL1         0.0752
      22    C8      19.595074   20.625695   20.512910 C.3        1 MOL1        -0.2849
      23    H13     20.387237   21.184513   19.997997 H          1 MOL1         0.0764
      24    H14     18.780736   20.454893   19.797083 H          1 MOL1         0.0764
      25    H15     19.200927   21.253121   21.322188 H          1 MOL1         0.0764
@<TRIPOS>BOND
    1     1     2    1
    2     1     3    2
    3     1     4    1
    4     4     5    1
    5     4     6    1
    6     4     7    1
    7     7     8    1
    8     7     9    1
    9     7    10    1
   10    10    11    1
   11    10    12    1
   12    10    13    1
   13    13    14    1
   14    13    15    1
   15    13    16    1
   16    16    17    1
   17    16    18    1
   18    16    19    1
   19    19    20    1
   20    19    21    1
   21    19    22    1
   22    22    23    1
   23    22    24    1
   24    22    25    1
@<TRIPOS>SUBSTRUCTURE
       1 MOL1            1 RESIDUE      1      MOL     
@<SCITEGIC>MOL_PROPERTY
VConf Rank
SciTegic.value.IntegerValue
219

@<SCITEGIC>MOL_PROPERTY
Conf_Id
SciTegic.value.IntegerValue
29

@<SCITEGIC>MOL_PROPERTY
Delta U+W
SciTegic.value.DoubleValue
0.850

@<SCITEGIC>MOL_PROPERTY
U+W
SciTegic.value.DoubleValue
-50.780

@<SCITEGIC>MOL_PROPERTY
Grad RMS
SciTegic.value.DoubleValue
0.000000

@<SCITEGIC>MOL_PROPERTY
U
SciTegic.value.DoubleValue
8.646

@<SCITEGIC>MOL_PROPERTY
W
SciTegic.value.DoubleValue
-59.426

@<SCITEGIC>MOL_PROPERTY
W(PB)
SciTegic.value.DoubleValue
-61.868

@<SCITEGIC>MOL_PROPERTY
W(SA)
SciTegic.value.DoubleValue
2.442

@<SCITEGIC>MOL_PROPERTY
Valence
SciTegic.value.DoubleValue
8.924

@<SCITEGIC>MOL_PROPERTY
Coulomb
SciTegic.value.DoubleValue
-1.171

@<SCITEGIC>MOL_PROPERTY
VdW
SciTegic.value.DoubleValue
0.894

@<SCITEGIC>MOL_PROPERTY
VdW6
SciTegic.value.DoubleValue
-10.223

@<SCITEGIC>MOL_PROPERTY
VdW12
SciTegic.value.DoubleValue
11.117

@<SCITEGIC>MOL_PROPERTY
Bond
SciTegic.value.DoubleValue
0.231

@<SCITEGIC>MOL_PROPERTY
Angle
SciTegic.value.DoubleValue
3.232

@<SCITEGIC>MOL_PROPERTY
Pdih
SciTegic.value.DoubleValue
5.461

@<SCITEGIC>MOL_PROPERTY
Idih
SciTegic.value.DoubleValue
0.001

@<SCITEGIC>MOL_PROPERTY
Tether
SciTegic.value.DoubleValue
0.000

@<TRIPOS>MOLECULE
guest-8_confgen4.mol2 : confsearch ligand conformer 220
          25          24           1
SMALL
USER_CHARGES
 
@<TRIPOS>ATOM
       1    C1      19.786137   15.254995   22.818001 C.2        1 MOL1         0.6168
       2    O1      19.567771   15.170837   21.625558 O.co2      1 MOL1        -0.6703
       3    O2      19.366649   14.461218   23.636956 O.co2      1 MOL1        -0.6703
       4    C2      20.616645   16.432246   23.316507 C.3        1 MOL1        -0.1963
       5    H1      21.343034   16.691193   22.536841 H          1 MOL1         0.0750
       6    H2      21.185765   16.100564   24.193189 H          1 MOL1         0.0750
       7    C3      19.754410   17.667842   23.674009 C.3        1 MOL1        -0.1860
       8    H3      19.180023   17.968395   22.787706 H          1 MOL1         0.0752
       9    H4      19.026660   17.391494   24.449350 H          1 MOL1         0.0752
      10    C4      20.621323   18.848446   24.169258 C.3        1 MOL1        -0.1858
      11    H5      21.321999   19.151680   23.380265 H          1 MOL1         0.0752
      12    H6      21.239454   18.509210   25.011549 H          1 MOL1         0.0752
      13    C5      19.790703   20.070540   24.634976 C.3        1 MOL1        -0.1858
      14    H7      19.165790   19.770018   25.486822 H          1 MOL1         0.0752
      15    H8      20.474408   20.836257   25.024343 H          1 MOL1         0.0752
      16    C6      18.878319   20.703682   23.551228 C.3        1 MOL1        -0.1858
      17    H9      18.359524   21.566105   23.991191 H          1 MOL1         0.0752
      18    H10     18.088995   19.990855   23.278994 H          1 MOL1         0.0752
      19    C7      19.605330   21.163298   22.263462 C.3        1 MOL1        -0.1834
      20    H11     20.058227   20.300655   21.756937 H          1 MOL1         0.0752
      21    H12     18.859548   21.568116   21.565727 H          1 MOL1         0.0752
      22    C8      20.680993   22.240530   22.521444 C.3        1 MOL1        -0.2849
      23    H13     21.503577   21.844472   23.130082 H          1 MOL1         0.0764
      24    H14     21.107615   22.592506   21.573375 H          1 MOL1         0.0764
      25    H15     20.252521   23.106495   23.042454 H          1 MOL1         0.0764
@<TRIPOS>BOND
    1     1     2    1
    2     1     3    2
    3     1     4    1
    4     4     5    1
    5     4     6    1
    6     4     7    1
    7     7     8    1
    8     7     9    1
    9     7    10    1
   10    10    11    1
   11    10    12    1
   12    10    13    1
   13    13    14    1
   14    13    15    1
   15    13    16    1
   16    16    17    1
   17    16    18    1
   18    16    19    1
   19    19    20    1
   20    19    21    1
   21    19    22    1
   22    22    23    1
   23    22    24    1
   24    22    25    1
@<TRIPOS>SUBSTRUCTURE
       1 MOL1            1 RESIDUE      1      MOL     
@<SCITEGIC>MOL_PROPERTY
VConf Rank
SciTegic.value.IntegerValue
220

@<SCITEGIC>MOL_PROPERTY
Conf_Id
SciTegic.value.IntegerValue
30

@<SCITEGIC>MOL_PROPERTY
Delta U+W
SciTegic.value.DoubleValue
0.843

@<SCITEGIC>MOL_PROPERTY
U+W
SciTegic.value.DoubleValue
-50.787

@<SCITEGIC>MOL_PROPERTY
Grad RMS
SciTegic.value.DoubleValue
0.000000

@<SCITEGIC>MOL_PROPERTY
U
SciTegic.value.DoubleValue
8.647

@<SCITEGIC>MOL_PROPERTY
W
SciTegic.value.DoubleValue
-59.434

@<SCITEGIC>MOL_PROPERTY
W(PB)
SciTegic.value.DoubleValue
-61.861

@<SCITEGIC>MOL_PROPERTY
W(SA)
SciTegic.value.DoubleValue
2.428

@<SCITEGIC>MOL_PROPERTY
Valence
SciTegic.value.DoubleValue
8.924

@<SCITEGIC>MOL_PROPERTY
Coulomb
SciTegic.value.DoubleValue
-1.170

@<SCITEGIC>MOL_PROPERTY
VdW
SciTegic.value.DoubleValue
0.894

@<SCITEGIC>MOL_PROPERTY
VdW6
SciTegic.value.DoubleValue
-10.224

@<SCITEGIC>MOL_PROPERTY
VdW12
SciTegic.value.DoubleValue
11.118

@<SCITEGIC>MOL_PROPERTY
Bond
SciTegic.value.DoubleValue
0.231

@<SCITEGIC>MOL_PROPERTY
Angle
SciTegic.value.DoubleValue
3.232

@<SCITEGIC>MOL_PROPERTY
Pdih
SciTegic.value.DoubleValue
5.460

@<SCITEGIC>MOL_PROPERTY
Idih
SciTegic.value.DoubleValue
0.000

@<SCITEGIC>MOL_PROPERTY
Tether
SciTegic.value.DoubleValue
0.000

@<TRIPOS>MOLECULE
guest-8_confgen4.mol2 : confsearch ligand conformer 221
          25          24           1
SMALL
USER_CHARGES
 
@<TRIPOS>ATOM
       1    C1      21.434078   23.399862   24.684778 C.2        1 MOL1         0.6168
       2    O1      21.900601   22.955333   25.715967 O.co2      1 MOL1        -0.6703
       3    O2      21.449770   24.581946   24.404512 O.co2      1 MOL1        -0.6703
       4    C2      20.789889   22.451110   23.672707 C.3        1 MOL1        -0.1963
       5    H1      21.317963   22.581064   22.720784 H          1 MOL1         0.0750
       6    H2      19.759070   22.790283   23.516889 H          1 MOL1         0.0750
       7    C3      20.793955   20.952144   24.074581 C.3        1 MOL1        -0.1860
       8    H3      21.829233   20.620689   24.235337 H          1 MOL1         0.0752
       9    H4      20.268883   20.830076   25.032132 H          1 MOL1         0.0752
      10    C4      20.126192   20.067406   22.999417 C.3        1 MOL1        -0.1858
      11    H5      20.652720   20.191105   22.043067 H          1 MOL1         0.0752
      12    H6      19.091389   20.400609   22.840378 H          1 MOL1         0.0752
      13    C5      20.131359   18.576762   23.401216 C.3        1 MOL1        -0.1858
      14    H7      21.166048   18.243269   23.560291 H          1 MOL1         0.0752
      15    H8      19.604855   18.452746   24.357519 H          1 MOL1         0.0752
      16    C6      19.463837   17.691576   22.326612 C.3        1 MOL1        -0.1858
      17    H9      19.990222   17.815399   21.370223 H          1 MOL1         0.0752
      18    H10     18.429090   18.024831   22.167449 H          1 MOL1         0.0752
      19    C7      19.468981   16.201564   22.728107 C.3        1 MOL1        -0.1834
      20    H11     20.502690   15.864092   22.886365 H          1 MOL1         0.0752
      21    H12     18.941566   16.073516   23.683578 H          1 MOL1         0.0752
      22    C8      18.801602   15.321012   21.652542 C.3        1 MOL1        -0.2849
      23    H13     19.328679   15.405520   20.693144 H          1 MOL1         0.0764
      24    H14     18.814073   14.265579   21.954191 H          1 MOL1         0.0764
      25    H15     17.755805   15.616502   21.496370 H          1 MOL1         0.0764
@<TRIPOS>BOND
    1     1     2    1
    2     1     3    2
    3     1     4    1
    4     4     5    1
    5     4     6    1
    6     4     7    1
    7     7     8    1
    8     7     9    1
    9     7    10    1
   10    10    11    1
   11    10    12    1
   12    10    13    1
   13    13    14    1
   14    13    15    1
   15    13    16    1
   16    16    17    1
   17    16    18    1
   18    16    19    1
   19    19    20    1
   20    19    21    1
   21    19    22    1
   22    22    23    1
   23    22    24    1
   24    22    25    1
@<TRIPOS>SUBSTRUCTURE
       1 MOL1            1 RESIDUE      1      MOL     
@<SCITEGIC>MOL_PROPERTY
VConf Rank
SciTegic.value.IntegerValue
221

@<SCITEGIC>MOL_PROPERTY
Conf_Id
SciTegic.value.IntegerValue
0

@<SCITEGIC>MOL_PROPERTY
Delta U+W
SciTegic.value.DoubleValue
0.000

@<SCITEGIC>MOL_PROPERTY
U+W
SciTegic.value.DoubleValue
-51.629

@<SCITEGIC>MOL_PROPERTY
Grad RMS
SciTegic.value.DoubleValue
0.000000

@<SCITEGIC>MOL_PROPERTY
U
SciTegic.value.DoubleValue
6.586

@<SCITEGIC>MOL_PROPERTY
W
SciTegic.value.DoubleValue
-58.216

@<SCITEGIC>MOL_PROPERTY
W(PB)
SciTegic.value.DoubleValue
-60.757

@<SCITEGIC>MOL_PROPERTY
W(SA)
SciTegic.value.DoubleValue
2.541

@<SCITEGIC>MOL_PROPERTY
Valence
SciTegic.value.DoubleValue
8.027

@<SCITEGIC>MOL_PROPERTY
Coulomb
SciTegic.value.DoubleValue
-2.892

@<SCITEGIC>MOL_PROPERTY
VdW
SciTegic.value.DoubleValue
1.451

@<SCITEGIC>MOL_PROPERTY
VdW6
SciTegic.value.DoubleValue
-7.931

@<SCITEGIC>MOL_PROPERTY
VdW12
SciTegic.value.DoubleValue
9.383

@<SCITEGIC>MOL_PROPERTY
Bond
SciTegic.value.DoubleValue
0.149

@<SCITEGIC>MOL_PROPERTY
Angle
SciTegic.value.DoubleValue
2.726

@<SCITEGIC>MOL_PROPERTY
Pdih
SciTegic.value.DoubleValue
5.152

@<SCITEGIC>MOL_PROPERTY
Idih
SciTegic.value.DoubleValue
0.000

@<SCITEGIC>MOL_PROPERTY
Tether
SciTegic.value.DoubleValue
0.000

@<TRIPOS>MOLECULE
guest-8_confgen4.mol2 : confsearch ligand conformer 222
          25          24           1
SMALL
USER_CHARGES
 
@<TRIPOS>ATOM
       1    C1      16.143246   17.499601   24.957467 C.2        1 MOL1         0.6168
       2    O1      16.040492   16.289218   24.925306 O.co2      1 MOL1        -0.6703
       3    O2      15.665644   18.192976   25.833680 O.co2      1 MOL1        -0.6703
       4    C2      16.935014   18.184317   23.849158 C.3        1 MOL1        -0.1963
       5    H1      16.493925   19.173386   23.676569 H          1 MOL1         0.0750
       6    H2      16.802241   17.604714   22.927726 H          1 MOL1         0.0750
       7    C3      18.441058   18.321192   24.182506 C.3        1 MOL1        -0.1860
       8    H3      18.556049   18.892361   25.114245 H          1 MOL1         0.0752
       9    H4      18.864310   17.323727   24.365573 H          1 MOL1         0.0752
      10    C4      19.220599   19.016940   23.045724 C.3        1 MOL1        -0.1858
      11    H5      18.794364   20.013258   22.864465 H          1 MOL1         0.0752
      12    H6      19.102503   18.444285   22.115509 H          1 MOL1         0.0752
      13    C5      20.721610   19.151780   23.380764 C.3        1 MOL1        -0.1858
      14    H7      20.839957   19.724456   24.310893 H          1 MOL1         0.0752
      15    H8      21.148036   18.155585   23.562039 H          1 MOL1         0.0752
      16    C6      21.501806   19.847384   22.244406 C.3        1 MOL1        -0.1858
      17    H9      21.075682   20.843671   22.062951 H          1 MOL1         0.0752
      18    H10     21.383663   19.274926   21.314122 H          1 MOL1         0.0752
      19    C7      23.002198   19.982182   22.579094 C.3        1 MOL1        -0.1834
      20    H11     23.124421   20.555968   23.508244 H          1 MOL1         0.0752
      21    H12     23.432405   18.987243   22.759390 H          1 MOL1         0.0752
      22    C8      23.777744   20.677259   21.441993 C.3        1 MOL1        -0.2849
      23    H13     24.841990   20.764661   21.696606 H          1 MOL1         0.0764
      24    H14     23.698685   20.107278   20.506970 H          1 MOL1         0.0764
      25    H15     23.388380   21.687805   21.261466 H          1 MOL1         0.0764
@<TRIPOS>BOND
    1     1     2    1
    2     1     3    2
    3     1     4    1
    4     4     5    1
    5     4     6    1
    6     4     7    1
    7     7     8    1
    8     7     9    1
    9     7    10    1
   10    10    11    1
   11    10    12    1
   12    10    13    1
   13    13    14    1
   14    13    15    1
   15    13    16    1
   16    16    17    1
   17    16    18    1
   18    16    19    1
   19    19    20    1
   20    19    21    1
   21    19    22    1
   22    22    23    1
   23    22    24    1
   24    22    25    1
@<TRIPOS>SUBSTRUCTURE
       1 MOL1            1 RESIDUE      1      MOL     
@<SCITEGIC>MOL_PROPERTY
VConf Rank
SciTegic.value.IntegerValue
222

@<SCITEGIC>MOL_PROPERTY
Conf_Id
SciTegic.value.IntegerValue
27

@<SCITEGIC>MOL_PROPERTY
Delta U+W
SciTegic.value.DoubleValue
-1.297

@<SCITEGIC>MOL_PROPERTY
U+W
SciTegic.value.DoubleValue
-52.926

@<SCITEGIC>MOL_PROPERTY
Grad RMS
SciTegic.value.DoubleValue
0.000000

@<SCITEGIC>MOL_PROPERTY
U
SciTegic.value.DoubleValue
5.617

@<SCITEGIC>MOL_PROPERTY
W
SciTegic.value.DoubleValue
-58.543

@<SCITEGIC>MOL_PROPERTY
W(PB)
SciTegic.value.DoubleValue
-61.065

@<SCITEGIC>MOL_PROPERTY
W(SA)
SciTegic.value.DoubleValue
2.522

@<SCITEGIC>MOL_PROPERTY
Valence
SciTegic.value.DoubleValue
7.531

@<SCITEGIC>MOL_PROPERTY
Coulomb
SciTegic.value.DoubleValue
-2.818

@<SCITEGIC>MOL_PROPERTY
VdW
SciTegic.value.DoubleValue
0.904

@<SCITEGIC>MOL_PROPERTY
VdW6
SciTegic.value.DoubleValue
-7.640

@<SCITEGIC>MOL_PROPERTY
VdW12
SciTegic.value.DoubleValue
8.544

@<SCITEGIC>MOL_PROPERTY
Bond
SciTegic.value.DoubleValue
0.115

@<SCITEGIC>MOL_PROPERTY
Angle
SciTegic.value.DoubleValue
2.271

@<SCITEGIC>MOL_PROPERTY
Pdih
SciTegic.value.DoubleValue
5.144

@<SCITEGIC>MOL_PROPERTY
Idih
SciTegic.value.DoubleValue
0.001

@<SCITEGIC>MOL_PROPERTY
Tether
SciTegic.value.DoubleValue
0.000

@<TRIPOS>MOLECULE
guest-8_confgen4.mol2 : confsearch ligand conformer 223
          25          24           1
SMALL
USER_CHARGES
 
@<TRIPOS>ATOM
       1    C1      16.724187   19.662832   21.432925 C.2        1 MOL1         0.6168
       2    O1      16.243043   18.641970   20.981910 O.co2      1 MOL1        -0.6703
       3    O2      16.221857   20.301148   22.336905 O.co2      1 MOL1        -0.6703
       4    C2      18.021788   20.178807   20.817324 C.3        1 MOL1        -0.1963
       5    H1      18.134221   21.238905   21.075001 H          1 MOL1         0.0750
       6    H2      17.911107   20.126949   19.727808 H          1 MOL1         0.0750
       7    C3      19.282914   19.385946   21.248459 C.3        1 MOL1        -0.1860
       8    H3      19.143664   18.322467   21.009095 H          1 MOL1         0.0752
       9    H4      20.141412   19.733134   20.657706 H          1 MOL1         0.0752
      10    C4      19.600718   19.546730   22.752093 C.3        1 MOL1        -0.1858
      11    H5      18.753015   19.185035   23.350425 H          1 MOL1         0.0752
      12    H6      19.725649   20.612247   22.988928 H          1 MOL1         0.0752
      13    C5      20.876995   18.775688   23.152397 C.3        1 MOL1        -0.1858
      14    H7      20.751109   17.710331   22.915215 H          1 MOL1         0.0752
      15    H8      21.726663   19.137826   22.557454 H          1 MOL1         0.0752
      16    C6      21.194687   18.935198   24.654891 C.3        1 MOL1        -0.1858
      17    H9      20.345037   18.573151   25.249992 H          1 MOL1         0.0752
      18    H10     21.320260   20.000524   24.892365 H          1 MOL1         0.0752
      19    C7      22.470010   18.164258   25.055605 C.3        1 MOL1        -0.1834
      20    H11     22.347218   17.097756   24.821133 H          1 MOL1         0.0752
      21    H12     23.322483   18.525190   24.463577 H          1 MOL1         0.0752
      22    C8      22.783600   18.325984   26.556642 C.3        1 MOL1        -0.2849
      23    H13     21.959852   17.943405   27.173465 H          1 MOL1         0.0764
      24    H14     23.692737   17.771794   26.823894 H          1 MOL1         0.0764
      25    H15     22.942417   19.381599   26.813251 H          1 MOL1         0.0764
@<TRIPOS>BOND
    1     1     2    1
    2     1     3    2
    3     1     4    1
    4     4     5    1
    5     4     6    1
    6     4     7    1
    7     7     8    1
    8     7     9    1
    9     7    10    1
   10    10    11    1
   11    10    12    1
   12    10    13    1
   13    13    14    1
   14    13    15    1
   15    13    16    1
   16    16    17    1
   17    16    18    1
   18    16    19    1
   19    19    20    1
   20    19    21    1
   21    19    22    1
   22    22    23    1
   23    22    24    1
   24    22    25    1
@<TRIPOS>SUBSTRUCTURE
       1 MOL1            1 RESIDUE      1      MOL     
@<SCITEGIC>MOL_PROPERTY
VConf Rank
SciTegic.value.IntegerValue
223

@<SCITEGIC>MOL_PROPERTY
Conf_Id
SciTegic.value.IntegerValue
37

@<SCITEGIC>MOL_PROPERTY
Delta U+W
SciTegic.value.DoubleValue
-0.230

@<SCITEGIC>MOL_PROPERTY
U+W
SciTegic.value.DoubleValue
-51.860

@<SCITEGIC>MOL_PROPERTY
Grad RMS
SciTegic.value.DoubleValue
0.000000

@<SCITEGIC>MOL_PROPERTY
U
SciTegic.value.DoubleValue
7.816

@<SCITEGIC>MOL_PROPERTY
W
SciTegic.value.DoubleValue
-59.675

@<SCITEGIC>MOL_PROPERTY
W(PB)
SciTegic.value.DoubleValue
-62.180

@<SCITEGIC>MOL_PROPERTY
W(SA)
SciTegic.value.DoubleValue
2.505

@<SCITEGIC>MOL_PROPERTY
Valence
SciTegic.value.DoubleValue
7.785

@<SCITEGIC>MOL_PROPERTY
Coulomb
SciTegic.value.DoubleValue
-0.713

@<SCITEGIC>MOL_PROPERTY
VdW
SciTegic.value.DoubleValue
0.744

@<SCITEGIC>MOL_PROPERTY
VdW6
SciTegic.value.DoubleValue
-8.514

@<SCITEGIC>MOL_PROPERTY
VdW12
SciTegic.value.DoubleValue
9.259

@<SCITEGIC>MOL_PROPERTY
Bond
SciTegic.value.DoubleValue
0.136

@<SCITEGIC>MOL_PROPERTY
Angle
SciTegic.value.DoubleValue
2.433

@<SCITEGIC>MOL_PROPERTY
Pdih
SciTegic.value.DoubleValue
5.216

@<SCITEGIC>MOL_PROPERTY
Idih
SciTegic.value.DoubleValue
0.000

@<SCITEGIC>MOL_PROPERTY
Tether
SciTegic.value.DoubleValue
0.000

@<TRIPOS>MOLECULE
guest-8_confgen4.mol2 : confsearch ligand conformer 224
          25          24           1
SMALL
USER_CHARGES
 
@<TRIPOS>ATOM
       1    C1      20.163425   19.327681   19.310494 C.2        1 MOL1         0.6168
       2    O1      19.828917   20.381939   18.806791 O.co2      1 MOL1        -0.6703
       3    O2      19.536655   18.293903   19.186291 O.co2      1 MOL1        -0.6703
       4    C2      21.450381   19.299172   20.130190 C.3        1 MOL1        -0.1963
       5    H1      22.216154   19.834806   19.556892 H          1 MOL1         0.0750
       6    H2      21.787644   18.259128   20.216264 H          1 MOL1         0.0750
       7    C3      21.315735   19.936964   21.537328 C.3        1 MOL1        -0.1860
       8    H3      22.311109   19.997622   21.997871 H          1 MOL1         0.0752
       9    H4      20.950810   20.968573   21.435913 H          1 MOL1         0.0752
      10    C4      20.373240   19.137172   22.464583 C.3        1 MOL1        -0.1858
      11    H5      20.734772   18.103405   22.552018 H          1 MOL1         0.0752
      12    H6      19.370215   19.086850   22.018678 H          1 MOL1         0.0752
      13    C5      20.278907   19.771740   23.868882 C.3        1 MOL1        -0.1858
      14    H7      21.280409   19.820426   24.317946 H          1 MOL1         0.0752
      15    H8      19.917195   20.805388   23.780425 H          1 MOL1         0.0752
      16    C6      19.336773   18.973511   24.795743 C.3        1 MOL1        -0.1858
      17    H9      19.698146   17.939740   24.884106 H          1 MOL1         0.0752
      18    H10     18.335210   18.924618   24.346735 H          1 MOL1         0.0752
      19    C7      19.241679   19.607752   26.199331 C.3        1 MOL1        -0.1834
      20    H11     20.241632   19.656621   26.652302 H          1 MOL1         0.0752
      21    H12     18.878591   20.641446   26.114911 H          1 MOL1         0.0752
      22    C8      18.299978   18.807706   27.121681 C.3        1 MOL1        -0.2849
      23    H13     18.657094   17.777373   27.249265 H          1 MOL1         0.0764
      24    H14     18.244186   19.272418   28.114662 H          1 MOL1         0.0764
      25    H15     17.283799   18.769560   26.707769 H          1 MOL1         0.0764
@<TRIPOS>BOND
    1     1     2    1
    2     1     3    2
    3     1     4    1
    4     4     5    1
    5     4     6    1
    6     4     7    1
    7     7     8    1
    8     7     9    1
    9     7    10    1
   10    10    11    1
   11    10    12    1
   12    10    13    1
   13    13    14    1
   14    13    15    1
   15    13    16    1
   16    16    17    1
   17    16    18    1
   18    16    19    1
   19    19    20    1
   20    19    21    1
   21    19    22    1
   22    22    23    1
   23    22    24    1
   24    22    25    1
@<TRIPOS>SUBSTRUCTURE
       1 MOL1            1 RESIDUE      1      MOL     
@<SCITEGIC>MOL_PROPERTY
VConf Rank
SciTegic.value.IntegerValue
224

@<SCITEGIC>MOL_PROPERTY
Conf_Id
SciTegic.value.IntegerValue
54

@<SCITEGIC>MOL_PROPERTY
Delta U+W
SciTegic.value.DoubleValue
-0.224

@<SCITEGIC>MOL_PROPERTY
U+W
SciTegic.value.DoubleValue
-51.854

@<SCITEGIC>MOL_PROPERTY
Grad RMS
SciTegic.value.DoubleValue
0.000000

@<SCITEGIC>MOL_PROPERTY
U
SciTegic.value.DoubleValue
7.816

@<SCITEGIC>MOL_PROPERTY
W
SciTegic.value.DoubleValue
-59.670

@<SCITEGIC>MOL_PROPERTY
W(PB)
SciTegic.value.DoubleValue
-62.157

@<SCITEGIC>MOL_PROPERTY
W(SA)
SciTegic.value.DoubleValue
2.487

@<SCITEGIC>MOL_PROPERTY
Valence
SciTegic.value.DoubleValue
7.785

@<SCITEGIC>MOL_PROPERTY
Coulomb
SciTegic.value.DoubleValue
-0.713

@<SCITEGIC>MOL_PROPERTY
VdW
SciTegic.value.DoubleValue
0.744

@<SCITEGIC>MOL_PROPERTY
VdW6
SciTegic.value.DoubleValue
-8.515

@<SCITEGIC>MOL_PROPERTY
VdW12
SciTegic.value.DoubleValue
9.259

@<SCITEGIC>MOL_PROPERTY
Bond
SciTegic.value.DoubleValue
0.136

@<SCITEGIC>MOL_PROPERTY
Angle
SciTegic.value.DoubleValue
2.433

@<SCITEGIC>MOL_PROPERTY
Pdih
SciTegic.value.DoubleValue
5.215

@<SCITEGIC>MOL_PROPERTY
Idih
SciTegic.value.DoubleValue
0.000

@<SCITEGIC>MOL_PROPERTY
Tether
SciTegic.value.DoubleValue
0.000

@<TRIPOS>MOLECULE
guest-8_confgen4.mol2 : confsearch ligand conformer 225
          25          24           1
SMALL
USER_CHARGES
 
@<TRIPOS>ATOM
       1    C1      20.440852   22.638472   21.316684 C.2        1 MOL1         0.6168
       2    O1      20.306576   23.493741   22.169640 O.co2      1 MOL1        -0.6703
       3    O2      21.352916   22.626955   20.513493 O.co2      1 MOL1        -0.6703
       4    C2      19.397823   21.527265   21.236084 C.3        1 MOL1        -0.1963
       5    H1      19.121173   21.414696   20.181208 H          1 MOL1         0.0750
       6    H2      18.495852   21.853836   21.767713 H          1 MOL1         0.0750
       7    C3      19.882844   20.163061   21.792290 C.3        1 MOL1        -0.1860
       8    H3      19.130558   19.402440   21.548720 H          1 MOL1         0.0752
       9    H4      20.809050   19.869661   21.279008 H          1 MOL1         0.0752
      10    C4      20.117987   20.195266   23.321872 C.3        1 MOL1        -0.1858
      11    H5      19.180006   20.444022   23.836739 H          1 MOL1         0.0752
      12    H6      20.823957   21.002764   23.559637 H          1 MOL1         0.0752
      13    C5      20.686398   18.872548   23.889571 C.3        1 MOL1        -0.1858
      14    H7      21.614317   18.614460   23.361429 H          1 MOL1         0.0752
      15    H8      20.962858   19.045675   24.937315 H          1 MOL1         0.0752
      16    C6      19.692215   17.687557   23.810684 C.3        1 MOL1        -0.1858
      17    H9      19.419870   17.507632   22.763149 H          1 MOL1         0.0752
      18    H10     18.762601   17.948152   24.334635 H          1 MOL1         0.0752
      19    C7      20.259809   16.370060   24.389066 C.3        1 MOL1        -0.1834
      20    H11     19.553344   15.557459   24.170359 H          1 MOL1         0.0752
      21    H12     21.196619   16.112549   23.875865 H          1 MOL1         0.0752
      22    C8      20.498439   16.420698   25.914002 C.3        1 MOL1        -0.2849
      23    H13     21.288948   17.135622   26.173585 H          1 MOL1         0.0764
      24    H14     19.582806   16.710626   26.445668 H          1 MOL1         0.0764
      25    H15     20.807549   15.435520   26.286535 H          1 MOL1         0.0764
@<TRIPOS>BOND
    1     1     2    1
    2     1     3    2
    3     1     4    1
    4     4     5    1
    5     4     6    1
    6     4     7    1
    7     7     8    1
    8     7     9    1
    9     7    10    1
   10    10    11    1
   11    10    12    1
   12    10    13    1
   13    13    14    1
   14    13    15    1
   15    13    16    1
   16    16    17    1
   17    16    18    1
   18    16    19    1
   19    19    20    1
   20    19    21    1
   21    19    22    1
   22    22    23    1
   23    22    24    1
   24    22    25    1
@<TRIPOS>SUBSTRUCTURE
       1 MOL1            1 RESIDUE      1      MOL     
@<SCITEGIC>MOL_PROPERTY
VConf Rank
SciTegic.value.IntegerValue
225

@<SCITEGIC>MOL_PROPERTY
Conf_Id
SciTegic.value.IntegerValue
101

@<SCITEGIC>MOL_PROPERTY
Delta U+W
SciTegic.value.DoubleValue
1.534

@<SCITEGIC>MOL_PROPERTY
U+W
SciTegic.value.DoubleValue
-50.095

@<SCITEGIC>MOL_PROPERTY
Grad RMS
SciTegic.value.DoubleValue
0.000000

@<SCITEGIC>MOL_PROPERTY
U
SciTegic.value.DoubleValue
9.416

@<SCITEGIC>MOL_PROPERTY
W
SciTegic.value.DoubleValue
-59.512

@<SCITEGIC>MOL_PROPERTY
W(PB)
SciTegic.value.DoubleValue
-61.988

@<SCITEGIC>MOL_PROPERTY
W(SA)
SciTegic.value.DoubleValue
2.476

@<SCITEGIC>MOL_PROPERTY
Valence
SciTegic.value.DoubleValue
8.939

@<SCITEGIC>MOL_PROPERTY
Coulomb
SciTegic.value.DoubleValue
-0.615

@<SCITEGIC>MOL_PROPERTY
VdW
SciTegic.value.DoubleValue
1.092

@<SCITEGIC>MOL_PROPERTY
VdW6
SciTegic.value.DoubleValue
-9.710

@<SCITEGIC>MOL_PROPERTY
VdW12
SciTegic.value.DoubleValue
10.802

@<SCITEGIC>MOL_PROPERTY
Bond
SciTegic.value.DoubleValue
0.216

@<SCITEGIC>MOL_PROPERTY
Angle
SciTegic.value.DoubleValue
2.979

@<SCITEGIC>MOL_PROPERTY
Pdih
SciTegic.value.DoubleValue
5.743

@<SCITEGIC>MOL_PROPERTY
Idih
SciTegic.value.DoubleValue
0.000

@<SCITEGIC>MOL_PROPERTY
Tether
SciTegic.value.DoubleValue
0.000

@<TRIPOS>MOLECULE
guest-8_confgen4.mol2 : confsearch ligand conformer 226
          25          24           1
SMALL
USER_CHARGES
 
@<TRIPOS>ATOM
       1    C1      23.507874   19.407652   20.852519 C.2        1 MOL1         0.6168
       2    O1      24.418991   18.884176   21.462909 O.co2      1 MOL1        -0.6703
       3    O2      23.507229   19.563622   19.647342 O.co2      1 MOL1        -0.6703
       4    C2      22.288250   19.874174   21.639310 C.3        1 MOL1        -0.1963
       5    H1      21.869787   20.750262   21.129704 H          1 MOL1         0.0750
       6    H2      22.635080   20.205133   22.624468 H          1 MOL1         0.0750
       7    C3      21.207951   18.770238   21.780153 C.3        1 MOL1        -0.1860
       8    H3      20.957031   18.394993   20.778326 H          1 MOL1         0.0752
       9    H4      21.623400   17.917699   22.335023 H          1 MOL1         0.0752
      10    C4      19.908307   19.256633   22.465027 C.3        1 MOL1        -0.1858
      11    H5      19.164247   18.453557   22.388002 H          1 MOL1         0.0752
      12    H6      19.500130   20.114934   21.914320 H          1 MOL1         0.0752
      13    C5      20.101442   19.634159   23.954347 C.3        1 MOL1        -0.1858
      14    H7      20.508623   18.776188   24.504899 H          1 MOL1         0.0752
      15    H8      20.851204   20.431088   24.034845 H          1 MOL1         0.0752
      16    C6      18.804064   20.134803   24.638834 C.3        1 MOL1        -0.1858
      17    H9      18.460371   21.043978   24.127021 H          1 MOL1         0.0752
      18    H10     19.045170   20.439180   25.666400 H          1 MOL1         0.0752
      19    C7      17.637649   19.116477   24.682980 C.3        1 MOL1        -0.1834
      20    H11     16.781743   19.588117   25.185001 H          1 MOL1         0.0752
      21    H12     17.298938   18.882315   23.665245 H          1 MOL1         0.0752
      22    C8      17.991768   17.811138   25.427715 C.3        1 MOL1        -0.2849
      23    H13     18.356369   18.023377   26.441124 H          1 MOL1         0.0764
      24    H14     17.108005   17.165908   25.513777 H          1 MOL1         0.0764
      25    H15     18.765681   17.245322   24.893870 H          1 MOL1         0.0764
@<TRIPOS>BOND
    1     1     2    1
    2     1     3    2
    3     1     4    1
    4     4     5    1
    5     4     6    1
    6     4     7    1
    7     7     8    1
    8     7     9    1
    9     7    10    1
   10    10    11    1
   11    10    12    1
   12    10    13    1
   13    13    14    1
   14    13    15    1
   15    13    16    1
   16    16    17    1
   17    16    18    1
   18    16    19    1
   19    19    20    1
   20    19    21    1
   21    19    22    1
   22    22    23    1
   23    22    24    1
   24    22    25    1
@<TRIPOS>SUBSTRUCTURE
       1 MOL1            1 RESIDUE      1      MOL     
@<SCITEGIC>MOL_PROPERTY
VConf Rank
SciTegic.value.IntegerValue
226

@<SCITEGIC>MOL_PROPERTY
Conf_Id
SciTegic.value.IntegerValue
75

@<SCITEGIC>MOL_PROPERTY
Delta U+W
SciTegic.value.DoubleValue
1.014

@<SCITEGIC>MOL_PROPERTY
U+W
SciTegic.value.DoubleValue
-50.615

@<SCITEGIC>MOL_PROPERTY
Grad RMS
SciTegic.value.DoubleValue
0.000000

@<SCITEGIC>MOL_PROPERTY
U
SciTegic.value.DoubleValue
8.474

@<SCITEGIC>MOL_PROPERTY
W
SciTegic.value.DoubleValue
-59.089

@<SCITEGIC>MOL_PROPERTY
W(PB)
SciTegic.value.DoubleValue
-61.530

@<SCITEGIC>MOL_PROPERTY
W(SA)
SciTegic.value.DoubleValue
2.441

@<SCITEGIC>MOL_PROPERTY
Valence
SciTegic.value.DoubleValue
9.080

@<SCITEGIC>MOL_PROPERTY
Coulomb
SciTegic.value.DoubleValue
-1.772

@<SCITEGIC>MOL_PROPERTY
VdW
SciTegic.value.DoubleValue
1.165

@<SCITEGIC>MOL_PROPERTY
VdW6
SciTegic.value.DoubleValue
-9.830

@<SCITEGIC>MOL_PROPERTY
VdW12
SciTegic.value.DoubleValue
10.996

@<SCITEGIC>MOL_PROPERTY
Bond
SciTegic.value.DoubleValue
0.240

@<SCITEGIC>MOL_PROPERTY
Angle
SciTegic.value.DoubleValue
3.225

@<SCITEGIC>MOL_PROPERTY
Pdih
SciTegic.value.DoubleValue
5.615

@<SCITEGIC>MOL_PROPERTY
Idih
SciTegic.value.DoubleValue
0.001

@<SCITEGIC>MOL_PROPERTY
Tether
SciTegic.value.DoubleValue
0.000

@<TRIPOS>MOLECULE
guest-8_confgen4.mol2 : confsearch ligand conformer 227
          25          24           1
SMALL
USER_CHARGES
 
@<TRIPOS>ATOM
       1    C1      18.853052   17.998786   27.158413 C.2        1 MOL1         0.6168
       2    O1      19.813045   17.531398   27.738597 O.co2      1 MOL1        -0.6703
       3    O2      17.904386   18.504357   27.725070 O.co2      1 MOL1        -0.6703
       4    C2      18.848323   17.968402   25.634230 C.3        1 MOL1        -0.1963
       5    H1      17.809240   17.867029   25.298687 H          1 MOL1         0.0750
       6    H2      19.383270   17.067732   25.309837 H          1 MOL1         0.0750
       7    C3      19.492716   19.228359   25.005463 C.3        1 MOL1        -0.1860
       8    H3      18.954153   20.122060   25.350055 H          1 MOL1         0.0752
       9    H4      20.527987   19.322416   25.361697 H          1 MOL1         0.0752
      10    C4      19.477238   19.172905   23.462467 C.3        1 MOL1        -0.1858
      11    H5      18.440716   19.078445   23.111024 H          1 MOL1         0.0752
      12    H6      20.006264   18.273092   23.126784 H          1 MOL1         0.0752
      13    C5      20.116445   20.436163   22.839305 C.3        1 MOL1        -0.1858
      14    H7      19.540994   21.310506   23.172916 H          1 MOL1         0.0752
      15    H8      21.136601   20.577095   23.221717 H          1 MOL1         0.0752
      16    C6      20.127930   20.418085   21.289477 C.3        1 MOL1        -0.1858
      17    H9      19.957369   21.443802   20.934961 H          1 MOL1         0.0752
      18    H10     19.283878   19.826855   20.908875 H          1 MOL1         0.0752
      19    C7      21.452438   19.921827   20.658357 C.3        1 MOL1        -0.1834
      20    H11     21.379489   20.027345   19.567158 H          1 MOL1         0.0752
      21    H12     22.278145   20.573729   20.975325 H          1 MOL1         0.0752
      22    C8      21.801243   18.456131   20.990687 C.3        1 MOL1        -0.2849
      23    H13     20.966329   17.786909   20.745691 H          1 MOL1         0.0764
      24    H14     22.677111   18.130038   20.415125 H          1 MOL1         0.0764
      25    H15     22.042818   18.338583   22.054383 H          1 MOL1         0.0764
@<TRIPOS>BOND
    1     1     2    1
    2     1     3    2
    3     1     4    1
    4     4     5    1
    5     4     6    1
    6     4     7    1
    7     7     8    1
    8     7     9    1
    9     7    10    1
   10    10    11    1
   11    10    12    1
   12    10    13    1
   13    13    14    1
   14    13    15    1
   15    13    16    1
   16    16    17    1
   17    16    18    1
   18    16    19    1
   19    19    20    1
   20    19    21    1
   21    19    22    1
   22    22    23    1
   23    22    24    1
   24    22    25    1
@<TRIPOS>SUBSTRUCTURE
       1 MOL1            1 RESIDUE      1      MOL     
@<SCITEGIC>MOL_PROPERTY
VConf Rank
SciTegic.value.IntegerValue
227

@<SCITEGIC>MOL_PROPERTY
Conf_Id
SciTegic.value.IntegerValue
125

@<SCITEGIC>MOL_PROPERTY
Delta U+W
SciTegic.value.DoubleValue
2.314

@<SCITEGIC>MOL_PROPERTY
U+W
SciTegic.value.DoubleValue
-49.315

@<SCITEGIC>MOL_PROPERTY
Grad RMS
SciTegic.value.DoubleValue
0.000000

@<SCITEGIC>MOL_PROPERTY
U
SciTegic.value.DoubleValue
9.740

@<SCITEGIC>MOL_PROPERTY
W
SciTegic.value.DoubleValue
-59.054

@<SCITEGIC>MOL_PROPERTY
W(PB)
SciTegic.value.DoubleValue
-61.488

@<SCITEGIC>MOL_PROPERTY
W(SA)
SciTegic.value.DoubleValue
2.433

@<SCITEGIC>MOL_PROPERTY
Valence
SciTegic.value.DoubleValue
10.506

@<SCITEGIC>MOL_PROPERTY
Coulomb
SciTegic.value.DoubleValue
-1.761

@<SCITEGIC>MOL_PROPERTY
VdW
SciTegic.value.DoubleValue
0.994

@<SCITEGIC>MOL_PROPERTY
VdW6
SciTegic.value.DoubleValue
-9.209

@<SCITEGIC>MOL_PROPERTY
VdW12
SciTegic.value.DoubleValue
10.203

@<SCITEGIC>MOL_PROPERTY
Bond
SciTegic.value.DoubleValue
0.193

@<SCITEGIC>MOL_PROPERTY
Angle
SciTegic.value.DoubleValue
2.979

@<SCITEGIC>MOL_PROPERTY
Pdih
SciTegic.value.DoubleValue
7.334

@<SCITEGIC>MOL_PROPERTY
Idih
SciTegic.value.DoubleValue
0.001

@<SCITEGIC>MOL_PROPERTY
Tether
SciTegic.value.DoubleValue
0.000

@<TRIPOS>MOLECULE
guest-8_confgen4.mol2 : confsearch ligand conformer 228
          25          24           1
SMALL
USER_CHARGES
 
@<TRIPOS>ATOM
       1    C1      18.711884   20.721041   19.795142 C.2        1 MOL1         0.6168
       2    O1      19.263755   21.798146   19.685701 O.co2      1 MOL1        -0.6703
       3    O2      17.828475   20.338884   19.053329 O.co2      1 MOL1        -0.6703
       4    C2      19.134286   19.808602   20.941027 C.3        1 MOL1        -0.1963
       5    H1      20.203850   19.968971   21.117188 H          1 MOL1         0.0750
       6    H2      19.010238   18.769947   20.612145 H          1 MOL1         0.0750
       7    C3      18.322206   20.060012   22.238163 C.3        1 MOL1        -0.1860
       8    H3      18.491696   21.089291   22.583399 H          1 MOL1         0.0752
       9    H4      17.251329   19.984033   22.003864 H          1 MOL1         0.0752
      10    C4      18.652031   19.065568   23.376780 C.3        1 MOL1        -0.1858
      11    H5      18.472379   18.038148   23.031665 H          1 MOL1         0.0752
      12    H6      17.953023   19.241673   24.205806 H          1 MOL1         0.0752
      13    C5      20.100349   19.192033   23.903636 C.3        1 MOL1        -0.1858
      14    H7      20.806085   18.951145   23.099561 H          1 MOL1         0.0752
      15    H8      20.292931   20.231545   24.201785 H          1 MOL1         0.0752
      16    C6      20.352165   18.254812   25.107550 C.3        1 MOL1        -0.1858
      17    H9      20.205967   17.210318   24.800066 H          1 MOL1         0.0752
      18    H10     19.601340   18.458784   25.883116 H          1 MOL1         0.0752
      19    C7      21.757888   18.418500   25.731221 C.3        1 MOL1        -0.1834
      20    H11     21.905504   19.461145   26.044921 H          1 MOL1         0.0752
      21    H12     21.811263   17.809492   26.644176 H          1 MOL1         0.0752
      22    C8      22.901031   17.994303   24.783663 C.3        1 MOL1        -0.2849
      23    H13     22.961280   18.652854   23.908239 H          1 MOL1         0.0764
      24    H14     23.867236   18.042661   25.302319 H          1 MOL1         0.0764
      25    H15     22.757761   16.964504   24.431391 H          1 MOL1         0.0764
@<TRIPOS>BOND
    1     1     2    1
    2     1     3    2
    3     1     4    1
    4     4     5    1
    5     4     6    1
    6     4     7    1
    7     7     8    1
    8     7     9    1
    9     7    10    1
   10    10    11    1
   11    10    12    1
   12    10    13    1
   13    13    14    1
   14    13    15    1
   15    13    16    1
   16    16    17    1
   17    16    18    1
   18    16    19    1
   19    19    20    1
   20    19    21    1
   21    19    22    1
   22    22    23    1
   23    22    24    1
   24    22    25    1
@<TRIPOS>SUBSTRUCTURE
       1 MOL1            1 RESIDUE      1      MOL     
@<SCITEGIC>MOL_PROPERTY
VConf Rank
SciTegic.value.IntegerValue
228

@<SCITEGIC>MOL_PROPERTY
Conf_Id
SciTegic.value.IntegerValue
4

@<SCITEGIC>MOL_PROPERTY
Delta U+W
SciTegic.value.DoubleValue
0.189

@<SCITEGIC>MOL_PROPERTY
U+W
SciTegic.value.DoubleValue
-51.441

@<SCITEGIC>MOL_PROPERTY
Grad RMS
SciTegic.value.DoubleValue
0.000000

@<SCITEGIC>MOL_PROPERTY
U
SciTegic.value.DoubleValue
7.701

@<SCITEGIC>MOL_PROPERTY
W
SciTegic.value.DoubleValue
-59.141

@<SCITEGIC>MOL_PROPERTY
W(PB)
SciTegic.value.DoubleValue
-61.609

@<SCITEGIC>MOL_PROPERTY
W(SA)
SciTegic.value.DoubleValue
2.467

@<SCITEGIC>MOL_PROPERTY
Valence
SciTegic.value.DoubleValue
8.550

@<SCITEGIC>MOL_PROPERTY
Coulomb
SciTegic.value.DoubleValue
-1.988

@<SCITEGIC>MOL_PROPERTY
VdW
SciTegic.value.DoubleValue
1.139

@<SCITEGIC>MOL_PROPERTY
VdW6
SciTegic.value.DoubleValue
-8.988

@<SCITEGIC>MOL_PROPERTY
VdW12
SciTegic.value.DoubleValue
10.127

@<SCITEGIC>MOL_PROPERTY
Bond
SciTegic.value.DoubleValue
0.191

@<SCITEGIC>MOL_PROPERTY
Angle
SciTegic.value.DoubleValue
2.738

@<SCITEGIC>MOL_PROPERTY
Pdih
SciTegic.value.DoubleValue
5.621

@<SCITEGIC>MOL_PROPERTY
Idih
SciTegic.value.DoubleValue
0.001

@<SCITEGIC>MOL_PROPERTY
Tether
SciTegic.value.DoubleValue
0.000

@<TRIPOS>MOLECULE
guest-8_confgen4.mol2 : confsearch ligand conformer 229
          25          24           1
SMALL
USER_CHARGES
 
@<TRIPOS>ATOM
       1    C1      18.297173   17.097627   20.261166 C.2        1 MOL1         0.6168
       2    O1      17.211012   16.756987   20.686504 O.co2      1 MOL1        -0.6703
       3    O2      18.650502   16.934775   19.109915 O.co2      1 MOL1        -0.6703
       4    C2      19.261121   17.788766   21.218848 C.3        1 MOL1        -0.1963
       5    H1      20.283391   17.531745   20.916754 H          1 MOL1         0.0750
       6    H2      19.100014   17.365113   22.216487 H          1 MOL1         0.0750
       7    C3      19.081214   19.328994   21.242707 C.3        1 MOL1        -0.1860
       8    H3      19.155084   19.708458   20.214117 H          1 MOL1         0.0752
       9    H4      18.068740   19.574711   21.591775 H          1 MOL1         0.0752
      10    C4      20.127603   20.060373   22.116956 C.3        1 MOL1        -0.1858
      11    H5      19.998648   21.142913   21.981359 H          1 MOL1         0.0752
      12    H6      21.138312   19.820542   21.759295 H          1 MOL1         0.0752
      13    C5      20.014616   19.724287   23.622106 C.3        1 MOL1        -0.1858
      14    H7      18.989370   19.918074   23.965442 H          1 MOL1         0.0752
      15    H8      20.209622   18.656094   23.775609 H          1 MOL1         0.0752
      16    C6      21.007603   20.555530   24.467218 C.3        1 MOL1        -0.1858
      17    H9      20.848314   21.622512   24.259806 H          1 MOL1         0.0752
      18    H10     22.036959   20.328716   24.157591 H          1 MOL1         0.0752
      19    C7      20.862770   20.325277   25.989658 C.3        1 MOL1        -0.1834
      20    H11     21.515239   21.034911   26.516850 H          1 MOL1         0.0752
      21    H12     19.835511   20.556298   26.303787 H          1 MOL1         0.0752
      22    C8      21.230467   18.891426   26.429499 C.3        1 MOL1        -0.2849
      23    H13     22.242991   18.626288   26.098432 H          1 MOL1         0.0764
      24    H14     21.199357   18.805754   27.523385 H          1 MOL1         0.0764
      25    H15     20.529430   18.154014   26.019063 H          1 MOL1         0.0764
@<TRIPOS>BOND
    1     1     2    1
    2     1     3    2
    3     1     4    1
    4     4     5    1
    5     4     6    1
    6     4     7    1
    7     7     8    1
    8     7     9    1
    9     7    10    1
   10    10    11    1
   11    10    12    1
   12    10    13    1
   13    13    14    1
   14    13    15    1
   15    13    16    1
   16    16    17    1
   17    16    18    1
   18    16    19    1
   19    19    20    1
   20    19    21    1
   21    19    22    1
   22    22    23    1
   23    22    24    1
   24    22    25    1
@<TRIPOS>SUBSTRUCTURE
       1 MOL1            1 RESIDUE      1      MOL     
@<SCITEGIC>MOL_PROPERTY
VConf Rank
SciTegic.value.IntegerValue
229

@<SCITEGIC>MOL_PROPERTY
Conf_Id
SciTegic.value.IntegerValue
17

@<SCITEGIC>MOL_PROPERTY
Delta U+W
SciTegic.value.DoubleValue
0.219

@<SCITEGIC>MOL_PROPERTY
U+W
SciTegic.value.DoubleValue
-51.411

@<SCITEGIC>MOL_PROPERTY
Grad RMS
SciTegic.value.DoubleValue
0.000000

@<SCITEGIC>MOL_PROPERTY
U
SciTegic.value.DoubleValue
7.701

@<SCITEGIC>MOL_PROPERTY
W
SciTegic.value.DoubleValue
-59.111

@<SCITEGIC>MOL_PROPERTY
W(PB)
SciTegic.value.DoubleValue
-61.599

@<SCITEGIC>MOL_PROPERTY
W(SA)
SciTegic.value.DoubleValue
2.488

@<SCITEGIC>MOL_PROPERTY
Valence
SciTegic.value.DoubleValue
8.550

@<SCITEGIC>MOL_PROPERTY
Coulomb
SciTegic.value.DoubleValue
-1.988

@<SCITEGIC>MOL_PROPERTY
VdW
SciTegic.value.DoubleValue
1.139

@<SCITEGIC>MOL_PROPERTY
VdW6
SciTegic.value.DoubleValue
-8.988

@<SCITEGIC>MOL_PROPERTY
VdW12
SciTegic.value.DoubleValue
10.127

@<SCITEGIC>MOL_PROPERTY
Bond
SciTegic.value.DoubleValue
0.191

@<SCITEGIC>MOL_PROPERTY
Angle
SciTegic.value.DoubleValue
2.738

@<SCITEGIC>MOL_PROPERTY
Pdih
SciTegic.value.DoubleValue
5.621

@<SCITEGIC>MOL_PROPERTY
Idih
SciTegic.value.DoubleValue
0.001

@<SCITEGIC>MOL_PROPERTY
Tether
SciTegic.value.DoubleValue
0.000

@<TRIPOS>MOLECULE
guest-8_confgen4.mol2 : confsearch ligand conformer 230
          25          24           1
SMALL
USER_CHARGES
 
@<TRIPOS>ATOM
       1    C1      18.217277   22.637706   22.882208 C.2        1 MOL1         0.6168
       2    O1      19.018732   23.504351   22.592969 O.co2      1 MOL1        -0.6703
       3    O2      17.554852   22.646854   23.901122 O.co2      1 MOL1        -0.6703
       4    C2      18.015929   21.483474   21.904384 C.3        1 MOL1        -0.1963
       5    H1      18.386519   21.790860   20.919015 H          1 MOL1         0.0750
       6    H2      16.936015   21.324599   21.801782 H          1 MOL1         0.0750
       7    C3      18.694868   20.160495   22.344458 C.3        1 MOL1        -0.1860
       8    H3      18.322812   19.884143   23.339884 H          1 MOL1         0.0752
       9    H4      18.392186   19.358494   21.657840 H          1 MOL1         0.0752
      10    C4      20.238806   20.264241   22.360045 C.3        1 MOL1        -0.1858
      11    H5      20.554947   21.015736   23.096679 H          1 MOL1         0.0752
      12    H6      20.582068   20.627189   21.381635 H          1 MOL1         0.0752
      13    C5      20.943625   18.920083   22.660366 C.3        1 MOL1        -0.1858
      14    H7      20.635813   18.169385   21.919723 H          1 MOL1         0.0752
      15    H8      22.025737   19.058554   22.531064 H          1 MOL1         0.0752
      16    C6      20.672367   18.387608   24.086522 C.3        1 MOL1        -0.1858
      17    H9      19.603107   18.171656   24.208896 H          1 MOL1         0.0752
      18    H10     20.929798   19.161631   24.822397 H          1 MOL1         0.0752
      19    C7      21.482262   17.107310   24.380897 C.3        1 MOL1        -0.1834
      20    H11     21.228350   16.331523   23.645274 H          1 MOL1         0.0752
      21    H12     22.555796   17.313693   24.269744 H          1 MOL1         0.0752
      22    C8      21.207876   16.575492   25.802024 C.3        1 MOL1        -0.2849
      23    H13     20.145611   16.329988   25.931268 H          1 MOL1         0.0764
      24    H14     21.791728   15.665974   25.994249 H          1 MOL1         0.0764
      25    H15     21.482122   17.320891   26.560015 H          1 MOL1         0.0764
@<TRIPOS>BOND
    1     1     2    1
    2     1     3    2
    3     1     4    1
    4     4     5    1
    5     4     6    1
    6     4     7    1
    7     7     8    1
    8     7     9    1
    9     7    10    1
   10    10    11    1
   11    10    12    1
   12    10    13    1
   13    13    14    1
   14    13    15    1
   15    13    16    1
   16    16    17    1
   17    16    18    1
   18    16    19    1
   19    19    20    1
   20    19    21    1
   21    19    22    1
   22    22    23    1
   23    22    24    1
   24    22    25    1
@<TRIPOS>SUBSTRUCTURE
       1 MOL1            1 RESIDUE      1      MOL     
@<SCITEGIC>MOL_PROPERTY
VConf Rank
SciTegic.value.IntegerValue
230

@<SCITEGIC>MOL_PROPERTY
Conf_Id
SciTegic.value.IntegerValue
142

@<SCITEGIC>MOL_PROPERTY
Delta U+W
SciTegic.value.DoubleValue
0.593

@<SCITEGIC>MOL_PROPERTY
U+W
SciTegic.value.DoubleValue
-51.037

@<SCITEGIC>MOL_PROPERTY
Grad RMS
SciTegic.value.DoubleValue
0.000000

@<SCITEGIC>MOL_PROPERTY
U
SciTegic.value.DoubleValue
8.903

@<SCITEGIC>MOL_PROPERTY
W
SciTegic.value.DoubleValue
-59.940

@<SCITEGIC>MOL_PROPERTY
W(PB)
SciTegic.value.DoubleValue
-62.418

@<SCITEGIC>MOL_PROPERTY
W(SA)
SciTegic.value.DoubleValue
2.478

@<SCITEGIC>MOL_PROPERTY
Valence
SciTegic.value.DoubleValue
8.305

@<SCITEGIC>MOL_PROPERTY
Coulomb
SciTegic.value.DoubleValue
-0.223

@<SCITEGIC>MOL_PROPERTY
VdW
SciTegic.value.DoubleValue
0.821

@<SCITEGIC>MOL_PROPERTY
VdW6
SciTegic.value.DoubleValue
-9.236

@<SCITEGIC>MOL_PROPERTY
VdW12
SciTegic.value.DoubleValue
10.057

@<SCITEGIC>MOL_PROPERTY
Bond
SciTegic.value.DoubleValue
0.173

@<SCITEGIC>MOL_PROPERTY
Angle
SciTegic.value.DoubleValue
2.663

@<SCITEGIC>MOL_PROPERTY
Pdih
SciTegic.value.DoubleValue
5.469

@<SCITEGIC>MOL_PROPERTY
Idih
SciTegic.value.DoubleValue
0.001

@<SCITEGIC>MOL_PROPERTY
Tether
SciTegic.value.DoubleValue
0.000

@<TRIPOS>MOLECULE
guest-8_confgen4.mol2 : confsearch ligand conformer 231
          25          24           1
SMALL
USER_CHARGES
 
@<TRIPOS>ATOM
       1    C1      21.016169   16.319635   25.324919 C.2        1 MOL1         0.6168
       2    O1      21.378850   16.035385   26.449740 O.co2      1 MOL1        -0.6703
       3    O2      20.152819   15.711466   24.723410 O.co2      1 MOL1        -0.6703
       4    C2      21.703399   17.486875   24.621923 C.3        1 MOL1        -0.1963
       5    H1      21.472668   17.437550   23.551582 H          1 MOL1         0.0750
       6    H2      22.784676   17.332302   24.713941 H          1 MOL1         0.0750
       7    C3      21.332238   18.880853   25.197418 C.3        1 MOL1        -0.1860
       8    H3      21.639162   18.919344   26.251691 H          1 MOL1         0.0752
       9    H4      21.921311   19.652255   24.684797 H          1 MOL1         0.0752
      10    C4      19.824080   19.230183   25.107572 C.3        1 MOL1        -0.1858
      11    H5      19.666208   20.225934   25.543639 H          1 MOL1         0.0752
      12    H6      19.257164   18.531727   25.738326 H          1 MOL1         0.0752
      13    C5      19.223071   19.206746   23.679789 C.3        1 MOL1        -0.1858
      14    H7      19.271440   18.188580   23.270946 H          1 MOL1         0.0752
      15    H8      18.155159   19.453781   23.750988 H          1 MOL1         0.0752
      16    C6      19.903958   20.196164   22.706079 C.3        1 MOL1        -0.1858
      17    H9      20.956929   19.918380   22.567540 H          1 MOL1         0.0752
      18    H10     19.891748   21.205270   23.139935 H          1 MOL1         0.0752
      19    C7      19.203087   20.216854   21.331383 C.3        1 MOL1        -0.1834
      20    H11     19.211871   19.207638   20.896777 H          1 MOL1         0.0752
      21    H12     18.149207   20.501504   21.456618 H          1 MOL1         0.0752
      22    C8      19.886956   21.199488   20.359558 C.3        1 MOL1        -0.2849
      23    H13     20.935008   20.919389   20.190746 H          1 MOL1         0.0764
      24    H14     19.375938   21.201455   19.388017 H          1 MOL1         0.0764
      25    H15     19.865228   22.223006   20.756160 H          1 MOL1         0.0764
@<TRIPOS>BOND
    1     1     2    1
    2     1     3    2
    3     1     4    1
    4     4     5    1
    5     4     6    1
    6     4     7    1
    7     7     8    1
    8     7     9    1
    9     7    10    1
   10    10    11    1
   11    10    12    1
   12    10    13    1
   13    13    14    1
   14    13    15    1
   15    13    16    1
   16    16    17    1
   17    16    18    1
   18    16    19    1
   19    19    20    1
   20    19    21    1
   21    19    22    1
   22    22    23    1
   23    22    24    1
   24    22    25    1
@<TRIPOS>SUBSTRUCTURE
       1 MOL1            1 RESIDUE      1      MOL     
@<SCITEGIC>MOL_PROPERTY
VConf Rank
SciTegic.value.IntegerValue
231

@<SCITEGIC>MOL_PROPERTY
Conf_Id
SciTegic.value.IntegerValue
135

@<SCITEGIC>MOL_PROPERTY
Delta U+W
SciTegic.value.DoubleValue
1.314

@<SCITEGIC>MOL_PROPERTY
U+W
SciTegic.value.DoubleValue
-50.316

@<SCITEGIC>MOL_PROPERTY
Grad RMS
SciTegic.value.DoubleValue
0.000000

@<SCITEGIC>MOL_PROPERTY
U
SciTegic.value.DoubleValue
9.773

@<SCITEGIC>MOL_PROPERTY
W
SciTegic.value.DoubleValue
-60.088

@<SCITEGIC>MOL_PROPERTY
W(PB)
SciTegic.value.DoubleValue
-62.535

@<SCITEGIC>MOL_PROPERTY
W(SA)
SciTegic.value.DoubleValue
2.447

@<SCITEGIC>MOL_PROPERTY
Valence
SciTegic.value.DoubleValue
8.741

@<SCITEGIC>MOL_PROPERTY
Coulomb
SciTegic.value.DoubleValue
0.479

@<SCITEGIC>MOL_PROPERTY
VdW
SciTegic.value.DoubleValue
0.552

@<SCITEGIC>MOL_PROPERTY
VdW6
SciTegic.value.DoubleValue
-10.627

@<SCITEGIC>MOL_PROPERTY
VdW12
SciTegic.value.DoubleValue
11.179

@<SCITEGIC>MOL_PROPERTY
Bond
SciTegic.value.DoubleValue
0.227

@<SCITEGIC>MOL_PROPERTY
Angle
SciTegic.value.DoubleValue
3.155

@<SCITEGIC>MOL_PROPERTY
Pdih
SciTegic.value.DoubleValue
5.358

@<SCITEGIC>MOL_PROPERTY
Idih
SciTegic.value.DoubleValue
0.001

@<SCITEGIC>MOL_PROPERTY
Tether
SciTegic.value.DoubleValue
0.000

@<TRIPOS>MOLECULE
guest-8_confgen4.mol2 : confsearch ligand conformer 232
          25          24           1
SMALL
USER_CHARGES
 
@<TRIPOS>ATOM
       1    C1      18.540531   22.931553   22.068860 C.2        1 MOL1         0.6168
       2    O1      17.446000   22.858341   21.545999 O.co2      1 MOL1        -0.6703
       3    O2      18.990989   23.953944   22.546956 O.co2      1 MOL1        -0.6703
       4    C2      19.386075   21.665585   22.149850 C.3        1 MOL1        -0.1963
       5    H1      20.441644   21.958445   22.101334 H          1 MOL1         0.0750
       6    H2      19.173159   21.066450   21.257732 H          1 MOL1         0.0750
       7    C3      19.116712   20.846820   23.439383 C.3        1 MOL1        -0.1860
       8    H3      19.246092   21.508266   24.307252 H          1 MOL1         0.0752
       9    H4      18.068551   20.517568   23.454651 H          1 MOL1         0.0752
      10    C4      20.052133   19.625379   23.606723 C.3        1 MOL1        -0.1858
      11    H5      19.889043   19.211764   24.609875 H          1 MOL1         0.0752
      12    H6      21.099610   19.953566   23.565932 H          1 MOL1         0.0752
      13    C5      19.808427   18.513740   22.558234 C.3        1 MOL1        -0.1858
      14    H7      18.775546   18.150350   22.645975 H          1 MOL1         0.0752
      15    H8      19.902852   18.933660   21.549162 H          1 MOL1         0.0752
      16    C6      20.785751   17.315787   22.664136 C.3        1 MOL1        -0.1858
      17    H9      21.815527   17.653624   22.484318 H          1 MOL1         0.0752
      18    H10     20.551364   16.625210   21.842528 H          1 MOL1         0.0752
      19    C7      20.704474   16.526257   23.994639 C.3        1 MOL1        -0.1834
      20    H11     19.703544   16.625771   24.436761 H          1 MOL1         0.0752
      21    H12     20.837140   15.457274   23.777900 H          1 MOL1         0.0752
      22    C8      21.785848   16.944151   25.016040 C.3        1 MOL1        -0.2849
      23    H13     21.705746   18.003586   25.284927 H          1 MOL1         0.0764
      24    H14     21.691285   16.355846   25.937866 H          1 MOL1         0.0764
      25    H15     22.791672   16.773441   24.610753 H          1 MOL1         0.0764
@<TRIPOS>BOND
    1     1     2    1
    2     1     3    2
    3     1     4    1
    4     4     5    1
    5     4     6    1
    6     4     7    1
    7     7     8    1
    8     7     9    1
    9     7    10    1
   10    10    11    1
   11    10    12    1
   12    10    13    1
   13    13    14    1
   14    13    15    1
   15    13    16    1
   16    16    17    1
   17    16    18    1
   18    16    19    1
   19    19    20    1
   20    19    21    1
   21    19    22    1
   22    22    23    1
   23    22    24    1
   24    22    25    1
@<TRIPOS>SUBSTRUCTURE
       1 MOL1            1 RESIDUE      1      MOL     
@<SCITEGIC>MOL_PROPERTY
VConf Rank
SciTegic.value.IntegerValue
232

@<SCITEGIC>MOL_PROPERTY
Conf_Id
SciTegic.value.IntegerValue
19

@<SCITEGIC>MOL_PROPERTY
Delta U+W
SciTegic.value.DoubleValue
3.222

@<SCITEGIC>MOL_PROPERTY
U+W
SciTegic.value.DoubleValue
-48.407

@<SCITEGIC>MOL_PROPERTY
Grad RMS
SciTegic.value.DoubleValue
0.000000

@<SCITEGIC>MOL_PROPERTY
U
SciTegic.value.DoubleValue
10.617

@<SCITEGIC>MOL_PROPERTY
W
SciTegic.value.DoubleValue
-59.025

@<SCITEGIC>MOL_PROPERTY
W(PB)
SciTegic.value.DoubleValue
-61.462

@<SCITEGIC>MOL_PROPERTY
W(SA)
SciTegic.value.DoubleValue
2.437

@<SCITEGIC>MOL_PROPERTY
Valence
SciTegic.value.DoubleValue
11.188

@<SCITEGIC>MOL_PROPERTY
Coulomb
SciTegic.value.DoubleValue
-1.778

@<SCITEGIC>MOL_PROPERTY
VdW
SciTegic.value.DoubleValue
1.208

@<SCITEGIC>MOL_PROPERTY
VdW6
SciTegic.value.DoubleValue
-9.786

@<SCITEGIC>MOL_PROPERTY
VdW12
SciTegic.value.DoubleValue
10.993

@<SCITEGIC>MOL_PROPERTY
Bond
SciTegic.value.DoubleValue
0.241

@<SCITEGIC>MOL_PROPERTY
Angle
SciTegic.value.DoubleValue
3.294

@<SCITEGIC>MOL_PROPERTY
Pdih
SciTegic.value.DoubleValue
7.653

@<SCITEGIC>MOL_PROPERTY
Idih
SciTegic.value.DoubleValue
0.001

@<SCITEGIC>MOL_PROPERTY
Tether
SciTegic.value.DoubleValue
0.000

@<TRIPOS>MOLECULE
guest-8_confgen4.mol2 : confsearch ligand conformer 233
          25          24           1
SMALL
USER_CHARGES
 
@<TRIPOS>ATOM
       1    C1      19.537586   16.909929   19.763572 C.2        1 MOL1         0.6168
       2    O1      18.940157   17.501216   18.885963 O.co2      1 MOL1        -0.6703
       3    O2      19.640953   15.699997   19.809943 O.co2      1 MOL1        -0.6703
       4    C2      20.172749   17.729950   20.880854 C.3        1 MOL1        -0.1963
       5    H1      20.504825   18.679927   20.447909 H          1 MOL1         0.0750
       6    H2      21.067756   17.198476   21.225594 H          1 MOL1         0.0750
       7    C3      19.205405   17.975027   22.068293 C.3        1 MOL1        -0.1860
       8    H3      18.335243   18.549752   21.722182 H          1 MOL1         0.0752
       9    H4      18.819306   17.005020   22.411018 H          1 MOL1         0.0752
      10    C4      19.865114   18.695026   23.268843 C.3        1 MOL1        -0.1858
      11    H5      20.749345   18.132056   23.597142 H          1 MOL1         0.0752
      12    H6      19.152593   18.679678   24.103149 H          1 MOL1         0.0752
      13    C5      20.257290   20.161533   22.968810 C.3        1 MOL1        -0.1858
      14    H7      20.917056   20.193342   22.092925 H          1 MOL1         0.0752
      15    H8      19.357793   20.731173   22.698602 H          1 MOL1         0.0752
      16    C6      20.986723   20.875015   24.135148 C.3        1 MOL1        -0.1858
      17    H9      21.259976   21.880636   23.787396 H          1 MOL1         0.0752
      18    H10     21.936301   20.366783   24.351731 H          1 MOL1         0.0752
      19    C7      20.150221   21.024364   25.430587 C.3        1 MOL1        -0.1834
      20    H11     20.373869   22.000341   25.883084 H          1 MOL1         0.0752
      21    H12     19.077609   21.037199   25.192737 H          1 MOL1         0.0752
      22    C8      20.453930   19.931026   26.479223 C.3        1 MOL1        -0.2849
      23    H13     21.508791   19.962960   26.781432 H          1 MOL1         0.0764
      24    H14     19.842627   20.080900   27.378474 H          1 MOL1         0.0764
      25    H15     20.243429   18.926646   26.094479 H          1 MOL1         0.0764
@<TRIPOS>BOND
    1     1     2    1
    2     1     3    2
    3     1     4    1
    4     4     5    1
    5     4     6    1
    6     4     7    1
    7     7     8    1
    8     7     9    1
    9     7    10    1
   10    10    11    1
   11    10    12    1
   12    10    13    1
   13    13    14    1
   14    13    15    1
   15    13    16    1
   16    16    17    1
   17    16    18    1
   18    16    19    1
   19    19    20    1
   20    19    21    1
   21    19    22    1
   22    22    23    1
   23    22    24    1
   24    22    25    1
@<TRIPOS>SUBSTRUCTURE
       1 MOL1            1 RESIDUE      1      MOL     
@<SCITEGIC>MOL_PROPERTY
VConf Rank
SciTegic.value.IntegerValue
233

@<SCITEGIC>MOL_PROPERTY
Conf_Id
SciTegic.value.IntegerValue
20

@<SCITEGIC>MOL_PROPERTY
Delta U+W
SciTegic.value.DoubleValue
3.224

@<SCITEGIC>MOL_PROPERTY
U+W
SciTegic.value.DoubleValue
-48.406

@<SCITEGIC>MOL_PROPERTY
Grad RMS
SciTegic.value.DoubleValue
0.000000

@<SCITEGIC>MOL_PROPERTY
U
SciTegic.value.DoubleValue
10.617

@<SCITEGIC>MOL_PROPERTY
W
SciTegic.value.DoubleValue
-59.023

@<SCITEGIC>MOL_PROPERTY
W(PB)
SciTegic.value.DoubleValue
-61.467

@<SCITEGIC>MOL_PROPERTY
W(SA)
SciTegic.value.DoubleValue
2.444

@<SCITEGIC>MOL_PROPERTY
Valence
SciTegic.value.DoubleValue
11.188

@<SCITEGIC>MOL_PROPERTY
Coulomb
SciTegic.value.DoubleValue
-1.778

@<SCITEGIC>MOL_PROPERTY
VdW
SciTegic.value.DoubleValue
1.208

@<SCITEGIC>MOL_PROPERTY
VdW6
SciTegic.value.DoubleValue
-9.786

@<SCITEGIC>MOL_PROPERTY
VdW12
SciTegic.value.DoubleValue
10.993

@<SCITEGIC>MOL_PROPERTY
Bond
SciTegic.value.DoubleValue
0.241

@<SCITEGIC>MOL_PROPERTY
Angle
SciTegic.value.DoubleValue
3.294

@<SCITEGIC>MOL_PROPERTY
Pdih
SciTegic.value.DoubleValue
7.653

@<SCITEGIC>MOL_PROPERTY
Idih
SciTegic.value.DoubleValue
0.001

@<SCITEGIC>MOL_PROPERTY
Tether
SciTegic.value.DoubleValue
0.000

@<TRIPOS>MOLECULE
guest-8_confgen4.mol2 : confsearch ligand conformer 234
          25          24           1
SMALL
USER_CHARGES
 
@<TRIPOS>ATOM
       1    C1      17.692693   16.948748   23.324524 C.2        1 MOL1         0.6168
       2    O1      16.771724   17.277363   24.046654 O.co2      1 MOL1        -0.6703
       3    O2      18.516144   16.108032   23.628408 O.co2      1 MOL1        -0.6703
       4    C2      17.783853   17.576244   21.934802 C.3        1 MOL1        -0.1963
       5    H1      16.880714   17.265746   21.396845 H          1 MOL1         0.0750
       6    H2      18.634411   17.136393   21.400133 H          1 MOL1         0.0750
       7    C3      17.877686   19.127954   21.912416 C.3        1 MOL1        -0.1860
       8    H3      17.571271   19.471791   20.915262 H          1 MOL1         0.0752
       9    H4      17.151131   19.557306   22.616241 H          1 MOL1         0.0752
      10    C4      19.290239   19.697514   22.194161 C.3        1 MOL1        -0.1858
      11    H5      19.267108   20.779133   22.002984 H          1 MOL1         0.0752
      12    H6      20.009148   19.273335   21.479965 H          1 MOL1         0.0752
      13    C5      19.789648   19.459013   23.637191 C.3        1 MOL1        -0.1858
      14    H7      19.023328   19.788857   24.352036 H          1 MOL1         0.0752
      15    H8      19.945478   18.385917   23.805076 H          1 MOL1         0.0752
      16    C6      21.112261   20.206163   23.914737 C.3        1 MOL1        -0.1858
      17    H9      20.966154   21.283664   23.757860 H          1 MOL1         0.0752
      18    H10     21.875871   19.878611   23.195959 H          1 MOL1         0.0752
      19    C7      21.617729   19.959471   25.351755 C.3        1 MOL1        -0.1834
      20    H11     20.856369   20.286849   26.073290 H          1 MOL1         0.0752
      21    H12     21.766684   18.882546   25.511912 H          1 MOL1         0.0752
      22    C8      22.938679   20.706232   25.625812 C.3        1 MOL1        -0.2849
      23    H13     22.810078   21.789675   25.503405 H          1 MOL1         0.0764
      24    H14     23.283082   20.519530   26.651284 H          1 MOL1         0.0764
      25    H15     23.727328   20.374637   24.937734 H          1 MOL1         0.0764
@<TRIPOS>BOND
    1     1     2    1
    2     1     3    2
    3     1     4    1
    4     4     5    1
    5     4     6    1
    6     4     7    1
    7     7     8    1
    8     7     9    1
    9     7    10    1
   10    10    11    1
   11    10    12    1
   12    10    13    1
   13    13    14    1
   14    13    15    1
   15    13    16    1
   16    16    17    1
   17    16    18    1
   18    16    19    1
   19    19    20    1
   20    19    21    1
   21    19    22    1
   22    22    23    1
   23    22    24    1
   24    22    25    1
@<TRIPOS>SUBSTRUCTURE
       1 MOL1            1 RESIDUE      1      MOL     
@<SCITEGIC>MOL_PROPERTY
VConf Rank
SciTegic.value.IntegerValue
234

@<SCITEGIC>MOL_PROPERTY
Conf_Id
SciTegic.value.IntegerValue
24

@<SCITEGIC>MOL_PROPERTY
Delta U+W
SciTegic.value.DoubleValue
1.784

@<SCITEGIC>MOL_PROPERTY
U+W
SciTegic.value.DoubleValue
-49.846

@<SCITEGIC>MOL_PROPERTY
Grad RMS
SciTegic.value.DoubleValue
0.000000

@<SCITEGIC>MOL_PROPERTY
U
SciTegic.value.DoubleValue
10.904

@<SCITEGIC>MOL_PROPERTY
W
SciTegic.value.DoubleValue
-60.749

@<SCITEGIC>MOL_PROPERTY
W(PB)
SciTegic.value.DoubleValue
-63.220

@<SCITEGIC>MOL_PROPERTY
W(SA)
SciTegic.value.DoubleValue
2.471

@<SCITEGIC>MOL_PROPERTY
Valence
SciTegic.value.DoubleValue
9.445

@<SCITEGIC>MOL_PROPERTY
Coulomb
SciTegic.value.DoubleValue
0.780

@<SCITEGIC>MOL_PROPERTY
VdW
SciTegic.value.DoubleValue
0.679

@<SCITEGIC>MOL_PROPERTY
VdW6
SciTegic.value.DoubleValue
-10.008

@<SCITEGIC>MOL_PROPERTY
VdW12
SciTegic.value.DoubleValue
10.687

@<SCITEGIC>MOL_PROPERTY
Bond
SciTegic.value.DoubleValue
0.201

@<SCITEGIC>MOL_PROPERTY
Angle
SciTegic.value.DoubleValue
3.198

@<SCITEGIC>MOL_PROPERTY
Pdih
SciTegic.value.DoubleValue
6.039

@<SCITEGIC>MOL_PROPERTY
Idih
SciTegic.value.DoubleValue
0.006

@<SCITEGIC>MOL_PROPERTY
Tether
SciTegic.value.DoubleValue
0.000

@<TRIPOS>MOLECULE
guest-8_confgen4.mol2 : confsearch ligand conformer 235
          25          24           1
SMALL
USER_CHARGES
 
@<TRIPOS>ATOM
       1    C1      17.545634   19.258926   25.418107 C.2        1 MOL1         0.6168
       2    O1      17.892908   18.946979   26.540485 O.co2      1 MOL1        -0.6703
       3    O2      17.382190   20.409490   25.062149 O.co2      1 MOL1        -0.6703
       4    C2      17.233174   18.145469   24.420123 C.3        1 MOL1        -0.1963
       5    H1      16.888286   18.594858   23.481034 H          1 MOL1         0.0750
       6    H2      16.382700   17.591126   24.833483 H          1 MOL1         0.0750
       7    C3      18.398691   17.153602   24.146496 C.3        1 MOL1        -0.1860
       8    H3      18.876579   16.866825   25.093585 H          1 MOL1         0.0752
       9    H4      17.968844   16.230876   23.733899 H          1 MOL1         0.0752
      10    C4      19.465675   17.664847   23.146867 C.3        1 MOL1        -0.1858
      11    H5      18.983013   17.938323   22.198667 H          1 MOL1         0.0752
      12    H6      20.146079   16.833173   22.918060 H          1 MOL1         0.0752
      13    C5      20.297949   18.857938   23.668862 C.3        1 MOL1        -0.1858
      14    H7      19.655638   19.740777   23.778584 H          1 MOL1         0.0752
      15    H8      20.695008   18.622648   24.665872 H          1 MOL1         0.0752
      16    C6      21.463078   19.202155   22.715679 C.3        1 MOL1        -0.1858
      17    H9      21.064512   19.432361   21.718092 H          1 MOL1         0.0752
      18    H10     22.118370   18.327386   22.604602 H          1 MOL1         0.0752
      19    C7      22.287842   20.400654   23.230207 C.3        1 MOL1        -0.1834
      20    H11     21.635868   21.278311   23.340898 H          1 MOL1         0.0752
      21    H12     22.688563   20.173259   24.227789 H          1 MOL1         0.0752
      22    C8      23.450181   20.742301   22.276314 C.3        1 MOL1        -0.2849
      23    H13     23.075100   21.004663   21.278389 H          1 MOL1         0.0764
      24    H14     24.025266   21.596140   22.657497 H          1 MOL1         0.0764
      25    H15     24.135863   19.891214   22.172078 H          1 MOL1         0.0764
@<TRIPOS>BOND
    1     1     2    1
    2     1     3    2
    3     1     4    1
    4     4     5    1
    5     4     6    1
    6     4     7    1
    7     7     8    1
    8     7     9    1
    9     7    10    1
   10    10    11    1
   11    10    12    1
   12    10    13    1
   13    13    14    1
   14    13    15    1
   15    13    16    1
   16    16    17    1
   17    16    18    1
   18    16    19    1
   19    19    20    1
   20    19    21    1
   21    19    22    1
   22    22    23    1
   23    22    24    1
   24    22    25    1
@<TRIPOS>SUBSTRUCTURE
       1 MOL1            1 RESIDUE      1      MOL     
@<SCITEGIC>MOL_PROPERTY
VConf Rank
SciTegic.value.IntegerValue
235

@<SCITEGIC>MOL_PROPERTY
Conf_Id
SciTegic.value.IntegerValue
9

@<SCITEGIC>MOL_PROPERTY
Delta U+W
SciTegic.value.DoubleValue
1.764

@<SCITEGIC>MOL_PROPERTY
U+W
SciTegic.value.DoubleValue
-49.865

@<SCITEGIC>MOL_PROPERTY
Grad RMS
SciTegic.value.DoubleValue
0.000000

@<SCITEGIC>MOL_PROPERTY
U
SciTegic.value.DoubleValue
10.902

@<SCITEGIC>MOL_PROPERTY
W
SciTegic.value.DoubleValue
-60.768

@<SCITEGIC>MOL_PROPERTY
W(PB)
SciTegic.value.DoubleValue
-63.223

@<SCITEGIC>MOL_PROPERTY
W(SA)
SciTegic.value.DoubleValue
2.456

@<SCITEGIC>MOL_PROPERTY
Valence
SciTegic.value.DoubleValue
9.445

@<SCITEGIC>MOL_PROPERTY
Coulomb
SciTegic.value.DoubleValue
0.778

@<SCITEGIC>MOL_PROPERTY
VdW
SciTegic.value.DoubleValue
0.679

@<SCITEGIC>MOL_PROPERTY
VdW6
SciTegic.value.DoubleValue
-10.007

@<SCITEGIC>MOL_PROPERTY
VdW12
SciTegic.value.DoubleValue
10.687

@<SCITEGIC>MOL_PROPERTY
Bond
SciTegic.value.DoubleValue
0.201

@<SCITEGIC>MOL_PROPERTY
Angle
SciTegic.value.DoubleValue
3.198

@<SCITEGIC>MOL_PROPERTY
Pdih
SciTegic.value.DoubleValue
6.040

@<SCITEGIC>MOL_PROPERTY
Idih
SciTegic.value.DoubleValue
0.006

@<SCITEGIC>MOL_PROPERTY
Tether
SciTegic.value.DoubleValue
0.000

@<TRIPOS>MOLECULE
guest-8_confgen4.mol2 : confsearch ligand conformer 236
          25          24           1
SMALL
USER_CHARGES
 
@<TRIPOS>ATOM
       1    C1      16.825203   20.678122   24.560781 C.2        1 MOL1         0.6168
       2    O1      17.398539   21.690443   24.911634 O.co2      1 MOL1        -0.6703
       3    O2      15.620541   20.600789   24.420582 O.co2      1 MOL1        -0.6703
       4    C2      17.665221   19.442155   24.259995 C.3        1 MOL1        -0.1963
       5    H1      17.074996   18.558515   24.530314 H          1 MOL1         0.0750
       6    H2      18.535363   19.459531   24.923331 H          1 MOL1         0.0750
       7    C3      18.096979   19.358344   22.771974 C.3        1 MOL1        -0.1860
       8    H3      17.186524   19.336894   22.157117 H          1 MOL1         0.0752
       9    H4      18.638922   20.269594   22.483295 H          1 MOL1         0.0752
      10    C4      18.945278   18.103214   22.444364 C.3        1 MOL1        -0.1858
      11    H5      18.685434   17.771083   21.429924 H          1 MOL1         0.0752
      12    H6      18.670725   17.272986   23.109331 H          1 MOL1         0.0752
      13    C5      20.477450   18.331044   22.480441 C.3        1 MOL1        -0.1858
      14    H7      20.971363   17.406290   22.152675 H          1 MOL1         0.0752
      15    H8      20.742354   19.100887   21.743831 H          1 MOL1         0.0752
      16    C6      21.028050   18.728230   23.870497 C.3        1 MOL1        -0.1858
      17    H9      20.629942   18.037218   24.625751 H          1 MOL1         0.0752
      18    H10     20.672413   19.731929   24.137626 H          1 MOL1         0.0752
      19    C7      22.572480   18.704911   23.946158 C.3        1 MOL1        -0.1834
      20    H11     22.877980   18.900238   24.983309 H          1 MOL1         0.0752
      21    H12     22.941251   17.700034   23.698242 H          1 MOL1         0.0752
      22    C8      23.243501   19.746278   23.024413 C.3        1 MOL1        -0.2849
      23    H13     22.871011   20.756783   23.237191 H          1 MOL1         0.0764
      24    H14     24.330867   19.748038   23.174350 H          1 MOL1         0.0764
      25    H15     23.053965   19.525058   21.966581 H          1 MOL1         0.0764
@<TRIPOS>BOND
    1     1     2    1
    2     1     3    2
    3     1     4    1
    4     4     5    1
    5     4     6    1
    6     4     7    1
    7     7     8    1
    8     7     9    1
    9     7    10    1
   10    10    11    1
   11    10    12    1
   12    10    13    1
   13    13    14    1
   14    13    15    1
   15    13    16    1
   16    16    17    1
   17    16    18    1
   18    16    19    1
   19    19    20    1
   20    19    21    1
   21    19    22    1
   22    22    23    1
   23    22    24    1
   24    22    25    1
@<TRIPOS>SUBSTRUCTURE
       1 MOL1            1 RESIDUE      1      MOL     
@<SCITEGIC>MOL_PROPERTY
VConf Rank
SciTegic.value.IntegerValue
236

@<SCITEGIC>MOL_PROPERTY
Conf_Id
SciTegic.value.IntegerValue
89

@<SCITEGIC>MOL_PROPERTY
Delta U+W
SciTegic.value.DoubleValue
2.903

@<SCITEGIC>MOL_PROPERTY
U+W
SciTegic.value.DoubleValue
-48.726

@<SCITEGIC>MOL_PROPERTY
Grad RMS
SciTegic.value.DoubleValue
0.000000

@<SCITEGIC>MOL_PROPERTY
U
SciTegic.value.DoubleValue
10.996

@<SCITEGIC>MOL_PROPERTY
W
SciTegic.value.DoubleValue
-59.723

@<SCITEGIC>MOL_PROPERTY
W(PB)
SciTegic.value.DoubleValue
-62.151

@<SCITEGIC>MOL_PROPERTY
W(SA)
SciTegic.value.DoubleValue
2.428

@<SCITEGIC>MOL_PROPERTY
Valence
SciTegic.value.DoubleValue
10.985

@<SCITEGIC>MOL_PROPERTY
Coulomb
SciTegic.value.DoubleValue
-0.995

@<SCITEGIC>MOL_PROPERTY
VdW
SciTegic.value.DoubleValue
1.006

@<SCITEGIC>MOL_PROPERTY
VdW6
SciTegic.value.DoubleValue
-10.062

@<SCITEGIC>MOL_PROPERTY
VdW12
SciTegic.value.DoubleValue
11.069

@<SCITEGIC>MOL_PROPERTY
Bond
SciTegic.value.DoubleValue
0.238

@<SCITEGIC>MOL_PROPERTY
Angle
SciTegic.value.DoubleValue
3.202

@<SCITEGIC>MOL_PROPERTY
Pdih
SciTegic.value.DoubleValue
7.544

@<SCITEGIC>MOL_PROPERTY
Idih
SciTegic.value.DoubleValue
0.001

@<SCITEGIC>MOL_PROPERTY
Tether
SciTegic.value.DoubleValue
0.000

@<TRIPOS>MOLECULE
guest-8_confgen4.mol2 : confsearch ligand conformer 237
          25          24           1
SMALL
USER_CHARGES
 
@<TRIPOS>ATOM
       1    C1      19.789479   21.846779   25.482005 C.2        1 MOL1         0.6168
       2    O1      19.574808   21.298825   26.545454 O.co2      1 MOL1        -0.6703
       3    O2      20.782101   22.512002   25.258872 O.co2      1 MOL1        -0.6703
       4    C2      18.723889   21.745918   24.392238 C.3        1 MOL1        -0.1963
       5    H1      18.351097   22.764163   24.231986 H          1 MOL1         0.0750
       6    H2      17.879027   21.158955   24.772308 H          1 MOL1         0.0750
       7    C3      19.214850   21.168059   23.034808 C.3        1 MOL1        -0.1860
       8    H3      18.513156   21.494553   22.255404 H          1 MOL1         0.0752
       9    H4      20.186286   21.607652   22.769016 H          1 MOL1         0.0752
      10    C4      19.297122   19.622223   22.975186 C.3        1 MOL1        -0.1858
      11    H5      19.485267   19.339737   21.931959 H          1 MOL1         0.0752
      12    H6      18.323056   19.189963   23.241460 H          1 MOL1         0.0752
      13    C5      20.399450   19.014785   23.876449 C.3        1 MOL1        -0.1858
      14    H7      21.365785   19.488297   23.655651 H          1 MOL1         0.0752
      15    H8      20.173715   19.241186   24.925555 H          1 MOL1         0.0752
      16    C6      20.529741   17.478335   23.743323 C.3        1 MOL1        -0.1858
      17    H9      19.555052   17.008173   23.932413 H          1 MOL1         0.0752
      18    H10     21.205079   17.119368   24.531970 H          1 MOL1         0.0752
      19    C7      21.076195   17.017889   22.372624 C.3        1 MOL1        -0.1834
      20    H11     20.376753   17.292471   21.572551 H          1 MOL1         0.0752
      21    H12     22.024030   17.531425   22.160308 H          1 MOL1         0.0752
      22    C8      21.301644   15.492752   22.337657 C.3        1 MOL1        -0.2849
      23    H13     20.363183   14.953122   22.520576 H          1 MOL1         0.0764
      24    H14     21.686500   15.181023   21.357983 H          1 MOL1         0.0764
      25    H15     22.028633   15.184936   23.100598 H          1 MOL1         0.0764
@<TRIPOS>BOND
    1     1     2    1
    2     1     3    2
    3     1     4    1
    4     4     5    1
    5     4     6    1
    6     4     7    1
    7     7     8    1
    8     7     9    1
    9     7    10    1
   10    10    11    1
   11    10    12    1
   12    10    13    1
   13    13    14    1
   14    13    15    1
   15    13    16    1
   16    16    17    1
   17    16    18    1
   18    16    19    1
   19    19    20    1
   20    19    21    1
   21    19    22    1
   22    22    23    1
   23    22    24    1
   24    22    25    1
@<TRIPOS>SUBSTRUCTURE
       1 MOL1            1 RESIDUE      1      MOL     
@<SCITEGIC>MOL_PROPERTY
VConf Rank
SciTegic.value.IntegerValue
237

@<SCITEGIC>MOL_PROPERTY
Conf_Id
SciTegic.value.IntegerValue
114

@<SCITEGIC>MOL_PROPERTY
Delta U+W
SciTegic.value.DoubleValue
2.758

@<SCITEGIC>MOL_PROPERTY
U+W
SciTegic.value.DoubleValue
-48.871

@<SCITEGIC>MOL_PROPERTY
Grad RMS
SciTegic.value.DoubleValue
0.000000

@<SCITEGIC>MOL_PROPERTY
U
SciTegic.value.DoubleValue
11.422

@<SCITEGIC>MOL_PROPERTY
W
SciTegic.value.DoubleValue
-60.293

@<SCITEGIC>MOL_PROPERTY
W(PB)
SciTegic.value.DoubleValue
-62.719

@<SCITEGIC>MOL_PROPERTY
W(SA)
SciTegic.value.DoubleValue
2.425

@<SCITEGIC>MOL_PROPERTY
Valence
SciTegic.value.DoubleValue
10.135

@<SCITEGIC>MOL_PROPERTY
Coulomb
SciTegic.value.DoubleValue
0.369

@<SCITEGIC>MOL_PROPERTY
VdW
SciTegic.value.DoubleValue
0.918

@<SCITEGIC>MOL_PROPERTY
VdW6
SciTegic.value.DoubleValue
-10.482

@<SCITEGIC>MOL_PROPERTY
VdW12
SciTegic.value.DoubleValue
11.400

@<SCITEGIC>MOL_PROPERTY
Bond
SciTegic.value.DoubleValue
0.245

@<SCITEGIC>MOL_PROPERTY
Angle
SciTegic.value.DoubleValue
3.539

@<SCITEGIC>MOL_PROPERTY
Pdih
SciTegic.value.DoubleValue
6.346

@<SCITEGIC>MOL_PROPERTY
Idih
SciTegic.value.DoubleValue
0.006

@<SCITEGIC>MOL_PROPERTY
Tether
SciTegic.value.DoubleValue
0.000

@<TRIPOS>MOLECULE
guest-8_confgen4.mol2 : confsearch ligand conformer 238
          25          24           1
SMALL
USER_CHARGES
 
@<TRIPOS>ATOM
       1    C1      21.662479   22.621633   23.421076 C.2        1 MOL1         0.6168
       2    O1      21.332017   23.102156   24.487357 O.co2      1 MOL1        -0.6703
       3    O2      22.819305   22.453395   23.088590 O.co2      1 MOL1        -0.6703
       4    C2      20.566579   22.226054   22.435444 C.3        1 MOL1        -0.1963
       5    H1      20.862854   22.598896   21.447929 H          1 MOL1         0.0750
       6    H2      19.643518   22.751260   22.709108 H          1 MOL1         0.0750
       7    C3      20.311991   20.698277   22.357586 C.3        1 MOL1        -0.1860
       8    H3      19.608316   20.495246   21.539130 H          1 MOL1         0.0752
       9    H4      21.252989   20.194646   22.100279 H          1 MOL1         0.0752
      10    C4      19.740287   20.125835   23.676949 C.3        1 MOL1        -0.1858
      11    H5      18.853059   20.707643   23.961849 H          1 MOL1         0.0752
      12    H6      20.469277   20.257383   24.488473 H          1 MOL1         0.0752
      13    C5      19.338086   18.634557   23.582028 C.3        1 MOL1        -0.1858
      14    H7      18.814247   18.365595   24.508007 H          1 MOL1         0.0752
      15    H8      18.616306   18.499064   22.765206 H          1 MOL1         0.0752
      16    C6      20.542955   17.682988   23.378680 C.3        1 MOL1        -0.1858
      17    H9      21.266106   17.821523   24.193874 H          1 MOL1         0.0752
      18    H10     21.065203   17.947897   22.450702 H          1 MOL1         0.0752
      19    C7      20.140611   16.192018   23.291694 C.3        1 MOL1        -0.1834
      20    H11     19.408352   16.051631   22.484616 H          1 MOL1         0.0752
      21    H12     21.026299   15.605049   23.011938 H          1 MOL1         0.0752
      22    C8      19.572603   15.630672   24.613498 C.3        1 MOL1        -0.2849
      23    H13     19.394504   14.551048   24.526342 H          1 MOL1         0.0764
      24    H14     20.274245   15.791306   25.442358 H          1 MOL1         0.0764
      25    H15     18.617625   16.103748   24.873544 H          1 MOL1         0.0764
@<TRIPOS>BOND
    1     1     2    1
    2     1     3    2
    3     1     4    1
    4     4     5    1
    5     4     6    1
    6     4     7    1
    7     7     8    1
    8     7     9    1
    9     7    10    1
   10    10    11    1
   11    10    12    1
   12    10    13    1
   13    13    14    1
   14    13    15    1
   15    13    16    1
   16    16    17    1
   17    16    18    1
   18    16    19    1
   19    19    20    1
   20    19    21    1
   21    19    22    1
   22    22    23    1
   23    22    24    1
   24    22    25    1
@<TRIPOS>SUBSTRUCTURE
       1 MOL1            1 RESIDUE      1      MOL     
@<SCITEGIC>MOL_PROPERTY
VConf Rank
SciTegic.value.IntegerValue
238

@<SCITEGIC>MOL_PROPERTY
Conf_Id
SciTegic.value.IntegerValue
87

@<SCITEGIC>MOL_PROPERTY
Delta U+W
SciTegic.value.DoubleValue
1.453

@<SCITEGIC>MOL_PROPERTY
U+W
SciTegic.value.DoubleValue
-50.176

@<SCITEGIC>MOL_PROPERTY
Grad RMS
SciTegic.value.DoubleValue
0.000000

@<SCITEGIC>MOL_PROPERTY
U
SciTegic.value.DoubleValue
9.763

@<SCITEGIC>MOL_PROPERTY
W
SciTegic.value.DoubleValue
-59.940

@<SCITEGIC>MOL_PROPERTY
W(PB)
SciTegic.value.DoubleValue
-62.392

@<SCITEGIC>MOL_PROPERTY
W(SA)
SciTegic.value.DoubleValue
2.452

@<SCITEGIC>MOL_PROPERTY
Valence
SciTegic.value.DoubleValue
8.883

@<SCITEGIC>MOL_PROPERTY
Coulomb
SciTegic.value.DoubleValue
-0.122

@<SCITEGIC>MOL_PROPERTY
VdW
SciTegic.value.DoubleValue
1.003

@<SCITEGIC>MOL_PROPERTY
VdW6
SciTegic.value.DoubleValue
-9.782

@<SCITEGIC>MOL_PROPERTY
VdW12
SciTegic.value.DoubleValue
10.785

@<SCITEGIC>MOL_PROPERTY
Bond
SciTegic.value.DoubleValue
0.212

@<SCITEGIC>MOL_PROPERTY
Angle
SciTegic.value.DoubleValue
2.940

@<SCITEGIC>MOL_PROPERTY
Pdih
SciTegic.value.DoubleValue
5.730

@<SCITEGIC>MOL_PROPERTY
Idih
SciTegic.value.DoubleValue
0.001

@<SCITEGIC>MOL_PROPERTY
Tether
SciTegic.value.DoubleValue
0.000

@<TRIPOS>MOLECULE
guest-8_confgen4.mol2 : confsearch ligand conformer 239
          25          24           1
SMALL
USER_CHARGES
 
@<TRIPOS>ATOM
       1    C1      23.761281   18.670684   24.697910 C.2        1 MOL1         0.6168
       2    O1      24.288023   18.044445   23.799549 O.co2      1 MOL1        -0.6703
       3    O2      24.350029   19.474727   25.393348 O.co2      1 MOL1        -0.6703
       4    C2      22.275039   18.448898   24.954931 C.3        1 MOL1        -0.1963
       5    H1      22.092029   18.578188   26.028371 H          1 MOL1         0.0750
       6    H2      22.038384   17.406875   24.708438 H          1 MOL1         0.0750
       7    C3      21.373995   19.408093   24.138835 C.3        1 MOL1        -0.1860
       8    H3      21.627954   20.447202   24.389632 H          1 MOL1         0.0752
       9    H4      21.589227   19.274391   23.070386 H          1 MOL1         0.0752
      10    C4      19.873082   19.157261   24.412646 C.3        1 MOL1        -0.1858
      11    H5      19.690567   19.226747   25.493610 H          1 MOL1         0.0752
      12    H6      19.609144   18.131170   24.124757 H          1 MOL1         0.0752
      13    C5      18.938809   20.163204   23.694628 C.3        1 MOL1        -0.1858
      14    H7      17.901380   19.954409   23.987071 H          1 MOL1         0.0752
      15    H8      19.154167   21.174007   24.066608 H          1 MOL1         0.0752
      16    C6      19.040964   20.173742   22.146314 C.3        1 MOL1        -0.1858
      17    H9      20.031845   20.542005   21.849996 H          1 MOL1         0.0752
      18    H10     18.323146   20.906504   21.753521 H          1 MOL1         0.0752
      19    C7      18.786608   18.809374   21.459340 C.3        1 MOL1        -0.1834
      20    H11     18.910297   18.934773   20.374960 H          1 MOL1         0.0752
      21    H12     19.548625   18.082190   21.769770 H          1 MOL1         0.0752
      22    C8      17.378491   18.239783   21.736492 C.3        1 MOL1        -0.2849
      23    H13     16.600432   18.958430   21.448212 H          1 MOL1         0.0764
      24    H14     17.217204   17.317694   21.163372 H          1 MOL1         0.0764
      25    H15     17.248286   17.998575   22.798947 H          1 MOL1         0.0764
@<TRIPOS>BOND
    1     1     2    1
    2     1     3    2
    3     1     4    1
    4     4     5    1
    5     4     6    1
    6     4     7    1
    7     7     8    1
    8     7     9    1
    9     7    10    1
   10    10    11    1
   11    10    12    1
   12    10    13    1
   13    13    14    1
   14    13    15    1
   15    13    16    1
   16    16    17    1
   17    16    18    1
   18    16    19    1
   19    19    20    1
   20    19    21    1
   21    19    22    1
   22    22    23    1
   23    22    24    1
   24    22    25    1
@<TRIPOS>SUBSTRUCTURE
       1 MOL1            1 RESIDUE      1      MOL     
@<SCITEGIC>MOL_PROPERTY
VConf Rank
SciTegic.value.IntegerValue
239

@<SCITEGIC>MOL_PROPERTY
Conf_Id
SciTegic.value.IntegerValue
29

@<SCITEGIC>MOL_PROPERTY
Delta U+W
SciTegic.value.DoubleValue
0.850

@<SCITEGIC>MOL_PROPERTY
U+W
SciTegic.value.DoubleValue
-50.780

@<SCITEGIC>MOL_PROPERTY
Grad RMS
SciTegic.value.DoubleValue
0.000000

@<SCITEGIC>MOL_PROPERTY
U
SciTegic.value.DoubleValue
8.646

@<SCITEGIC>MOL_PROPERTY
W
SciTegic.value.DoubleValue
-59.426

@<SCITEGIC>MOL_PROPERTY
W(PB)
SciTegic.value.DoubleValue
-61.868

@<SCITEGIC>MOL_PROPERTY
W(SA)
SciTegic.value.DoubleValue
2.442

@<SCITEGIC>MOL_PROPERTY
Valence
SciTegic.value.DoubleValue
8.924

@<SCITEGIC>MOL_PROPERTY
Coulomb
SciTegic.value.DoubleValue
-1.171

@<SCITEGIC>MOL_PROPERTY
VdW
SciTegic.value.DoubleValue
0.894

@<SCITEGIC>MOL_PROPERTY
VdW6
SciTegic.value.DoubleValue
-10.223

@<SCITEGIC>MOL_PROPERTY
VdW12
SciTegic.value.DoubleValue
11.117

@<SCITEGIC>MOL_PROPERTY
Bond
SciTegic.value.DoubleValue
0.231

@<SCITEGIC>MOL_PROPERTY
Angle
SciTegic.value.DoubleValue
3.232

@<SCITEGIC>MOL_PROPERTY
Pdih
SciTegic.value.DoubleValue
5.461

@<SCITEGIC>MOL_PROPERTY
Idih
SciTegic.value.DoubleValue
0.001

@<SCITEGIC>MOL_PROPERTY
Tether
SciTegic.value.DoubleValue
0.000

@<TRIPOS>MOLECULE
guest-8_confgen4.mol2 : confsearch ligand conformer 240
          25          24           1
SMALL
USER_CHARGES
 
@<TRIPOS>ATOM
       1    C1      21.118690   22.060951   25.806247 C.2        1 MOL1         0.6168
       2    O1      20.195972   22.088938   26.596496 O.co2      1 MOL1        -0.6703
       3    O2      21.765007   23.040529   25.490902 O.co2      1 MOL1        -0.6703
       4    C2      21.473052   20.726328   25.160197 C.3        1 MOL1        -0.1963
       5    H1      21.254798   19.929890   25.881740 H          1 MOL1         0.0750
       6    H2      22.554377   20.712365   24.978473 H          1 MOL1         0.0750
       7    C3      20.704863   20.474854   23.839363 C.3        1 MOL1        -0.1860
       8    H3      19.626509   20.513340   24.042975 H          1 MOL1         0.0752
       9    H4      20.926445   21.284088   23.130008 H          1 MOL1         0.0752
      10    C4      21.077109   19.112667   23.209669 C.3        1 MOL1        -0.1858
      11    H5      20.819014   18.300348   23.901718 H          1 MOL1         0.0752
      12    H6      22.166621   19.065743   23.077829 H          1 MOL1         0.0752
      13    C5      20.408303   18.865883   21.834121 C.3        1 MOL1        -0.1858
      14    H7      20.753725   19.634449   21.129521 H          1 MOL1         0.0752
      15    H8      20.768861   17.910459   21.430954 H          1 MOL1         0.0752
      16    C6      18.856610   18.863955   21.842391 C.3        1 MOL1        -0.1858
      17    H9      18.501766   18.661022   20.822884 H          1 MOL1         0.0752
      18    H10     18.493268   19.870567   22.087302 H          1 MOL1         0.0752
      19    C7      18.203553   17.845710   22.809255 C.3        1 MOL1        -0.1834
      20    H11     18.473302   18.083358   23.846846 H          1 MOL1         0.0752
      21    H12     17.112073   17.953758   22.746796 H          1 MOL1         0.0752
      22    C8      18.576820   16.380643   22.495746 C.3        1 MOL1        -0.2849
      23    H13     19.648232   16.200783   22.649605 H          1 MOL1         0.0764
      24    H14     18.026245   15.694770   23.152383 H          1 MOL1         0.0764
      25    H15     18.330207   16.126252   21.456803 H          1 MOL1         0.0764
@<TRIPOS>BOND
    1     1     2    1
    2     1     3    2
    3     1     4    1
    4     4     5    1
    5     4     6    1
    6     4     7    1
    7     7     8    1
    8     7     9    1
    9     7    10    1
   10    10    11    1
   11    10    12    1
   12    10    13    1
   13    13    14    1
   14    13    15    1
   15    13    16    1
   16    16    17    1
   17    16    18    1
   18    16    19    1
   19    19    20    1
   20    19    21    1
   21    19    22    1
   22    22    23    1
   23    22    24    1
   24    22    25    1
@<TRIPOS>SUBSTRUCTURE
       1 MOL1            1 RESIDUE      1      MOL     
@<SCITEGIC>MOL_PROPERTY
VConf Rank
SciTegic.value.IntegerValue
240

@<SCITEGIC>MOL_PROPERTY
Conf_Id
SciTegic.value.IntegerValue
30

@<SCITEGIC>MOL_PROPERTY
Delta U+W
SciTegic.value.DoubleValue
0.843

@<SCITEGIC>MOL_PROPERTY
U+W
SciTegic.value.DoubleValue
-50.787

@<SCITEGIC>MOL_PROPERTY
Grad RMS
SciTegic.value.DoubleValue
0.000000

@<SCITEGIC>MOL_PROPERTY
U
SciTegic.value.DoubleValue
8.647

@<SCITEGIC>MOL_PROPERTY
W
SciTegic.value.DoubleValue
-59.434

@<SCITEGIC>MOL_PROPERTY
W(PB)
SciTegic.value.DoubleValue
-61.861

@<SCITEGIC>MOL_PROPERTY
W(SA)
SciTegic.value.DoubleValue
2.428

@<SCITEGIC>MOL_PROPERTY
Valence
SciTegic.value.DoubleValue
8.924

@<SCITEGIC>MOL_PROPERTY
Coulomb
SciTegic.value.DoubleValue
-1.170

@<SCITEGIC>MOL_PROPERTY
VdW
SciTegic.value.DoubleValue
0.894

@<SCITEGIC>MOL_PROPERTY
VdW6
SciTegic.value.DoubleValue
-10.224

@<SCITEGIC>MOL_PROPERTY
VdW12
SciTegic.value.DoubleValue
11.118

@<SCITEGIC>MOL_PROPERTY
Bond
SciTegic.value.DoubleValue
0.231

@<SCITEGIC>MOL_PROPERTY
Angle
SciTegic.value.DoubleValue
3.232

@<SCITEGIC>MOL_PROPERTY
Pdih
SciTegic.value.DoubleValue
5.460

@<SCITEGIC>MOL_PROPERTY
Idih
SciTegic.value.DoubleValue
0.000

@<SCITEGIC>MOL_PROPERTY
Tether
SciTegic.value.DoubleValue
0.000

@<TRIPOS>MOLECULE
guest-8_confgen4.mol2 : confsearch ligand conformer 241
          25          24           1
SMALL
USER_CHARGES
 
@<TRIPOS>ATOM
       1    C1      23.967384   21.798039   23.401360 C.2        1 MOL1         0.6168
       2    O1      24.046610   21.943499   22.196716 O.co2      1 MOL1        -0.6703
       3    O2      24.764268   22.279484   24.181940 O.co2      1 MOL1        -0.6703
       4    C2      22.821618   20.975026   23.992347 C.3        1 MOL1        -0.1963
       5    H1      22.281806   21.622437   24.693324 H          1 MOL1         0.0750
       6    H2      23.269960   20.166807   24.581989 H          1 MOL1         0.0750
       7    C3      21.830073   20.381140   22.956704 C.3        1 MOL1        -0.1860
       8    H3      21.389477   21.195723   22.365235 H          1 MOL1         0.0752
       9    H4      22.378504   19.738728   22.253827 H          1 MOL1         0.0752
      10    C4      20.707844   19.567325   23.637110 C.3        1 MOL1        -0.1858
      11    H5      20.161006   20.211536   24.339319 H          1 MOL1         0.0752
      12    H6      21.150651   18.753619   24.227822 H          1 MOL1         0.0752
      13    C5      19.722681   18.977518   22.605088 C.3        1 MOL1        -0.1858
      14    H7      19.279688   19.791007   22.014244 H          1 MOL1         0.0752
      15    H8      20.269233   18.333217   21.902763 H          1 MOL1         0.0752
      16    C6      18.600331   18.163694   23.284747 C.3        1 MOL1        -0.1858
      17    H9      18.053607   18.807825   23.987088 H          1 MOL1         0.0752
      18    H10     19.043099   17.350074   23.875570 H          1 MOL1         0.0752
      19    C7      17.615518   17.574134   22.253280 C.3        1 MOL1        -0.1834
      20    H11     17.169130   18.385356   21.661550 H          1 MOL1         0.0752
      21    H12     18.158606   16.927612   21.550036 H          1 MOL1         0.0752
      22    C8      16.496346   16.762258   22.935860 C.3        1 MOL1        -0.2849
      23    H13     15.916186   17.392952   23.622181 H          1 MOL1         0.0764
      24    H14     15.805822   16.350755   22.188245 H          1 MOL1         0.0764
      25    H15     16.913102   15.924227   23.509809 H          1 MOL1         0.0764
@<TRIPOS>BOND
    1     1     2    1
    2     1     3    2
    3     1     4    1
    4     4     5    1
    5     4     6    1
    6     4     7    1
    7     7     8    1
    8     7     9    1
    9     7    10    1
   10    10    11    1
   11    10    12    1
   12    10    13    1
   13    13    14    1
   14    13    15    1
   15    13    16    1
   16    16    17    1
   17    16    18    1
   18    16    19    1
   19    19    20    1
   20    19    21    1
   21    19    22    1
   22    22    23    1
   23    22    24    1
   24    22    25    1
@<TRIPOS>SUBSTRUCTURE
       1 MOL1            1 RESIDUE      1      MOL     
@<SCITEGIC>MOL_PROPERTY
VConf Rank
SciTegic.value.IntegerValue
241

@<SCITEGIC>MOL_PROPERTY
Conf_Id
SciTegic.value.IntegerValue
0

@<SCITEGIC>MOL_PROPERTY
Delta U+W
SciTegic.value.DoubleValue
0.000

@<SCITEGIC>MOL_PROPERTY
U+W
SciTegic.value.DoubleValue
-51.629

@<SCITEGIC>MOL_PROPERTY
Grad RMS
SciTegic.value.DoubleValue
0.000000

@<SCITEGIC>MOL_PROPERTY
U
SciTegic.value.DoubleValue
6.586

@<SCITEGIC>MOL_PROPERTY
W
SciTegic.value.DoubleValue
-58.216

@<SCITEGIC>MOL_PROPERTY
W(PB)
SciTegic.value.DoubleValue
-60.757

@<SCITEGIC>MOL_PROPERTY
W(SA)
SciTegic.value.DoubleValue
2.541

@<SCITEGIC>MOL_PROPERTY
Valence
SciTegic.value.DoubleValue
8.027

@<SCITEGIC>MOL_PROPERTY
Coulomb
SciTegic.value.DoubleValue
-2.892

@<SCITEGIC>MOL_PROPERTY
VdW
SciTegic.value.DoubleValue
1.451

@<SCITEGIC>MOL_PROPERTY
VdW6
SciTegic.value.DoubleValue
-7.931

@<SCITEGIC>MOL_PROPERTY
VdW12
SciTegic.value.DoubleValue
9.383

@<SCITEGIC>MOL_PROPERTY
Bond
SciTegic.value.DoubleValue
0.149

@<SCITEGIC>MOL_PROPERTY
Angle
SciTegic.value.DoubleValue
2.726

@<SCITEGIC>MOL_PROPERTY
Pdih
SciTegic.value.DoubleValue
5.152

@<SCITEGIC>MOL_PROPERTY
Idih
SciTegic.value.DoubleValue
0.000

@<SCITEGIC>MOL_PROPERTY
Tether
SciTegic.value.DoubleValue
0.000

@<TRIPOS>MOLECULE
guest-8_confgen4.mol2 : confsearch ligand conformer 242
          25          24           1
SMALL
USER_CHARGES
 
@<TRIPOS>ATOM
       1    C1      16.158309   21.627359   23.137566 C.2        1 MOL1         0.6168
       2    O1      16.315362   22.824975   23.270494 O.co2      1 MOL1        -0.6703
       3    O2      15.257203   21.134270   22.488341 O.co2      1 MOL1        -0.6703
       4    C2      17.161015   20.691776   23.803408 C.3        1 MOL1        -0.1963
       5    H1      16.633826   19.772471   24.085462 H          1 MOL1         0.0750
       6    H2      17.505369   21.165635   24.730491 H          1 MOL1         0.0750
       7    C3      18.368378   20.357994   22.892974 C.3        1 MOL1        -0.1860
       8    H3      18.005689   19.896529   21.963942 H          1 MOL1         0.0752
       9    H4      18.877110   21.289686   22.608834 H          1 MOL1         0.0752
      10    C4      19.368699   19.410017   23.589191 C.3        1 MOL1        -0.1858
      11    H5      18.856809   18.480152   23.872917 H          1 MOL1         0.0752
      12    H6      19.728294   19.873625   24.518135 H          1 MOL1         0.0752
      13    C5      20.571270   19.079245   22.679310 C.3        1 MOL1        -0.1858
      14    H7      20.211930   18.615565   21.750343 H          1 MOL1         0.0752
      15    H8      21.083302   20.008961   22.395487 H          1 MOL1         0.0752
      16    C6      21.572050   18.131357   23.374885 C.3        1 MOL1        -0.1858
      17    H9      21.060340   17.201480   23.658748 H          1 MOL1         0.0752
      18    H10     21.931591   18.594772   24.303902 H          1 MOL1         0.0752
      19    C7      22.774203   17.800682   22.465575 C.3        1 MOL1        -0.1834
      20    H11     22.418521   17.335173   21.535908 H          1 MOL1         0.0752
      21    H12     23.289779   18.728440   22.181082 H          1 MOL1         0.0752
      22    C8      23.771167   16.853962   23.163704 C.3        1 MOL1        -0.2849
      23    H13     24.618934   16.629599   22.503370 H          1 MOL1         0.0764
      24    H14     24.167346   17.308097   24.081419 H          1 MOL1         0.0764
      25    H15     23.289526   15.904349   23.431386 H          1 MOL1         0.0764
@<TRIPOS>BOND
    1     1     2    1
    2     1     3    2
    3     1     4    1
    4     4     5    1
    5     4     6    1
    6     4     7    1
    7     7     8    1
    8     7     9    1
    9     7    10    1
   10    10    11    1
   11    10    12    1
   12    10    13    1
   13    13    14    1
   14    13    15    1
   15    13    16    1
   16    16    17    1
   17    16    18    1
   18    16    19    1
   19    19    20    1
   20    19    21    1
   21    19    22    1
   22    22    23    1
   23    22    24    1
   24    22    25    1
@<TRIPOS>SUBSTRUCTURE
       1 MOL1            1 RESIDUE      1      MOL     
@<SCITEGIC>MOL_PROPERTY
VConf Rank
SciTegic.value.IntegerValue
242

@<SCITEGIC>MOL_PROPERTY
Conf_Id
SciTegic.value.IntegerValue
27

@<SCITEGIC>MOL_PROPERTY
Delta U+W
SciTegic.value.DoubleValue
-1.297

@<SCITEGIC>MOL_PROPERTY
U+W
SciTegic.value.DoubleValue
-52.926

@<SCITEGIC>MOL_PROPERTY
Grad RMS
SciTegic.value.DoubleValue
0.000000

@<SCITEGIC>MOL_PROPERTY
U
SciTegic.value.DoubleValue
5.617

@<SCITEGIC>MOL_PROPERTY
W
SciTegic.value.DoubleValue
-58.543

@<SCITEGIC>MOL_PROPERTY
W(PB)
SciTegic.value.DoubleValue
-61.065

@<SCITEGIC>MOL_PROPERTY
W(SA)
SciTegic.value.DoubleValue
2.522

@<SCITEGIC>MOL_PROPERTY
Valence
SciTegic.value.DoubleValue
7.531

@<SCITEGIC>MOL_PROPERTY
Coulomb
SciTegic.value.DoubleValue
-2.818

@<SCITEGIC>MOL_PROPERTY
VdW
SciTegic.value.DoubleValue
0.904

@<SCITEGIC>MOL_PROPERTY
VdW6
SciTegic.value.DoubleValue
-7.640

@<SCITEGIC>MOL_PROPERTY
VdW12
SciTegic.value.DoubleValue
8.544

@<SCITEGIC>MOL_PROPERTY
Bond
SciTegic.value.DoubleValue
0.115

@<SCITEGIC>MOL_PROPERTY
Angle
SciTegic.value.DoubleValue
2.271

@<SCITEGIC>MOL_PROPERTY
Pdih
SciTegic.value.DoubleValue
5.144

@<SCITEGIC>MOL_PROPERTY
Idih
SciTegic.value.DoubleValue
0.001

@<SCITEGIC>MOL_PROPERTY
Tether
SciTegic.value.DoubleValue
0.000

@<TRIPOS>MOLECULE
guest-8_confgen4.mol2 : confsearch ligand conformer 243
          25          24           1
SMALL
USER_CHARGES
 
@<TRIPOS>ATOM
       1    C1      20.435974   19.838705   27.292660 C.2        1 MOL1         0.6168
       2    O1      19.450642   20.395043   27.736151 O.co2      1 MOL1        -0.6703
       3    O2      20.760415   18.706059   27.590677 O.co2      1 MOL1        -0.6703
       4    C2      21.322352   20.613022   26.321201 C.3        1 MOL1        -0.1963
       5    H1      22.308257   20.133665   26.288735 H          1 MOL1         0.0750
       6    H2      21.470336   21.615325   26.740098 H          1 MOL1         0.0750
       7    C3      20.736421   20.730708   24.890195 C.3        1 MOL1        -0.1860
       8    H3      19.738038   21.187006   24.942117 H          1 MOL1         0.0752
       9    H4      21.365548   21.412847   24.302459 H          1 MOL1         0.0752
      10    C4      20.651666   19.366865   24.168727 C.3        1 MOL1        -0.1858
      11    H5      20.009347   18.684049   24.741974 H          1 MOL1         0.0752
      12    H6      21.649557   18.908778   24.131370 H          1 MOL1         0.0752
      13    C5      20.095990   19.511687   22.735590 C.3        1 MOL1        -0.1858
      14    H7      19.098126   19.969815   22.773975 H          1 MOL1         0.0752
      15    H8      20.738454   20.191726   22.159547 H          1 MOL1         0.0752
      16    C6      20.010224   18.149201   22.014384 C.3        1 MOL1        -0.1858
      17    H9      19.367819   17.468996   22.590375 H          1 MOL1         0.0752
      18    H10     21.007935   17.690729   21.976204 H          1 MOL1         0.0752
      19    C7      19.454365   18.293371   20.582041 C.3        1 MOL1        -0.1834
      20    H11     18.455495   18.750044   20.616541 H          1 MOL1         0.0752
      21    H12     20.095663   18.971705   20.002318 H          1 MOL1         0.0752
      22    C8      19.370167   16.930646   19.865455 C.3        1 MOL1        -0.2849
      23    H13     18.709058   16.241915   20.407656 H          1 MOL1         0.0764
      24    H14     18.973224   17.051768   18.849165 H          1 MOL1         0.0764
      25    H15     20.361572   16.465199   19.788841 H          1 MOL1         0.0764
@<TRIPOS>BOND
    1     1     2    1
    2     1     3    2
    3     1     4    1
    4     4     5    1
    5     4     6    1
    6     4     7    1
    7     7     8    1
    8     7     9    1
    9     7    10    1
   10    10    11    1
   11    10    12    1
   12    10    13    1
   13    13    14    1
   14    13    15    1
   15    13    16    1
   16    16    17    1
   17    16    18    1
   18    16    19    1
   19    19    20    1
   20    19    21    1
   21    19    22    1
   22    22    23    1
   23    22    24    1
   24    22    25    1
@<TRIPOS>SUBSTRUCTURE
       1 MOL1            1 RESIDUE      1      MOL     
@<SCITEGIC>MOL_PROPERTY
VConf Rank
SciTegic.value.IntegerValue
243

@<SCITEGIC>MOL_PROPERTY
Conf_Id
SciTegic.value.IntegerValue
37

@<SCITEGIC>MOL_PROPERTY
Delta U+W
SciTegic.value.DoubleValue
-0.230

@<SCITEGIC>MOL_PROPERTY
U+W
SciTegic.value.DoubleValue
-51.860

@<SCITEGIC>MOL_PROPERTY
Grad RMS
SciTegic.value.DoubleValue
0.000000

@<SCITEGIC>MOL_PROPERTY
U
SciTegic.value.DoubleValue
7.816

@<SCITEGIC>MOL_PROPERTY
W
SciTegic.value.DoubleValue
-59.675

@<SCITEGIC>MOL_PROPERTY
W(PB)
SciTegic.value.DoubleValue
-62.180

@<SCITEGIC>MOL_PROPERTY
W(SA)
SciTegic.value.DoubleValue
2.505

@<SCITEGIC>MOL_PROPERTY
Valence
SciTegic.value.DoubleValue
7.785

@<SCITEGIC>MOL_PROPERTY
Coulomb
SciTegic.value.DoubleValue
-0.713

@<SCITEGIC>MOL_PROPERTY
VdW
SciTegic.value.DoubleValue
0.744

@<SCITEGIC>MOL_PROPERTY
VdW6
SciTegic.value.DoubleValue
-8.514

@<SCITEGIC>MOL_PROPERTY
VdW12
SciTegic.value.DoubleValue
9.259

@<SCITEGIC>MOL_PROPERTY
Bond
SciTegic.value.DoubleValue
0.136

@<SCITEGIC>MOL_PROPERTY
Angle
SciTegic.value.DoubleValue
2.433

@<SCITEGIC>MOL_PROPERTY
Pdih
SciTegic.value.DoubleValue
5.216

@<SCITEGIC>MOL_PROPERTY
Idih
SciTegic.value.DoubleValue
0.000

@<SCITEGIC>MOL_PROPERTY
Tether
SciTegic.value.DoubleValue
0.000

@<TRIPOS>MOLECULE
guest-8_confgen4.mol2 : confsearch ligand conformer 244
          25          24           1
SMALL
USER_CHARGES
 
@<TRIPOS>ATOM
       1    C1      20.672371   16.219587   25.793745 C.2        1 MOL1         0.6168
       2    O1      21.369940   15.354794   25.301196 O.co2      1 MOL1        -0.6703
       3    O2      19.501676   16.059003   26.077732 O.co2      1 MOL1        -0.6703
       4    C2      21.307977   17.575930   26.085818 C.3        1 MOL1        -0.1963
       5    H1      22.273401   17.388074   26.570226 H          1 MOL1         0.0750
       6    H2      20.683855   18.105026   26.816144 H          1 MOL1         0.0750
       7    C3      21.522302   18.455813   24.826924 C.3        1 MOL1        -0.1860
       8    H3      22.103914   19.344265   25.107865 H          1 MOL1         0.0752
       9    H4      22.125340   17.901803   24.094058 H          1 MOL1         0.0752
      10    C4      20.191729   18.901582   24.179905 C.3        1 MOL1        -0.1858
      11    H5      19.586980   19.443178   24.920160 H          1 MOL1         0.0752
      12    H6      19.611473   18.017920   23.880127 H          1 MOL1         0.0752
      13    C5      20.428276   19.801812   22.948134 C.3        1 MOL1        -0.1858
      14    H7      21.005872   20.687613   23.246090 H          1 MOL1         0.0752
      15    H8      21.032972   19.259335   22.208438 H          1 MOL1         0.0752
      16    C6      19.099204   20.247044   22.300684 C.3        1 MOL1        -0.1858
      17    H9      18.494221   20.789296   23.040304 H          1 MOL1         0.0752
      18    H10     18.521401   19.361311   22.002775 H          1 MOL1         0.0752
      19    C7      19.335139   21.146383   21.069064 C.3        1 MOL1        -0.1834
      20    H11     19.911375   22.034418   21.363724 H          1 MOL1         0.0752
      21    H12     19.938454   20.606374   20.326174 H          1 MOL1         0.0752
      22    C8      18.005559   21.588734   20.425522 C.3        1 MOL1        -0.2849
      23    H13     17.395007   22.159077   21.137792 H          1 MOL1         0.0764
      24    H14     18.191957   22.226889   19.551968 H          1 MOL1         0.0764
      25    H15     17.422261   20.720254   20.092500 H          1 MOL1         0.0764
@<TRIPOS>BOND
    1     1     2    1
    2     1     3    2
    3     1     4    1
    4     4     5    1
    5     4     6    1
    6     4     7    1
    7     7     8    1
    8     7     9    1
    9     7    10    1
   10    10    11    1
   11    10    12    1
   12    10    13    1
   13    13    14    1
   14    13    15    1
   15    13    16    1
   16    16    17    1
   17    16    18    1
   18    16    19    1
   19    19    20    1
   20    19    21    1
   21    19    22    1
   22    22    23    1
   23    22    24    1
   24    22    25    1
@<TRIPOS>SUBSTRUCTURE
       1 MOL1            1 RESIDUE      1      MOL     
@<SCITEGIC>MOL_PROPERTY
VConf Rank
SciTegic.value.IntegerValue
244

@<SCITEGIC>MOL_PROPERTY
Conf_Id
SciTegic.value.IntegerValue
54

@<SCITEGIC>MOL_PROPERTY
Delta U+W
SciTegic.value.DoubleValue
-0.224

@<SCITEGIC>MOL_PROPERTY
U+W
SciTegic.value.DoubleValue
-51.854

@<SCITEGIC>MOL_PROPERTY
Grad RMS
SciTegic.value.DoubleValue
0.000000

@<SCITEGIC>MOL_PROPERTY
U
SciTegic.value.DoubleValue
7.816

@<SCITEGIC>MOL_PROPERTY
W
SciTegic.value.DoubleValue
-59.670

@<SCITEGIC>MOL_PROPERTY
W(PB)
SciTegic.value.DoubleValue
-62.157

@<SCITEGIC>MOL_PROPERTY
W(SA)
SciTegic.value.DoubleValue
2.487

@<SCITEGIC>MOL_PROPERTY
Valence
SciTegic.value.DoubleValue
7.785

@<SCITEGIC>MOL_PROPERTY
Coulomb
SciTegic.value.DoubleValue
-0.713

@<SCITEGIC>MOL_PROPERTY
VdW
SciTegic.value.DoubleValue
0.744

@<SCITEGIC>MOL_PROPERTY
VdW6
SciTegic.value.DoubleValue
-8.515

@<SCITEGIC>MOL_PROPERTY
VdW12
SciTegic.value.DoubleValue
9.259

@<SCITEGIC>MOL_PROPERTY
Bond
SciTegic.value.DoubleValue
0.136

@<SCITEGIC>MOL_PROPERTY
Angle
SciTegic.value.DoubleValue
2.433

@<SCITEGIC>MOL_PROPERTY
Pdih
SciTegic.value.DoubleValue
5.215

@<SCITEGIC>MOL_PROPERTY
Idih
SciTegic.value.DoubleValue
0.000

@<SCITEGIC>MOL_PROPERTY
Tether
SciTegic.value.DoubleValue
0.000

@<TRIPOS>MOLECULE
guest-8_confgen4.mol2 : confsearch ligand conformer 245
          25          24           1
SMALL
USER_CHARGES
 
@<TRIPOS>ATOM
       1    C1      18.458797   22.230272   25.309917 C.2        1 MOL1         0.6168
       2    O1      19.380720   22.989841   25.533888 O.co2      1 MOL1        -0.6703
       3    O2      17.407550   22.577853   24.808743 O.co2      1 MOL1        -0.6703
       4    C2      18.620915   20.762510   25.695376 C.3        1 MOL1        -0.1963
       5    H1      17.705104   20.458244   26.215648 H          1 MOL1         0.0750
       6    H2      19.440235   20.678671   26.419610 H          1 MOL1         0.0750
       7    C3      18.871055   19.816510   24.491973 C.3        1 MOL1        -0.1860
       8    H3      18.816656   18.780369   24.848703 H          1 MOL1         0.0752
       9    H4      18.064145   19.942186   23.756785 H          1 MOL1         0.0752
      10    C4      20.240879   20.065664   23.815617 C.3        1 MOL1        -0.1858
      11    H5      21.049180   19.895156   24.539740 H          1 MOL1         0.0752
      12    H6      20.308750   21.121734   23.520513 H          1 MOL1         0.0752
      13    C5      20.478700   19.195420   22.558210 C.3        1 MOL1        -0.1858
      14    H7      19.660298   19.352073   21.842490 H          1 MOL1         0.0752
      15    H8      21.393115   19.552737   22.067967 H          1 MOL1         0.0752
      16    C6      20.620333   17.684737   22.869029 C.3        1 MOL1        -0.1858
      17    H9      19.704202   17.323292   23.352698 H          1 MOL1         0.0752
      18    H10     21.435545   17.529220   23.588654 H          1 MOL1         0.0752
      19    C7      20.868943   16.819536   21.611211 C.3        1 MOL1        -0.1834
      20    H11     20.818760   15.760126   21.898224 H          1 MOL1         0.0752
      21    H12     20.061828   16.981873   20.883535 H          1 MOL1         0.0752
      22    C8      22.234870   17.086275   20.941858 C.3        1 MOL1        -0.2849
      23    H13     22.288125   18.100586   20.527442 H          1 MOL1         0.0764
      24    H14     23.055422   16.963718   21.660735 H          1 MOL1         0.0764
      25    H15     22.401244   16.382133   20.116383 H          1 MOL1         0.0764
@<TRIPOS>BOND
    1     1     2    1
    2     1     3    2
    3     1     4    1
    4     4     5    1
    5     4     6    1
    6     4     7    1
    7     7     8    1
    8     7     9    1
    9     7    10    1
   10    10    11    1
   11    10    12    1
   12    10    13    1
   13    13    14    1
   14    13    15    1
   15    13    16    1
   16    16    17    1
   17    16    18    1
   18    16    19    1
   19    19    20    1
   20    19    21    1
   21    19    22    1
   22    22    23    1
   23    22    24    1
   24    22    25    1
@<TRIPOS>SUBSTRUCTURE
       1 MOL1            1 RESIDUE      1      MOL     
@<SCITEGIC>MOL_PROPERTY
VConf Rank
SciTegic.value.IntegerValue
245

@<SCITEGIC>MOL_PROPERTY
Conf_Id
SciTegic.value.IntegerValue
101

@<SCITEGIC>MOL_PROPERTY
Delta U+W
SciTegic.value.DoubleValue
1.534

@<SCITEGIC>MOL_PROPERTY
U+W
SciTegic.value.DoubleValue
-50.095

@<SCITEGIC>MOL_PROPERTY
Grad RMS
SciTegic.value.DoubleValue
0.000000

@<SCITEGIC>MOL_PROPERTY
U
SciTegic.value.DoubleValue
9.416

@<SCITEGIC>MOL_PROPERTY
W
SciTegic.value.DoubleValue
-59.512

@<SCITEGIC>MOL_PROPERTY
W(PB)
SciTegic.value.DoubleValue
-61.988

@<SCITEGIC>MOL_PROPERTY
W(SA)
SciTegic.value.DoubleValue
2.476

@<SCITEGIC>MOL_PROPERTY
Valence
SciTegic.value.DoubleValue
8.939

@<SCITEGIC>MOL_PROPERTY
Coulomb
SciTegic.value.DoubleValue
-0.615

@<SCITEGIC>MOL_PROPERTY
VdW
SciTegic.value.DoubleValue
1.092

@<SCITEGIC>MOL_PROPERTY
VdW6
SciTegic.value.DoubleValue
-9.710

@<SCITEGIC>MOL_PROPERTY
VdW12
SciTegic.value.DoubleValue
10.802

@<SCITEGIC>MOL_PROPERTY
Bond
SciTegic.value.DoubleValue
0.216

@<SCITEGIC>MOL_PROPERTY
Angle
SciTegic.value.DoubleValue
2.979

@<SCITEGIC>MOL_PROPERTY
Pdih
SciTegic.value.DoubleValue
5.743

@<SCITEGIC>MOL_PROPERTY
Idih
SciTegic.value.DoubleValue
0.000

@<SCITEGIC>MOL_PROPERTY
Tether
SciTegic.value.DoubleValue
0.000

@<TRIPOS>MOLECULE
guest-8_confgen4.mol2 : confsearch ligand conformer 246
          25          24           1
SMALL
USER_CHARGES
 
@<TRIPOS>ATOM
       1    C1      19.474860   18.265581   19.231208 C.2        1 MOL1         0.6168
       2    O1      18.294239   18.013661   19.091893 O.co2      1 MOL1        -0.6703
       3    O2      20.206862   18.587591   18.316189 O.co2      1 MOL1        -0.6703
       4    C2      20.065394   18.195802   20.634977 C.3        1 MOL1        -0.1963
       5    H1      21.115382   17.892202   20.547277 H          1 MOL1         0.0750
       6    H2      19.540716   17.401285   21.177025 H          1 MOL1         0.0750
       7    C3      19.959517   19.542466   21.397107 C.3        1 MOL1        -0.1860
       8    H3      20.409251   20.331791   20.778939 H          1 MOL1         0.0752
       9    H4      18.901722   19.812126   21.522219 H          1 MOL1         0.0752
      10    C4      20.663390   19.533361   22.775218 C.3        1 MOL1        -0.1858
      11    H5      20.656424   20.559080   23.165528 H          1 MOL1         0.0752
      12    H6      21.718182   19.254071   22.648820 H          1 MOL1         0.0752
      13    C5      19.991706   18.590072   23.803297 C.3        1 MOL1        -0.1858
      14    H7      18.937786   18.869640   23.930230 H          1 MOL1         0.0752
      15    H8      19.989721   17.565181   23.411744 H          1 MOL1         0.0752
      16    C6      20.703106   18.568714   25.180181 C.3        1 MOL1        -0.1858
      17    H9      21.730092   18.203471   25.043891 H          1 MOL1         0.0752
      18    H10     20.202485   17.830824   25.821715 H          1 MOL1         0.0752
      19    C7      20.751404   19.924953   25.927004 C.3        1 MOL1        -0.1834
      20    H11     21.280045   19.780136   26.879164 H          1 MOL1         0.0752
      21    H12     21.347356   20.650824   25.358415 H          1 MOL1         0.0752
      22    C8      19.354227   20.513194   26.219941 C.3        1 MOL1        -0.2849
      23    H13     18.731888   19.793761   26.767745 H          1 MOL1         0.0764
      24    H14     19.439856   21.421170   26.830689 H          1 MOL1         0.0764
      25    H15     18.833692   20.784168   25.292744 H          1 MOL1         0.0764
@<TRIPOS>BOND
    1     1     2    1
    2     1     3    2
    3     1     4    1
    4     4     5    1
    5     4     6    1
    6     4     7    1
    7     7     8    1
    8     7     9    1
    9     7    10    1
   10    10    11    1
   11    10    12    1
   12    10    13    1
   13    13    14    1
   14    13    15    1
   15    13    16    1
   16    16    17    1
   17    16    18    1
   18    16    19    1
   19    19    20    1
   20    19    21    1
   21    19    22    1
   22    22    23    1
   23    22    24    1
   24    22    25    1
@<TRIPOS>SUBSTRUCTURE
       1 MOL1            1 RESIDUE      1      MOL     
@<SCITEGIC>MOL_PROPERTY
VConf Rank
SciTegic.value.IntegerValue
246

@<SCITEGIC>MOL_PROPERTY
Conf_Id
SciTegic.value.IntegerValue
75

@<SCITEGIC>MOL_PROPERTY
Delta U+W
SciTegic.value.DoubleValue
1.014

@<SCITEGIC>MOL_PROPERTY
U+W
SciTegic.value.DoubleValue
-50.615

@<SCITEGIC>MOL_PROPERTY
Grad RMS
SciTegic.value.DoubleValue
0.000000

@<SCITEGIC>MOL_PROPERTY
U
SciTegic.value.DoubleValue
8.474

@<SCITEGIC>MOL_PROPERTY
W
SciTegic.value.DoubleValue
-59.089

@<SCITEGIC>MOL_PROPERTY
W(PB)
SciTegic.value.DoubleValue
-61.530

@<SCITEGIC>MOL_PROPERTY
W(SA)
SciTegic.value.DoubleValue
2.441

@<SCITEGIC>MOL_PROPERTY
Valence
SciTegic.value.DoubleValue
9.080

@<SCITEGIC>MOL_PROPERTY
Coulomb
SciTegic.value.DoubleValue
-1.772

@<SCITEGIC>MOL_PROPERTY
VdW
SciTegic.value.DoubleValue
1.165

@<SCITEGIC>MOL_PROPERTY
VdW6
SciTegic.value.DoubleValue
-9.830

@<SCITEGIC>MOL_PROPERTY
VdW12
SciTegic.value.DoubleValue
10.996

@<SCITEGIC>MOL_PROPERTY
Bond
SciTegic.value.DoubleValue
0.240

@<SCITEGIC>MOL_PROPERTY
Angle
SciTegic.value.DoubleValue
3.225

@<SCITEGIC>MOL_PROPERTY
Pdih
SciTegic.value.DoubleValue
5.615

@<SCITEGIC>MOL_PROPERTY
Idih
SciTegic.value.DoubleValue
0.001

@<SCITEGIC>MOL_PROPERTY
Tether
SciTegic.value.DoubleValue
0.000

@<TRIPOS>MOLECULE
guest-8_confgen4.mol2 : confsearch ligand conformer 247
          25          24           1
SMALL
USER_CHARGES
 
@<TRIPOS>ATOM
       1    C1      21.854825   22.288856   25.548293 C.2        1 MOL1         0.6168
       2    O1      22.956322   21.921364   25.906490 O.co2      1 MOL1        -0.6703
       3    O2      21.546508   23.456058   25.409549 O.co2      1 MOL1        -0.6703
       4    C2      20.807987   21.225811   25.235010 C.3        1 MOL1        -0.1963
       5    H1      19.822049   21.633279   25.488893 H          1 MOL1         0.0750
       6    H2      20.984658   20.368626   25.895787 H          1 MOL1         0.0750
       7    C3      20.834438   20.773524   23.754193 C.3        1 MOL1        -0.1860
       8    H3      20.669032   21.644835   23.105384 H          1 MOL1         0.0752
       9    H4      21.831839   20.380539   23.512762 H          1 MOL1         0.0752
      10    C4      19.767136   19.696426   23.462858 C.3        1 MOL1        -0.1858
      11    H5      18.772108   20.093414   23.706031 H          1 MOL1         0.0752
      12    H6      19.931752   18.835519   24.121609 H          1 MOL1         0.0752
      13    C5      19.793612   19.252428   21.981338 C.3        1 MOL1        -0.1858
      14    H7      19.594000   20.133841   21.356692 H          1 MOL1         0.0752
      15    H8      20.797457   18.902264   21.704751 H          1 MOL1         0.0752
      16    C6      18.740907   18.165029   21.646973 C.3        1 MOL1        -0.1858
      17    H9      18.363630   18.355641   20.632972 H          1 MOL1         0.0752
      18    H10     17.871120   18.259403   22.311353 H          1 MOL1         0.0752
      19    C7      19.278866   16.712947   21.677984 C.3        1 MOL1        -0.1834
      20    H11     18.477449   16.037341   21.348651 H          1 MOL1         0.0752
      21    H12     20.091105   16.605618   20.945873 H          1 MOL1         0.0752
      22    C8      19.775227   16.251808   23.064111 C.3        1 MOL1        -0.2849
      23    H13     19.005735   16.409475   23.830913 H          1 MOL1         0.0764
      24    H14     20.022607   15.182572   23.047033 H          1 MOL1         0.0764
      25    H15     20.680809   16.795430   23.360794 H          1 MOL1         0.0764
@<TRIPOS>BOND
    1     1     2    1
    2     1     3    2
    3     1     4    1
    4     4     5    1
    5     4     6    1
    6     4     7    1
    7     7     8    1
    8     7     9    1
    9     7    10    1
   10    10    11    1
   11    10    12    1
   12    10    13    1
   13    13    14    1
   14    13    15    1
   15    13    16    1
   16    16    17    1
   17    16    18    1
   18    16    19    1
   19    19    20    1
   20    19    21    1
   21    19    22    1
   22    22    23    1
   23    22    24    1
   24    22    25    1
@<TRIPOS>SUBSTRUCTURE
       1 MOL1            1 RESIDUE      1      MOL     
@<SCITEGIC>MOL_PROPERTY
VConf Rank
SciTegic.value.IntegerValue
247

@<SCITEGIC>MOL_PROPERTY
Conf_Id
SciTegic.value.IntegerValue
125

@<SCITEGIC>MOL_PROPERTY
Delta U+W
SciTegic.value.DoubleValue
2.314

@<SCITEGIC>MOL_PROPERTY
U+W
SciTegic.value.DoubleValue
-49.315

@<SCITEGIC>MOL_PROPERTY
Grad RMS
SciTegic.value.DoubleValue
0.000000

@<SCITEGIC>MOL_PROPERTY
U
SciTegic.value.DoubleValue
9.740

@<SCITEGIC>MOL_PROPERTY
W
SciTegic.value.DoubleValue
-59.054

@<SCITEGIC>MOL_PROPERTY
W(PB)
SciTegic.value.DoubleValue
-61.488

@<SCITEGIC>MOL_PROPERTY
W(SA)
SciTegic.value.DoubleValue
2.433

@<SCITEGIC>MOL_PROPERTY
Valence
SciTegic.value.DoubleValue
10.506

@<SCITEGIC>MOL_PROPERTY
Coulomb
SciTegic.value.DoubleValue
-1.761

@<SCITEGIC>MOL_PROPERTY
VdW
SciTegic.value.DoubleValue
0.994

@<SCITEGIC>MOL_PROPERTY
VdW6
SciTegic.value.DoubleValue
-9.209

@<SCITEGIC>MOL_PROPERTY
VdW12
SciTegic.value.DoubleValue
10.203

@<SCITEGIC>MOL_PROPERTY
Bond
SciTegic.value.DoubleValue
0.193

@<SCITEGIC>MOL_PROPERTY
Angle
SciTegic.value.DoubleValue
2.979

@<SCITEGIC>MOL_PROPERTY
Pdih
SciTegic.value.DoubleValue
7.334

@<SCITEGIC>MOL_PROPERTY
Idih
SciTegic.value.DoubleValue
0.001

@<SCITEGIC>MOL_PROPERTY
Tether
SciTegic.value.DoubleValue
0.000

@<TRIPOS>MOLECULE
guest-8_confgen4.mol2 : confsearch ligand conformer 248
          25          24           1
SMALL
USER_CHARGES
 
@<TRIPOS>ATOM
       1    C1      20.291014   23.218892   23.069871 C.2        1 MOL1         0.6168
       2    O1      19.711728   23.510406   22.042184 O.co2      1 MOL1        -0.6703
       3    O2      20.903024   24.020233   23.748132 O.co2      1 MOL1        -0.6703
       4    C2      20.269176   21.762751   23.520643 C.3        1 MOL1        -0.1963
       5    H1      19.306661   21.335167   23.218224 H          1 MOL1         0.0750
       6    H2      20.303655   21.745424   24.616483 H          1 MOL1         0.0750
       7    C3      21.443490   20.936183   22.934967 C.3        1 MOL1        -0.1860
       8    H3      21.371230   20.922002   21.838652 H          1 MOL1         0.0752
       9    H4      22.387274   21.444321   23.176860 H          1 MOL1         0.0752
      10    C4      21.508815   19.487089   23.473494 C.3        1 MOL1        -0.1858
      11    H5      21.590720   19.504866   24.568915 H          1 MOL1         0.0752
      12    H6      22.429827   19.018547   23.100513 H          1 MOL1         0.0752
      13    C5      20.298078   18.620503   23.055954 C.3        1 MOL1        -0.1858
      14    H7      19.379816   19.043025   23.481274 H          1 MOL1         0.0752
      15    H8      20.188869   18.644756   21.963228 H          1 MOL1         0.0752
      16    C6      20.456873   17.156000   23.526294 C.3        1 MOL1        -0.1858
      17    H9      20.519226   17.124343   24.622650 H          1 MOL1         0.0752
      18    H10     21.409660   16.760197   23.148960 H          1 MOL1         0.0752
      19    C7      19.316325   16.228450   23.046067 C.3        1 MOL1        -0.1834
      20    H11     19.254621   16.253512   21.949312 H          1 MOL1         0.0752
      21    H12     19.565292   15.193696   23.319063 H          1 MOL1         0.0752
      22    C8      17.941416   16.584896   23.652000 C.3        1 MOL1        -0.2849
      23    H13     17.595487   17.568341   23.310159 H          1 MOL1         0.0764
      24    H14     17.187087   15.845579   23.353178 H          1 MOL1         0.0764
      25    H15     17.986591   16.597230   24.748774 H          1 MOL1         0.0764
@<TRIPOS>BOND
    1     1     2    1
    2     1     3    2
    3     1     4    1
    4     4     5    1
    5     4     6    1
    6     4     7    1
    7     7     8    1
    8     7     9    1
    9     7    10    1
   10    10    11    1
   11    10    12    1
   12    10    13    1
   13    13    14    1
   14    13    15    1
   15    13    16    1
   16    16    17    1
   17    16    18    1
   18    16    19    1
   19    19    20    1
   20    19    21    1
   21    19    22    1
   22    22    23    1
   23    22    24    1
   24    22    25    1
@<TRIPOS>SUBSTRUCTURE
       1 MOL1            1 RESIDUE      1      MOL     
@<SCITEGIC>MOL_PROPERTY
VConf Rank
SciTegic.value.IntegerValue
248

@<SCITEGIC>MOL_PROPERTY
Conf_Id
SciTegic.value.IntegerValue
4

@<SCITEGIC>MOL_PROPERTY
Delta U+W
SciTegic.value.DoubleValue
0.189

@<SCITEGIC>MOL_PROPERTY
U+W
SciTegic.value.DoubleValue
-51.441

@<SCITEGIC>MOL_PROPERTY
Grad RMS
SciTegic.value.DoubleValue
0.000000

@<SCITEGIC>MOL_PROPERTY
U
SciTegic.value.DoubleValue
7.701

@<SCITEGIC>MOL_PROPERTY
W
SciTegic.value.DoubleValue
-59.141

@<SCITEGIC>MOL_PROPERTY
W(PB)
SciTegic.value.DoubleValue
-61.609

@<SCITEGIC>MOL_PROPERTY
W(SA)
SciTegic.value.DoubleValue
2.467

@<SCITEGIC>MOL_PROPERTY
Valence
SciTegic.value.DoubleValue
8.550

@<SCITEGIC>MOL_PROPERTY
Coulomb
SciTegic.value.DoubleValue
-1.988

@<SCITEGIC>MOL_PROPERTY
VdW
SciTegic.value.DoubleValue
1.139

@<SCITEGIC>MOL_PROPERTY
VdW6
SciTegic.value.DoubleValue
-8.988

@<SCITEGIC>MOL_PROPERTY
VdW12
SciTegic.value.DoubleValue
10.127

@<SCITEGIC>MOL_PROPERTY
Bond
SciTegic.value.DoubleValue
0.191

@<SCITEGIC>MOL_PROPERTY
Angle
SciTegic.value.DoubleValue
2.738

@<SCITEGIC>MOL_PROPERTY
Pdih
SciTegic.value.DoubleValue
5.621

@<SCITEGIC>MOL_PROPERTY
Idih
SciTegic.value.DoubleValue
0.001

@<SCITEGIC>MOL_PROPERTY
Tether
SciTegic.value.DoubleValue
0.000

@<TRIPOS>MOLECULE
guest-8_confgen4.mol2 : confsearch ligand conformer 249
          25          24           1
SMALL
USER_CHARGES
 
@<TRIPOS>ATOM
       1    C1      23.719566   20.880215   23.901439 C.2        1 MOL1         0.6168
       2    O1      24.494386   19.944854   23.939499 O.co2      1 MOL1        -0.6703
       3    O2      24.069095   22.044067   23.897007 O.co2      1 MOL1        -0.6703
       4    C2      22.227233   20.576748   23.831653 C.3        1 MOL1        -0.1963
       5    H1      21.691549   21.384709   24.344095 H          1 MOL1         0.0750
       6    H2      22.047953   19.656279   24.398502 H          1 MOL1         0.0750
       7    C3      21.712294   20.432116   22.375920 C.3        1 MOL1        -0.1860
       8    H3      21.992159   21.332702   21.811946 H          1 MOL1         0.0752
       9    H4      22.222531   19.589981   21.888274 H          1 MOL1         0.0752
      10    C4      20.179770   20.242538   22.278016 C.3        1 MOL1        -0.1858
      11    H5      19.893113   20.268095   21.217787 H          1 MOL1         0.0752
      12    H6      19.672577   21.090869   22.757664 H          1 MOL1         0.0752
      13    C5      19.682625   18.918091   22.902420 C.3        1 MOL1        -0.1858
      14    H7      20.227119   18.074884   22.456223 H          1 MOL1         0.0752
      15    H8      19.903752   18.912598   23.976523 H          1 MOL1         0.0752
      16    C6      18.163663   18.722634   22.688520 C.3        1 MOL1        -0.1858
      17    H9      17.941445   18.792793   21.614955 H          1 MOL1         0.0752
      18    H10     17.613547   19.540204   23.174152 H          1 MOL1         0.0752
      19    C7      17.638626   17.364590   23.209933 C.3        1 MOL1        -0.1834
      20    H11     16.585935   17.256910   22.914173 H          1 MOL1         0.0752
      21    H12     18.183204   16.544271   22.722267 H          1 MOL1         0.0752
      22    C8      17.741247   17.216792   24.743625 C.3        1 MOL1        -0.2849
      23    H13     17.230406   18.044118   25.253216 H          1 MOL1         0.0764
      24    H14     17.274494   16.278714   25.070803 H          1 MOL1         0.0764
      25    H15     18.786776   17.200412   25.075720 H          1 MOL1         0.0764
@<TRIPOS>BOND
    1     1     2    1
    2     1     3    2
    3     1     4    1
    4     4     5    1
    5     4     6    1
    6     4     7    1
    7     7     8    1
    8     7     9    1
    9     7    10    1
   10    10    11    1
   11    10    12    1
   12    10    13    1
   13    13    14    1
   14    13    15    1
   15    13    16    1
   16    16    17    1
   17    16    18    1
   18    16    19    1
   19    19    20    1
   20    19    21    1
   21    19    22    1
   22    22    23    1
   23    22    24    1
   24    22    25    1
@<TRIPOS>SUBSTRUCTURE
       1 MOL1            1 RESIDUE      1      MOL     
@<SCITEGIC>MOL_PROPERTY
VConf Rank
SciTegic.value.IntegerValue
249

@<SCITEGIC>MOL_PROPERTY
Conf_Id
SciTegic.value.IntegerValue
17

@<SCITEGIC>MOL_PROPERTY
Delta U+W
SciTegic.value.DoubleValue
0.219

@<SCITEGIC>MOL_PROPERTY
U+W
SciTegic.value.DoubleValue
-51.411

@<SCITEGIC>MOL_PROPERTY
Grad RMS
SciTegic.value.DoubleValue
0.000000

@<SCITEGIC>MOL_PROPERTY
U
SciTegic.value.DoubleValue
7.701

@<SCITEGIC>MOL_PROPERTY
W
SciTegic.value.DoubleValue
-59.111

@<SCITEGIC>MOL_PROPERTY
W(PB)
SciTegic.value.DoubleValue
-61.599

@<SCITEGIC>MOL_PROPERTY
W(SA)
SciTegic.value.DoubleValue
2.488

@<SCITEGIC>MOL_PROPERTY
Valence
SciTegic.value.DoubleValue
8.550

@<SCITEGIC>MOL_PROPERTY
Coulomb
SciTegic.value.DoubleValue
-1.988

@<SCITEGIC>MOL_PROPERTY
VdW
SciTegic.value.DoubleValue
1.139

@<SCITEGIC>MOL_PROPERTY
VdW6
SciTegic.value.DoubleValue
-8.988

@<SCITEGIC>MOL_PROPERTY
VdW12
SciTegic.value.DoubleValue
10.127

@<SCITEGIC>MOL_PROPERTY
Bond
SciTegic.value.DoubleValue
0.191

@<SCITEGIC>MOL_PROPERTY
Angle
SciTegic.value.DoubleValue
2.738

@<SCITEGIC>MOL_PROPERTY
Pdih
SciTegic.value.DoubleValue
5.621

@<SCITEGIC>MOL_PROPERTY
Idih
SciTegic.value.DoubleValue
0.001

@<SCITEGIC>MOL_PROPERTY
Tether
SciTegic.value.DoubleValue
0.000

@<TRIPOS>MOLECULE
guest-8_confgen4.mol2 : confsearch ligand conformer 250
          25          24           1
SMALL
USER_CHARGES
 
@<TRIPOS>ATOM
       1    C1      16.477365   19.707123   22.022228 C.2        1 MOL1         0.6168
       2    O1      16.072418   18.642495   21.598380 O.co2      1 MOL1        -0.6703
       3    O2      16.665626   20.682386   21.321874 O.co2      1 MOL1        -0.6703
       4    C2      16.746496   19.834370   23.518994 C.3        1 MOL1        -0.1963
       5    H1      16.206564   19.035063   24.040871 H          1 MOL1         0.0750
       6    H2      16.308685   20.782776   23.851905 H          1 MOL1         0.0750
       7    C3      18.251100   19.798628   23.892878 C.3        1 MOL1        -0.1860
       8    H3      18.772559   20.594149   23.344340 H          1 MOL1         0.0752
       9    H4      18.358636   20.026292   24.961930 H          1 MOL1         0.0752
      10    C4      18.902705   18.427099   23.594434 C.3        1 MOL1        -0.1858
      11    H5      18.863223   18.221977   22.515691 H          1 MOL1         0.0752
      12    H6      18.312717   17.638239   24.080707 H          1 MOL1         0.0752
      13    C5      20.365799   18.320087   24.085991 C.3        1 MOL1        -0.1858
      14    H7      20.406597   18.516135   25.166153 H          1 MOL1         0.0752
      15    H8      20.704917   17.284701   23.945160 H          1 MOL1         0.0752
      16    C6      21.335130   19.271001   23.346269 C.3        1 MOL1        -0.1858
      17    H9      21.055408   20.314951   23.538238 H          1 MOL1         0.0752
      18    H10     21.251371   19.110282   22.262734 H          1 MOL1         0.0752
      19    C7      22.797444   19.051405   23.788041 C.3        1 MOL1        -0.1834
      20    H11     22.884263   19.209665   24.871958 H          1 MOL1         0.0752
      21    H12     23.091727   18.010907   23.592633 H          1 MOL1         0.0752
      22    C8      23.762348   20.002886   23.052266 C.3        1 MOL1        -0.2849
      23    H13     23.510961   21.052007   23.256062 H          1 MOL1         0.0764
      24    H14     24.796780   19.832832   23.377978 H          1 MOL1         0.0764
      25    H15     23.718362   19.844478   21.966746 H          1 MOL1         0.0764
@<TRIPOS>BOND
    1     1     2    1
    2     1     3    2
    3     1     4    1
    4     4     5    1
    5     4     6    1
    6     4     7    1
    7     7     8    1
    8     7     9    1
    9     7    10    1
   10    10    11    1
   11    10    12    1
   12    10    13    1
   13    13    14    1
   14    13    15    1
   15    13    16    1
   16    16    17    1
   17    16    18    1
   18    16    19    1
   19    19    20    1
   20    19    21    1
   21    19    22    1
   22    22    23    1
   23    22    24    1
   24    22    25    1
@<TRIPOS>SUBSTRUCTURE
       1 MOL1            1 RESIDUE      1      MOL     
@<SCITEGIC>MOL_PROPERTY
VConf Rank
SciTegic.value.IntegerValue
250

@<SCITEGIC>MOL_PROPERTY
Conf_Id
SciTegic.value.IntegerValue
142

@<SCITEGIC>MOL_PROPERTY
Delta U+W
SciTegic.value.DoubleValue
0.593

@<SCITEGIC>MOL_PROPERTY
U+W
SciTegic.value.DoubleValue
-51.037

@<SCITEGIC>MOL_PROPERTY
Grad RMS
SciTegic.value.DoubleValue
0.000000

@<SCITEGIC>MOL_PROPERTY
U
SciTegic.value.DoubleValue
8.903

@<SCITEGIC>MOL_PROPERTY
W
SciTegic.value.DoubleValue
-59.940

@<SCITEGIC>MOL_PROPERTY
W(PB)
SciTegic.value.DoubleValue
-62.418

@<SCITEGIC>MOL_PROPERTY
W(SA)
SciTegic.value.DoubleValue
2.478

@<SCITEGIC>MOL_PROPERTY
Valence
SciTegic.value.DoubleValue
8.305

@<SCITEGIC>MOL_PROPERTY
Coulomb
SciTegic.value.DoubleValue
-0.223

@<SCITEGIC>MOL_PROPERTY
VdW
SciTegic.value.DoubleValue
0.821

@<SCITEGIC>MOL_PROPERTY
VdW6
SciTegic.value.DoubleValue
-9.236

@<SCITEGIC>MOL_PROPERTY
VdW12
SciTegic.value.DoubleValue
10.057

@<SCITEGIC>MOL_PROPERTY
Bond
SciTegic.value.DoubleValue
0.173

@<SCITEGIC>MOL_PROPERTY
Angle
SciTegic.value.DoubleValue
2.663

@<SCITEGIC>MOL_PROPERTY
Pdih
SciTegic.value.DoubleValue
5.469

@<SCITEGIC>MOL_PROPERTY
Idih
SciTegic.value.DoubleValue
0.001

@<SCITEGIC>MOL_PROPERTY
Tether
SciTegic.value.DoubleValue
0.000

@<TRIPOS>MOLECULE
guest-8_confgen4.mol2 : confsearch ligand conformer 251
          25          24           1
SMALL
USER_CHARGES
 
@<TRIPOS>ATOM
       1    C1      17.422326   20.582197   21.854939 C.2        1 MOL1         0.6168
       2    O1      17.154168   21.453619   21.051027 O.co2      1 MOL1        -0.6703
       3    O2      16.902813   19.483489   21.853338 O.co2      1 MOL1        -0.6703
       4    C2      18.447227   20.897252   22.940875 C.3        1 MOL1        -0.1963
       5    H1      18.370670   20.137717   23.727351 H          1 MOL1         0.0750
       6    H2      18.155031   21.849215   23.399030 H          1 MOL1         0.0750
       7    C3      19.907632   21.002492   22.422923 C.3        1 MOL1        -0.1860
       8    H3      19.962423   21.817321   21.687920 H          1 MOL1         0.0752
       9    H4      20.564339   21.300004   23.250611 H          1 MOL1         0.0752
      10    C4      20.449626   19.706258   21.766672 C.3        1 MOL1        -0.1858
      11    H5      21.479882   19.885460   21.430431 H          1 MOL1         0.0752
      12    H6      19.868606   19.495538   20.858323 H          1 MOL1         0.0752
      13    C5      20.428544   18.448004   22.670375 C.3        1 MOL1        -0.1858
      14    H7      19.392207   18.188247   22.924710 H          1 MOL1         0.0752
      15    H8      20.819380   17.600616   22.090967 H          1 MOL1         0.0752
      16    C6      21.263524   18.600938   23.962693 C.3        1 MOL1        -0.1858
      17    H9      20.840572   19.397817   24.588152 H          1 MOL1         0.0752
      18    H10     22.287439   18.903666   23.704566 H          1 MOL1         0.0752
      19    C7      21.302335   17.289516   24.775160 C.3        1 MOL1        -0.1834
      20    H11     20.278728   16.983481   25.032155 H          1 MOL1         0.0752
      21    H12     21.731475   16.485496   24.161349 H          1 MOL1         0.0752
      22    C8      22.130307   17.445385   26.066616 C.3        1 MOL1        -0.2849
      23    H13     21.704065   18.222067   26.715036 H          1 MOL1         0.0764
      24    H14     22.147307   16.504173   26.631298 H          1 MOL1         0.0764
      25    H15     23.167716   17.721794   25.836975 H          1 MOL1         0.0764
@<TRIPOS>BOND
    1     1     2    1
    2     1     3    2
    3     1     4    1
    4     4     5    1
    5     4     6    1
    6     4     7    1
    7     7     8    1
    8     7     9    1
    9     7    10    1
   10    10    11    1
   11    10    12    1
   12    10    13    1
   13    13    14    1
   14    13    15    1
   15    13    16    1
   16    16    17    1
   17    16    18    1
   18    16    19    1
   19    19    20    1
   20    19    21    1
   21    19    22    1
   22    22    23    1
   23    22    24    1
   24    22    25    1
@<TRIPOS>SUBSTRUCTURE
       1 MOL1            1 RESIDUE      1      MOL     
@<SCITEGIC>MOL_PROPERTY
VConf Rank
SciTegic.value.IntegerValue
251

@<SCITEGIC>MOL_PROPERTY
Conf_Id
SciTegic.value.IntegerValue
135

@<SCITEGIC>MOL_PROPERTY
Delta U+W
SciTegic.value.DoubleValue
1.314

@<SCITEGIC>MOL_PROPERTY
U+W
SciTegic.value.DoubleValue
-50.316

@<SCITEGIC>MOL_PROPERTY
Grad RMS
SciTegic.value.DoubleValue
0.000000

@<SCITEGIC>MOL_PROPERTY
U
SciTegic.value.DoubleValue
9.773

@<SCITEGIC>MOL_PROPERTY
W
SciTegic.value.DoubleValue
-60.088

@<SCITEGIC>MOL_PROPERTY
W(PB)
SciTegic.value.DoubleValue
-62.535

@<SCITEGIC>MOL_PROPERTY
W(SA)
SciTegic.value.DoubleValue
2.447

@<SCITEGIC>MOL_PROPERTY
Valence
SciTegic.value.DoubleValue
8.741

@<SCITEGIC>MOL_PROPERTY
Coulomb
SciTegic.value.DoubleValue
0.479

@<SCITEGIC>MOL_PROPERTY
VdW
SciTegic.value.DoubleValue
0.552

@<SCITEGIC>MOL_PROPERTY
VdW6
SciTegic.value.DoubleValue
-10.627

@<SCITEGIC>MOL_PROPERTY
VdW12
SciTegic.value.DoubleValue
11.179

@<SCITEGIC>MOL_PROPERTY
Bond
SciTegic.value.DoubleValue
0.227

@<SCITEGIC>MOL_PROPERTY
Angle
SciTegic.value.DoubleValue
3.155

@<SCITEGIC>MOL_PROPERTY
Pdih
SciTegic.value.DoubleValue
5.358

@<SCITEGIC>MOL_PROPERTY
Idih
SciTegic.value.DoubleValue
0.001

@<SCITEGIC>MOL_PROPERTY
Tether
SciTegic.value.DoubleValue
0.000

@<TRIPOS>MOLECULE
guest-8_confgen4.mol2 : confsearch ligand conformer 252
          25          24           1
SMALL
USER_CHARGES
 
@<TRIPOS>ATOM
       1    C1      18.075256   17.388640   20.032142 C.2        1 MOL1         0.6168
       2    O1      17.742316   18.172905   19.165644 O.co2      1 MOL1        -0.6703
       3    O2      18.171635   16.190350   19.854420 O.co2      1 MOL1        -0.6703
       4    C2      18.412680   17.941031   21.412428 C.3        1 MOL1        -0.1963
       5    H1      18.145021   17.181768   22.156892 H          1 MOL1         0.0750
       6    H2      17.769693   18.810376   21.588437 H          1 MOL1         0.0750
       7    C3      19.908591   18.325622   21.554436 C.3        1 MOL1        -0.1860
       8    H3      20.521174   17.456960   21.275839 H          1 MOL1         0.0752
       9    H4      20.154413   19.120657   20.836959 H          1 MOL1         0.0752
      10    C4      20.303248   18.769140   22.983586 C.3        1 MOL1        -0.1858
      11    H5      21.395733   18.866170   23.015999 H          1 MOL1         0.0752
      12    H6      20.033638   17.983368   23.702231 H          1 MOL1         0.0752
      13    C5      19.665725   20.112964   23.410394 C.3        1 MOL1        -0.1858
      14    H7      19.988227   20.904545   22.720477 H          1 MOL1         0.0752
      15    H8      18.574645   20.047939   23.316635 H          1 MOL1         0.0752
      16    C6      19.989896   20.535664   24.865628 C.3        1 MOL1        -0.1858
      17    H9      19.588000   19.795163   25.570642 H          1 MOL1         0.0752
      18    H10     19.443205   21.466767   25.068234 H          1 MOL1         0.0752
      19    C7      21.491835   20.787624   25.150050 C.3        1 MOL1        -0.1834
      20    H11     22.010857   21.081202   24.227194 H          1 MOL1         0.0752
      21    H12     21.581530   21.641883   25.835249 H          1 MOL1         0.0752
      22    C8      22.198255   19.577348   25.800796 C.3        1 MOL1        -0.2849
      23    H13     22.153989   18.687319   25.162825 H          1 MOL1         0.0764
      24    H14     23.255851   19.804483   25.987099 H          1 MOL1         0.0764
      25    H15     21.734302   19.326489   26.763552 H          1 MOL1         0.0764
@<TRIPOS>BOND
    1     1     2    1
    2     1     3    2
    3     1     4    1
    4     4     5    1
    5     4     6    1
    6     4     7    1
    7     7     8    1
    8     7     9    1
    9     7    10    1
   10    10    11    1
   11    10    12    1
   12    10    13    1
   13    13    14    1
   14    13    15    1
   15    13    16    1
   16    16    17    1
   17    16    18    1
   18    16    19    1
   19    19    20    1
   20    19    21    1
   21    19    22    1
   22    22    23    1
   23    22    24    1
   24    22    25    1
@<TRIPOS>SUBSTRUCTURE
       1 MOL1            1 RESIDUE      1      MOL     
@<SCITEGIC>MOL_PROPERTY
VConf Rank
SciTegic.value.IntegerValue
252

@<SCITEGIC>MOL_PROPERTY
Conf_Id
SciTegic.value.IntegerValue
19

@<SCITEGIC>MOL_PROPERTY
Delta U+W
SciTegic.value.DoubleValue
3.222

@<SCITEGIC>MOL_PROPERTY
U+W
SciTegic.value.DoubleValue
-48.407

@<SCITEGIC>MOL_PROPERTY
Grad RMS
SciTegic.value.DoubleValue
0.000000

@<SCITEGIC>MOL_PROPERTY
U
SciTegic.value.DoubleValue
10.617

@<SCITEGIC>MOL_PROPERTY
W
SciTegic.value.DoubleValue
-59.025

@<SCITEGIC>MOL_PROPERTY
W(PB)
SciTegic.value.DoubleValue
-61.462

@<SCITEGIC>MOL_PROPERTY
W(SA)
SciTegic.value.DoubleValue
2.437

@<SCITEGIC>MOL_PROPERTY
Valence
SciTegic.value.DoubleValue
11.188

@<SCITEGIC>MOL_PROPERTY
Coulomb
SciTegic.value.DoubleValue
-1.778

@<SCITEGIC>MOL_PROPERTY
VdW
SciTegic.value.DoubleValue
1.208

@<SCITEGIC>MOL_PROPERTY
VdW6
SciTegic.value.DoubleValue
-9.786

@<SCITEGIC>MOL_PROPERTY
VdW12
SciTegic.value.DoubleValue
10.993

@<SCITEGIC>MOL_PROPERTY
Bond
SciTegic.value.DoubleValue
0.241

@<SCITEGIC>MOL_PROPERTY
Angle
SciTegic.value.DoubleValue
3.294

@<SCITEGIC>MOL_PROPERTY
Pdih
SciTegic.value.DoubleValue
7.653

@<SCITEGIC>MOL_PROPERTY
Idih
SciTegic.value.DoubleValue
0.001

@<SCITEGIC>MOL_PROPERTY
Tether
SciTegic.value.DoubleValue
0.000

@<TRIPOS>MOLECULE
guest-8_confgen4.mol2 : confsearch ligand conformer 253
          25          24           1
SMALL
USER_CHARGES
 
@<TRIPOS>ATOM
       1    C1      18.782861   19.236652   27.262530 C.2        1 MOL1         0.6168
       2    O1      19.629358   18.872316   28.054644 O.co2      1 MOL1        -0.6703
       3    O2      17.592992   19.252680   27.508951 O.co2      1 MOL1        -0.6703
       4    C2      19.236533   19.675871   25.874924 C.3        1 MOL1        -0.1963
       5    H1      20.218907   20.148998   25.981063 H          1 MOL1         0.0750
       6    H2      18.541336   20.445021   25.517912 H          1 MOL1         0.0750
       7    C3      19.298498   18.500322   24.864937 C.3        1 MOL1        -0.1860
       8    H3      20.032961   17.758403   25.207578 H          1 MOL1         0.0752
       9    H4      18.324353   17.991933   24.859535 H          1 MOL1         0.0752
      10    C4      19.633087   18.940004   23.419369 C.3        1 MOL1        -0.1858
      11    H5      18.912630   19.700086   23.088012 H          1 MOL1         0.0752
      12    H6      19.499384   18.070311   22.763819 H          1 MOL1         0.0752
      13    C5      21.075357   19.476349   23.256103 C.3        1 MOL1        -0.1858
      14    H7      21.240759   20.304193   23.956670 H          1 MOL1         0.0752
      15    H8      21.790118   18.689723   23.533468 H          1 MOL1         0.0752
      16    C6      21.403992   19.990793   21.831736 C.3        1 MOL1        -0.1858
      17    H9      22.426342   20.392275   21.853714 H          1 MOL1         0.0752
      18    H10     20.755633   20.841259   21.580252 H          1 MOL1         0.0752
      19    C7      21.333206   18.914611   20.719520 C.3        1 MOL1        -0.1834
      20    H11     22.141855   19.099751   19.999026 H          1 MOL1         0.0752
      21    H12     21.522512   17.917631   21.140744 H          1 MOL1         0.0752
      22    C8      19.994558   18.925481   19.948049 C.3        1 MOL1        -0.2849
      23    H13     19.835097   19.894559   19.457599 H          1 MOL1         0.0764
      24    H14     19.993426   18.151402   19.169842 H          1 MOL1         0.0764
      25    H15     19.140891   18.737349   20.609092 H          1 MOL1         0.0764
@<TRIPOS>BOND
    1     1     2    1
    2     1     3    2
    3     1     4    1
    4     4     5    1
    5     4     6    1
    6     4     7    1
    7     7     8    1
    8     7     9    1
    9     7    10    1
   10    10    11    1
   11    10    12    1
   12    10    13    1
   13    13    14    1
   14    13    15    1
   15    13    16    1
   16    16    17    1
   17    16    18    1
   18    16    19    1
   19    19    20    1
   20    19    21    1
   21    19    22    1
   22    22    23    1
   23    22    24    1
   24    22    25    1
@<TRIPOS>SUBSTRUCTURE
       1 MOL1            1 RESIDUE      1      MOL     
@<SCITEGIC>MOL_PROPERTY
VConf Rank
SciTegic.value.IntegerValue
253

@<SCITEGIC>MOL_PROPERTY
Conf_Id
SciTegic.value.IntegerValue
20

@<SCITEGIC>MOL_PROPERTY
Delta U+W
SciTegic.value.DoubleValue
3.224

@<SCITEGIC>MOL_PROPERTY
U+W
SciTegic.value.DoubleValue
-48.406

@<SCITEGIC>MOL_PROPERTY
Grad RMS
SciTegic.value.DoubleValue
0.000000

@<SCITEGIC>MOL_PROPERTY
U
SciTegic.value.DoubleValue
10.617

@<SCITEGIC>MOL_PROPERTY
W
SciTegic.value.DoubleValue
-59.023

@<SCITEGIC>MOL_PROPERTY
W(PB)
SciTegic.value.DoubleValue
-61.467

@<SCITEGIC>MOL_PROPERTY
W(SA)
SciTegic.value.DoubleValue
2.444

@<SCITEGIC>MOL_PROPERTY
Valence
SciTegic.value.DoubleValue
11.188

@<SCITEGIC>MOL_PROPERTY
Coulomb
SciTegic.value.DoubleValue
-1.778

@<SCITEGIC>MOL_PROPERTY
VdW
SciTegic.value.DoubleValue
1.208

@<SCITEGIC>MOL_PROPERTY
VdW6
SciTegic.value.DoubleValue
-9.786

@<SCITEGIC>MOL_PROPERTY
VdW12
SciTegic.value.DoubleValue
10.993

@<SCITEGIC>MOL_PROPERTY
Bond
SciTegic.value.DoubleValue
0.241

@<SCITEGIC>MOL_PROPERTY
Angle
SciTegic.value.DoubleValue
3.294

@<SCITEGIC>MOL_PROPERTY
Pdih
SciTegic.value.DoubleValue
7.653

@<SCITEGIC>MOL_PROPERTY
Idih
SciTegic.value.DoubleValue
0.001

@<SCITEGIC>MOL_PROPERTY
Tether
SciTegic.value.DoubleValue
0.000

@<TRIPOS>MOLECULE
guest-8_confgen4.mol2 : confsearch ligand conformer 254
          25          24           1
SMALL
USER_CHARGES
 
@<TRIPOS>ATOM
       1    C1      20.314160   20.205661   26.599665 C.2        1 MOL1         0.6168
       2    O1      19.638057   19.460657   27.281940 O.co2      1 MOL1        -0.6703
       3    O2      19.985072   21.341508   26.319004 O.co2      1 MOL1        -0.6703
       4    C2      21.679734   19.713559   26.123816 C.3        1 MOL1        -0.1963
       5    H1      22.276614   19.540760   27.026779 H          1 MOL1         0.0750
       6    H2      22.175663   20.519362   25.569266 H          1 MOL1         0.0750
       7    C3      21.656781   18.410832   25.275592 C.3        1 MOL1        -0.1860
       8    H3      22.660757   17.966614   25.309245 H          1 MOL1         0.0752
       9    H4      20.985161   17.674371   25.738352 H          1 MOL1         0.0752
      10    C4      21.279606   18.611540   23.786787 C.3        1 MOL1        -0.1858
      11    H5      21.443929   17.660818   23.261328 H          1 MOL1         0.0752
      12    H6      21.961884   19.339791   23.327458 H          1 MOL1         0.0752
      13    C5      19.816820   19.056768   23.561720 C.3        1 MOL1        -0.1858
      14    H7      19.139050   18.387122   24.108757 H          1 MOL1         0.0752
      15    H8      19.667882   20.065762   23.966383 H          1 MOL1         0.0752
      16    C6      19.444450   19.058667   22.063085 C.3        1 MOL1        -0.1858
      17    H9      19.581729   18.050578   21.648505 H          1 MOL1         0.0752
      18    H10     20.126242   19.725006   21.517022 H          1 MOL1         0.0752
      19    C7      17.987526   19.514046   21.836424 C.3        1 MOL1        -0.1834
      20    H11     17.302857   18.848953   22.380794 H          1 MOL1         0.0752
      21    H12     17.846795   20.523021   22.248455 H          1 MOL1         0.0752
      22    C8      17.618744   19.515483   20.339205 C.3        1 MOL1        -0.2849
      23    H13     17.720460   18.510663   19.908669 H          1 MOL1         0.0764
      24    H14     16.580279   19.841662   20.196860 H          1 MOL1         0.0764
      25    H15     18.268559   20.197516   19.775339 H          1 MOL1         0.0764
@<TRIPOS>BOND
    1     1     2    1
    2     1     3    2
    3     1     4    1
    4     4     5    1
    5     4     6    1
    6     4     7    1
    7     7     8    1
    8     7     9    1
    9     7    10    1
   10    10    11    1
   11    10    12    1
   12    10    13    1
   13    13    14    1
   14    13    15    1
   15    13    16    1
   16    16    17    1
   17    16    18    1
   18    16    19    1
   19    19    20    1
   20    19    21    1
   21    19    22    1
   22    22    23    1
   23    22    24    1
   24    22    25    1
@<TRIPOS>SUBSTRUCTURE
       1 MOL1            1 RESIDUE      1      MOL     
@<SCITEGIC>MOL_PROPERTY
VConf Rank
SciTegic.value.IntegerValue
254

@<SCITEGIC>MOL_PROPERTY
Conf_Id
SciTegic.value.IntegerValue
24

@<SCITEGIC>MOL_PROPERTY
Delta U+W
SciTegic.value.DoubleValue
1.784

@<SCITEGIC>MOL_PROPERTY
U+W
SciTegic.value.DoubleValue
-49.846

@<SCITEGIC>MOL_PROPERTY
Grad RMS
SciTegic.value.DoubleValue
0.000000

@<SCITEGIC>MOL_PROPERTY
U
SciTegic.value.DoubleValue
10.904

@<SCITEGIC>MOL_PROPERTY
W
SciTegic.value.DoubleValue
-60.749

@<SCITEGIC>MOL_PROPERTY
W(PB)
SciTegic.value.DoubleValue
-63.220

@<SCITEGIC>MOL_PROPERTY
W(SA)
SciTegic.value.DoubleValue
2.471

@<SCITEGIC>MOL_PROPERTY
Valence
SciTegic.value.DoubleValue
9.445

@<SCITEGIC>MOL_PROPERTY
Coulomb
SciTegic.value.DoubleValue
0.780

@<SCITEGIC>MOL_PROPERTY
VdW
SciTegic.value.DoubleValue
0.679

@<SCITEGIC>MOL_PROPERTY
VdW6
SciTegic.value.DoubleValue
-10.008

@<SCITEGIC>MOL_PROPERTY
VdW12
SciTegic.value.DoubleValue
10.687

@<SCITEGIC>MOL_PROPERTY
Bond
SciTegic.value.DoubleValue
0.201

@<SCITEGIC>MOL_PROPERTY
Angle
SciTegic.value.DoubleValue
3.198

@<SCITEGIC>MOL_PROPERTY
Pdih
SciTegic.value.DoubleValue
6.039

@<SCITEGIC>MOL_PROPERTY
Idih
SciTegic.value.DoubleValue
0.006

@<SCITEGIC>MOL_PROPERTY
Tether
SciTegic.value.DoubleValue
0.000

@<TRIPOS>MOLECULE
guest-8_confgen4.mol2 : confsearch ligand conformer 255
          25          24           1
SMALL
USER_CHARGES
 
@<TRIPOS>ATOM
       1    C1      22.791315   19.060992   25.383627 C.2        1 MOL1         0.6168
       2    O1      22.536866   18.408297   26.377050 O.co2      1 MOL1        -0.6703
       3    O2      23.461709   18.642899   24.460053 O.co2      1 MOL1        -0.6703
       4    C2      22.299735   20.505872   25.319905 C.3        1 MOL1        -0.1963
       5    H1      22.655736   20.962827   24.388648 H          1 MOL1         0.0750
       6    H2      22.796962   21.036798   26.139874 H          1 MOL1         0.0750
       7    C3      20.762064   20.690064   25.456819 C.3        1 MOL1        -0.1860
       8    H3      20.380463   20.059681   26.272045 H          1 MOL1         0.0752
       9    H4      20.570766   21.727484   25.762750 H          1 MOL1         0.0752
      10    C4      19.957975   20.425026   24.159792 C.3        1 MOL1        -0.1858
      11    H5      20.336482   21.066754   23.352480 H          1 MOL1         0.0752
      12    H6      18.917189   20.730431   24.334367 H          1 MOL1         0.0752
      13    C5      19.971937   18.949550   23.700008 C.3        1 MOL1        -0.1858
      14    H7      20.986374   18.663988   23.394429 H          1 MOL1         0.0752
      15    H8      19.693461   18.298674   24.540162 H          1 MOL1         0.0752
      16    C6      19.007329   18.710388   22.518101 C.3        1 MOL1        -0.1858
      17    H9      19.284330   19.365530   21.680790 H          1 MOL1         0.0752
      18    H10     17.985973   18.985135   22.815276 H          1 MOL1         0.0752
      19    C7      19.029062   17.239839   22.050784 C.3        1 MOL1        -0.1834
      20    H11     20.049070   16.961838   21.750944 H          1 MOL1         0.0752
      21    H12     18.751715   16.581858   22.886006 H          1 MOL1         0.0752
      22    C8      18.065332   17.004116   20.870391 C.3        1 MOL1        -0.2849
      23    H13     18.339288   17.627542   20.009194 H          1 MOL1         0.0764
      24    H14     18.093850   15.954115   20.551411 H          1 MOL1         0.0764
      25    H15     17.032027   17.244604   21.152912 H          1 MOL1         0.0764
@<TRIPOS>BOND
    1     1     2    1
    2     1     3    2
    3     1     4    1
    4     4     5    1
    5     4     6    1
    6     4     7    1
    7     7     8    1
    8     7     9    1
    9     7    10    1
   10    10    11    1
   11    10    12    1
   12    10    13    1
   13    13    14    1
   14    13    15    1
   15    13    16    1
   16    16    17    1
   17    16    18    1
   18    16    19    1
   19    19    20    1
   20    19    21    1
   21    19    22    1
   22    22    23    1
   23    22    24    1
   24    22    25    1
@<TRIPOS>SUBSTRUCTURE
       1 MOL1            1 RESIDUE      1      MOL     
@<SCITEGIC>MOL_PROPERTY
VConf Rank
SciTegic.value.IntegerValue
255

@<SCITEGIC>MOL_PROPERTY
Conf_Id
SciTegic.value.IntegerValue
9

@<SCITEGIC>MOL_PROPERTY
Delta U+W
SciTegic.value.DoubleValue
1.764

@<SCITEGIC>MOL_PROPERTY
U+W
SciTegic.value.DoubleValue
-49.865

@<SCITEGIC>MOL_PROPERTY
Grad RMS
SciTegic.value.DoubleValue
0.000000

@<SCITEGIC>MOL_PROPERTY
U
SciTegic.value.DoubleValue
10.902

@<SCITEGIC>MOL_PROPERTY
W
SciTegic.value.DoubleValue
-60.768

@<SCITEGIC>MOL_PROPERTY
W(PB)
SciTegic.value.DoubleValue
-63.223

@<SCITEGIC>MOL_PROPERTY
W(SA)
SciTegic.value.DoubleValue
2.456

@<SCITEGIC>MOL_PROPERTY
Valence
SciTegic.value.DoubleValue
9.445

@<SCITEGIC>MOL_PROPERTY
Coulomb
SciTegic.value.DoubleValue
0.778

@<SCITEGIC>MOL_PROPERTY
VdW
SciTegic.value.DoubleValue
0.679

@<SCITEGIC>MOL_PROPERTY
VdW6
SciTegic.value.DoubleValue
-10.007

@<SCITEGIC>MOL_PROPERTY
VdW12
SciTegic.value.DoubleValue
10.687

@<SCITEGIC>MOL_PROPERTY
Bond
SciTegic.value.DoubleValue
0.201

@<SCITEGIC>MOL_PROPERTY
Angle
SciTegic.value.DoubleValue
3.198

@<SCITEGIC>MOL_PROPERTY
Pdih
SciTegic.value.DoubleValue
6.040

@<SCITEGIC>MOL_PROPERTY
Idih
SciTegic.value.DoubleValue
0.006

@<SCITEGIC>MOL_PROPERTY
Tether
SciTegic.value.DoubleValue
0.000

@<TRIPOS>MOLECULE
guest-8_confgen4.mol2 : confsearch ligand conformer 256
          25          24           1
SMALL
USER_CHARGES
 
@<TRIPOS>ATOM
       1    C1      20.600387   20.955482   26.574864 C.2        1 MOL1         0.6168
       2    O1      20.306922   22.020707   26.069119 O.co2      1 MOL1        -0.6703
       3    O2      20.674585   20.777537   27.774730 O.co2      1 MOL1        -0.6703
       4    C2      20.870583   19.771159   25.653946 C.3        1 MOL1        -0.1963
       5    H1      21.627958   19.137988   26.131161 H          1 MOL1         0.0750
       6    H2      21.314134   20.158857   24.731767 H          1 MOL1         0.0750
       7    C3      19.594436   18.940496   25.355457 C.3        1 MOL1        -0.1860
       8    H3      19.199293   18.573199   26.312740 H          1 MOL1         0.0752
       9    H4      18.813487   19.586136   24.930389 H          1 MOL1         0.0752
      10    C4      19.850601   17.726144   24.427008 C.3        1 MOL1        -0.1858
      11    H5      19.192115   16.907078   24.747078 H          1 MOL1         0.0752
      12    H6      20.875584   17.353857   24.559875 H          1 MOL1         0.0752
      13    C5      19.569116   17.989111   22.926217 C.3        1 MOL1        -0.1858
      14    H7      19.701196   17.045265   22.380086 H          1 MOL1         0.0752
      15    H8      18.515429   18.272304   22.803863 H          1 MOL1         0.0752
      16    C6      20.476260   19.068305   22.289347 C.3        1 MOL1        -0.1858
      17    H9      21.522414   18.857786   22.549423 H          1 MOL1         0.0752
      18    H10     20.234608   20.052538   22.711412 H          1 MOL1         0.0752
      19    C7      20.355433   19.137801   20.749183 C.3        1 MOL1        -0.1834
      20    H11     21.097436   19.853340   20.368921 H          1 MOL1         0.0752
      21    H12     20.612332   18.162970   20.312216 H          1 MOL1         0.0752
      22    C8      18.953643   19.569812   20.266817 C.3        1 MOL1        -0.2849
      23    H13     18.664488   20.531071   20.711244 H          1 MOL1         0.0764
      24    H14     18.941378   19.684485   19.175236 H          1 MOL1         0.0764
      25    H15     18.192536   18.825181   20.531605 H          1 MOL1         0.0764
@<TRIPOS>BOND
    1     1     2    1
    2     1     3    2
    3     1     4    1
    4     4     5    1
    5     4     6    1
    6     4     7    1
    7     7     8    1
    8     7     9    1
    9     7    10    1
   10    10    11    1
   11    10    12    1
   12    10    13    1
   13    13    14    1
   14    13    15    1
   15    13    16    1
   16    16    17    1
   17    16    18    1
   18    16    19    1
   19    19    20    1
   20    19    21    1
   21    19    22    1
   22    22    23    1
   23    22    24    1
   24    22    25    1
@<TRIPOS>SUBSTRUCTURE
       1 MOL1            1 RESIDUE      1      MOL     
@<SCITEGIC>MOL_PROPERTY
VConf Rank
SciTegic.value.IntegerValue
256

@<SCITEGIC>MOL_PROPERTY
Conf_Id
SciTegic.value.IntegerValue
89

@<SCITEGIC>MOL_PROPERTY
Delta U+W
SciTegic.value.DoubleValue
2.903

@<SCITEGIC>MOL_PROPERTY
U+W
SciTegic.value.DoubleValue
-48.726

@<SCITEGIC>MOL_PROPERTY
Grad RMS
SciTegic.value.DoubleValue
0.000000

@<SCITEGIC>MOL_PROPERTY
U
SciTegic.value.DoubleValue
10.996

@<SCITEGIC>MOL_PROPERTY
W
SciTegic.value.DoubleValue
-59.723

@<SCITEGIC>MOL_PROPERTY
W(PB)
SciTegic.value.DoubleValue
-62.151

@<SCITEGIC>MOL_PROPERTY
W(SA)
SciTegic.value.DoubleValue
2.428

@<SCITEGIC>MOL_PROPERTY
Valence
SciTegic.value.DoubleValue
10.985

@<SCITEGIC>MOL_PROPERTY
Coulomb
SciTegic.value.DoubleValue
-0.995

@<SCITEGIC>MOL_PROPERTY
VdW
SciTegic.value.DoubleValue
1.006

@<SCITEGIC>MOL_PROPERTY
VdW6
SciTegic.value.DoubleValue
-10.062

@<SCITEGIC>MOL_PROPERTY
VdW12
SciTegic.value.DoubleValue
11.069

@<SCITEGIC>MOL_PROPERTY
Bond
SciTegic.value.DoubleValue
0.238

@<SCITEGIC>MOL_PROPERTY
Angle
SciTegic.value.DoubleValue
3.202

@<SCITEGIC>MOL_PROPERTY
Pdih
SciTegic.value.DoubleValue
7.544

@<SCITEGIC>MOL_PROPERTY
Idih
SciTegic.value.DoubleValue
0.001

@<SCITEGIC>MOL_PROPERTY
Tether
SciTegic.value.DoubleValue
0.000

@<TRIPOS>MOLECULE
guest-8_confgen4.mol2 : confsearch ligand conformer 257
          25          24           1
SMALL
USER_CHARGES
 
@<TRIPOS>ATOM
       1    C1      17.611184   16.638545   23.902300 C.2        1 MOL1         0.6168
       2    O1      16.636537   17.352351   23.768870 O.co2      1 MOL1        -0.6703
       3    O2      17.892990   15.738390   23.135544 O.co2      1 MOL1        -0.6703
       4    C2      18.490630   16.843967   25.134220 C.3        1 MOL1        -0.1963
       5    H1      18.403477   15.928048   25.730018 H          1 MOL1         0.0750
       6    H2      18.070204   17.654397   25.741851 H          1 MOL1         0.0750
       7    C3      19.993255   17.114268   24.839882 C.3        1 MOL1        -0.1860
       8    H3      20.564770   16.862758   25.743518 H          1 MOL1         0.0752
       9    H4      20.351256   16.431172   24.057073 H          1 MOL1         0.0752
      10    C4      20.331217   18.578303   24.462631 C.3        1 MOL1        -0.1858
      11    H5      21.424005   18.674055   24.449776 H          1 MOL1         0.0752
      12    H6      19.971015   19.254999   25.249327 H          1 MOL1         0.0752
      13    C5      19.762534   19.023367   23.093361 C.3        1 MOL1        -0.1858
      14    H7      20.070218   18.314482   22.312604 H          1 MOL1         0.0752
      15    H8      18.666866   18.991167   23.129581 H          1 MOL1         0.0752
      16    C6      20.178765   20.457840   22.687882 C.3        1 MOL1        -0.1858
      17    H9      19.899696   21.161389   23.484101 H          1 MOL1         0.0752
      18    H10     19.599097   20.747956   21.800910 H          1 MOL1         0.0752
      19    C7      21.684146   20.600354   22.367011 C.3        1 MOL1        -0.1834
      20    H11     22.284993   20.395747   23.262472 H          1 MOL1         0.0752
      21    H12     21.973395   19.858244   21.610178 H          1 MOL1         0.0752
      22    C8      22.020631   22.014368   21.851804 C.3        1 MOL1        -0.2849
      23    H13     21.766027   22.775718   22.600730 H          1 MOL1         0.0764
      24    H14     23.092551   22.100805   21.631422 H          1 MOL1         0.0764
      25    H15     21.466438   22.239899   20.931289 H          1 MOL1         0.0764
@<TRIPOS>BOND
    1     1     2    1
    2     1     3    2
    3     1     4    1
    4     4     5    1
    5     4     6    1
    6     4     7    1
    7     7     8    1
    8     7     9    1
    9     7    10    1
   10    10    11    1
   11    10    12    1
   12    10    13    1
   13    13    14    1
   14    13    15    1
   15    13    16    1
   16    16    17    1
   17    16    18    1
   18    16    19    1
   19    19    20    1
   20    19    21    1
   21    19    22    1
   22    22    23    1
   23    22    24    1
   24    22    25    1
@<TRIPOS>SUBSTRUCTURE
       1 MOL1            1 RESIDUE      1      MOL     
@<SCITEGIC>MOL_PROPERTY
VConf Rank
SciTegic.value.IntegerValue
257

@<SCITEGIC>MOL_PROPERTY
Conf_Id
SciTegic.value.IntegerValue
114

@<SCITEGIC>MOL_PROPERTY
Delta U+W
SciTegic.value.DoubleValue
2.758

@<SCITEGIC>MOL_PROPERTY
U+W
SciTegic.value.DoubleValue
-48.871

@<SCITEGIC>MOL_PROPERTY
Grad RMS
SciTegic.value.DoubleValue
0.000000

@<SCITEGIC>MOL_PROPERTY
U
SciTegic.value.DoubleValue
11.422

@<SCITEGIC>MOL_PROPERTY
W
SciTegic.value.DoubleValue
-60.293

@<SCITEGIC>MOL_PROPERTY
W(PB)
SciTegic.value.DoubleValue
-62.719

@<SCITEGIC>MOL_PROPERTY
W(SA)
SciTegic.value.DoubleValue
2.425

@<SCITEGIC>MOL_PROPERTY
Valence
SciTegic.value.DoubleValue
10.135

@<SCITEGIC>MOL_PROPERTY
Coulomb
SciTegic.value.DoubleValue
0.369

@<SCITEGIC>MOL_PROPERTY
VdW
SciTegic.value.DoubleValue
0.918

@<SCITEGIC>MOL_PROPERTY
VdW6
SciTegic.value.DoubleValue
-10.482

@<SCITEGIC>MOL_PROPERTY
VdW12
SciTegic.value.DoubleValue
11.400

@<SCITEGIC>MOL_PROPERTY
Bond
SciTegic.value.DoubleValue
0.245

@<SCITEGIC>MOL_PROPERTY
Angle
SciTegic.value.DoubleValue
3.539

@<SCITEGIC>MOL_PROPERTY
Pdih
SciTegic.value.DoubleValue
6.346

@<SCITEGIC>MOL_PROPERTY
Idih
SciTegic.value.DoubleValue
0.006

@<SCITEGIC>MOL_PROPERTY
Tether
SciTegic.value.DoubleValue
0.000

@<TRIPOS>MOLECULE
guest-8_confgen4.mol2 : confsearch ligand conformer 258
          25          24           1
SMALL
USER_CHARGES
 
@<TRIPOS>ATOM
       1    C1      22.345225   17.457397   26.116245 C.2        1 MOL1         0.6168
       2    O1      21.675165   17.504804   27.129080 O.co2      1 MOL1        -0.6703
       3    O2      22.715022   16.420064   25.602155 O.co2      1 MOL1        -0.6703
       4    C2      22.763809   18.771991   25.463880 C.3        1 MOL1        -0.1963
       5    H1      23.827678   18.689544   25.212158 H          1 MOL1         0.0750
       6    H2      22.674523   19.574817   26.205685 H          1 MOL1         0.0750
       7    C3      21.955576   19.126944   24.188833 C.3        1 MOL1        -0.1860
       8    H3      22.404864   20.010755   23.716322 H          1 MOL1         0.0752
       9    H4      22.046040   18.301663   23.470464 H          1 MOL1         0.0752
      10    C4      20.465264   19.412295   24.493464 C.3        1 MOL1        -0.1858
      11    H5      20.403326   20.174404   25.282259 H          1 MOL1         0.0752
      12    H6      19.986904   18.509688   24.898151 H          1 MOL1         0.0752
      13    C5      19.666996   19.912421   23.265731 C.3        1 MOL1        -0.1858
      14    H7      18.673398   20.223980   23.611966 H          1 MOL1         0.0752
      15    H8      20.148740   20.809477   22.853741 H          1 MOL1         0.0752
      16    C6      19.512161   18.844711   22.154621 C.3        1 MOL1        -0.1858
      17    H9      19.033633   17.946519   22.568075 H          1 MOL1         0.0752
      18    H10     20.504942   18.535396   21.804232 H          1 MOL1         0.0752
      19    C7      18.707505   19.343130   20.931288 C.3        1 MOL1        -0.1834
      20    H11     19.176866   20.248411   20.522076 H          1 MOL1         0.0752
      21    H12     18.762151   18.581637   20.141109 H          1 MOL1         0.0752
      22    C8      17.221819   19.623679   21.245832 C.3        1 MOL1        -0.2849
      23    H13     16.677421   19.880149   20.327814 H          1 MOL1         0.0764
      24    H14     16.740573   18.741939   21.688607 H          1 MOL1         0.0764
      25    H15     17.110212   20.463705   21.942472 H          1 MOL1         0.0764
@<TRIPOS>BOND
    1     1     2    1
    2     1     3    2
    3     1     4    1
    4     4     5    1
    5     4     6    1
    6     4     7    1
    7     7     8    1
    8     7     9    1
    9     7    10    1
   10    10    11    1
   11    10    12    1
   12    10    13    1
   13    13    14    1
   14    13    15    1
   15    13    16    1
   16    16    17    1
   17    16    18    1
   18    16    19    1
   19    19    20    1
   20    19    21    1
   21    19    22    1
   22    22    23    1
   23    22    24    1
   24    22    25    1
@<TRIPOS>SUBSTRUCTURE
       1 MOL1            1 RESIDUE      1      MOL     
@<SCITEGIC>MOL_PROPERTY
VConf Rank
SciTegic.value.IntegerValue
258

@<SCITEGIC>MOL_PROPERTY
Conf_Id
SciTegic.value.IntegerValue
87

@<SCITEGIC>MOL_PROPERTY
Delta U+W
SciTegic.value.DoubleValue
1.453

@<SCITEGIC>MOL_PROPERTY
U+W
SciTegic.value.DoubleValue
-50.176

@<SCITEGIC>MOL_PROPERTY
Grad RMS
SciTegic.value.DoubleValue
0.000000

@<SCITEGIC>MOL_PROPERTY
U
SciTegic.value.DoubleValue
9.763

@<SCITEGIC>MOL_PROPERTY
W
SciTegic.value.DoubleValue
-59.940

@<SCITEGIC>MOL_PROPERTY
W(PB)
SciTegic.value.DoubleValue
-62.392

@<SCITEGIC>MOL_PROPERTY
W(SA)
SciTegic.value.DoubleValue
2.452

@<SCITEGIC>MOL_PROPERTY
Valence
SciTegic.value.DoubleValue
8.883

@<SCITEGIC>MOL_PROPERTY
Coulomb
SciTegic.value.DoubleValue
-0.122

@<SCITEGIC>MOL_PROPERTY
VdW
SciTegic.value.DoubleValue
1.003

@<SCITEGIC>MOL_PROPERTY
VdW6
SciTegic.value.DoubleValue
-9.782

@<SCITEGIC>MOL_PROPERTY
VdW12
SciTegic.value.DoubleValue
10.785

@<SCITEGIC>MOL_PROPERTY
Bond
SciTegic.value.DoubleValue
0.212

@<SCITEGIC>MOL_PROPERTY
Angle
SciTegic.value.DoubleValue
2.940

@<SCITEGIC>MOL_PROPERTY
Pdih
SciTegic.value.DoubleValue
5.730

@<SCITEGIC>MOL_PROPERTY
Idih
SciTegic.value.DoubleValue
0.001

@<SCITEGIC>MOL_PROPERTY
Tether
SciTegic.value.DoubleValue
0.000

@<TRIPOS>MOLECULE
guest-8_confgen4.mol2 : confsearch ligand conformer 259
          25          24           1
SMALL
USER_CHARGES
 
@<TRIPOS>ATOM
       1    C1      22.413206   16.547837   21.425163 C.2        1 MOL1         0.6168
       2    O1      21.606786   15.874701   20.814213 O.co2      1 MOL1        -0.6703
       3    O2      23.531065   16.794306   21.017256 O.co2      1 MOL1        -0.6703
       4    C2      21.992895   17.130775   22.769665 C.3        1 MOL1        -0.1963
       5    H1      22.880516   17.180848   23.411618 H          1 MOL1         0.0750
       6    H2      21.291188   16.431437   23.239887 H          1 MOL1         0.0750
       7    C3      21.345019   18.531424   22.641647 C.3        1 MOL1        -0.1860
       8    H3      22.055630   19.218362   22.161760 H          1 MOL1         0.0752
       9    H4      20.471821   18.459539   21.979723 H          1 MOL1         0.0752
      10    C4      20.922106   19.095797   24.017603 C.3        1 MOL1        -0.1858
      11    H5      21.792939   19.094968   24.687133 H          1 MOL1         0.0752
      12    H6      20.181602   18.430433   24.480584 H          1 MOL1         0.0752
      13    C5      20.362834   20.538890   23.946649 C.3        1 MOL1        -0.1858
      14    H7      20.143703   20.884644   24.965381 H          1 MOL1         0.0752
      15    H8      21.150279   21.205647   23.570038 H          1 MOL1         0.0752
      16    C6      19.099411   20.717415   23.063636 C.3        1 MOL1        -0.1858
      17    H9      19.360200   20.529507   22.013901 H          1 MOL1         0.0752
      18    H10     18.788016   21.769840   23.107517 H          1 MOL1         0.0752
      19    C7      17.894115   19.824655   23.448827 C.3        1 MOL1        -0.1834
      20    H11     17.074585   20.019243   22.743553 H          1 MOL1         0.0752
      21    H12     18.154617   18.764913   23.326686 H          1 MOL1         0.0752
      22    C8      17.384125   20.074288   24.884666 C.3        1 MOL1        -0.2849
      23    H13     17.133027   21.132417   25.033823 H          1 MOL1         0.0764
      24    H14     16.481714   19.481007   25.080626 H          1 MOL1         0.0764
      25    H15     18.137609   19.790478   25.630093 H          1 MOL1         0.0764
@<TRIPOS>BOND
    1     1     2    1
    2     1     3    2
    3     1     4    1
    4     4     5    1
    5     4     6    1
    6     4     7    1
    7     7     8    1
    8     7     9    1
    9     7    10    1
   10    10    11    1
   11    10    12    1
   12    10    13    1
   13    13    14    1
   14    13    15    1
   15    13    16    1
   16    16    17    1
   17    16    18    1
   18    16    19    1
   19    19    20    1
   20    19    21    1
   21    19    22    1
   22    22    23    1
   23    22    24    1
   24    22    25    1
@<TRIPOS>SUBSTRUCTURE
       1 MOL1            1 RESIDUE      1      MOL     
@<SCITEGIC>MOL_PROPERTY
VConf Rank
SciTegic.value.IntegerValue
259

@<SCITEGIC>MOL_PROPERTY
Conf_Id
SciTegic.value.IntegerValue
29

@<SCITEGIC>MOL_PROPERTY
Delta U+W
SciTegic.value.DoubleValue
0.850

@<SCITEGIC>MOL_PROPERTY
U+W
SciTegic.value.DoubleValue
-50.780

@<SCITEGIC>MOL_PROPERTY
Grad RMS
SciTegic.value.DoubleValue
0.000000

@<SCITEGIC>MOL_PROPERTY
U
SciTegic.value.DoubleValue
8.646

@<SCITEGIC>MOL_PROPERTY
W
SciTegic.value.DoubleValue
-59.426

@<SCITEGIC>MOL_PROPERTY
W(PB)
SciTegic.value.DoubleValue
-61.868

@<SCITEGIC>MOL_PROPERTY
W(SA)
SciTegic.value.DoubleValue
2.442

@<SCITEGIC>MOL_PROPERTY
Valence
SciTegic.value.DoubleValue
8.924

@<SCITEGIC>MOL_PROPERTY
Coulomb
SciTegic.value.DoubleValue
-1.171

@<SCITEGIC>MOL_PROPERTY
VdW
SciTegic.value.DoubleValue
0.894

@<SCITEGIC>MOL_PROPERTY
VdW6
SciTegic.value.DoubleValue
-10.223

@<SCITEGIC>MOL_PROPERTY
VdW12
SciTegic.value.DoubleValue
11.117

@<SCITEGIC>MOL_PROPERTY
Bond
SciTegic.value.DoubleValue
0.231

@<SCITEGIC>MOL_PROPERTY
Angle
SciTegic.value.DoubleValue
3.232

@<SCITEGIC>MOL_PROPERTY
Pdih
SciTegic.value.DoubleValue
5.461

@<SCITEGIC>MOL_PROPERTY
Idih
SciTegic.value.DoubleValue
0.001

@<SCITEGIC>MOL_PROPERTY
Tether
SciTegic.value.DoubleValue
0.000

@<TRIPOS>MOLECULE
guest-8_confgen4.mol2 : confsearch ligand conformer 260
          25          24           1
SMALL
USER_CHARGES
 
@<TRIPOS>ATOM
       1    C1      20.767575   17.756847   19.721090 C.2        1 MOL1         0.6168
       2    O1      21.927239   17.410567   19.830421 O.co2      1 MOL1        -0.6703
       3    O2      20.283797   18.172869   18.686863 O.co2      1 MOL1        -0.6703
       4    C2      19.874847   17.683137   20.954693 C.3        1 MOL1        -0.1963
       5    H1      20.211019   16.838943   21.568614 H          1 MOL1         0.0750
       6    H2      18.854140   17.457491   20.623445 H          1 MOL1         0.0750
       7    C3      19.891179   18.988466   21.787641 C.3        1 MOL1        -0.1860
       8    H3      20.924577   19.203573   22.090303 H          1 MOL1         0.0752
       9    H4      19.560434   19.825883   21.157973 H          1 MOL1         0.0752
      10    C4      18.984198   18.884078   23.035489 C.3        1 MOL1        -0.1858
      11    H5      19.338098   18.073046   23.685403 H          1 MOL1         0.0752
      12    H6      17.971485   18.600327   22.718443 H          1 MOL1         0.0752
      13    C5      18.890981   20.203537   23.842134 C.3        1 MOL1        -0.1858
      14    H7      18.446150   20.978406   23.203247 H          1 MOL1         0.0752
      15    H8      18.186008   20.062686   24.671926 H          1 MOL1         0.0752
      16    C6      20.237477   20.735647   24.400373 C.3        1 MOL1        -0.1858
      17    H9      20.042019   21.657000   24.965524 H          1 MOL1         0.0752
      18    H10     20.885175   21.032587   23.565161 H          1 MOL1         0.0752
      19    C7      21.010957   19.748428   25.308810 C.3        1 MOL1        -0.1834
      20    H11     21.295891   18.854297   24.738565 H          1 MOL1         0.0752
      21    H12     21.951715   20.222660   25.620228 H          1 MOL1         0.0752
      22    C8      20.222199   19.333537   26.569669 C.3        1 MOL1        -0.2849
      23    H13     19.323913   18.760724   26.307157 H          1 MOL1         0.0764
      24    H14     20.841430   18.702467   27.220078 H          1 MOL1         0.0764
      25    H15     19.912917   20.214446   27.146972 H          1 MOL1         0.0764
@<TRIPOS>BOND
    1     1     2    1
    2     1     3    2
    3     1     4    1
    4     4     5    1
    5     4     6    1
    6     4     7    1
    7     7     8    1
    8     7     9    1
    9     7    10    1
   10    10    11    1
   11    10    12    1
   12    10    13    1
   13    13    14    1
   14    13    15    1
   15    13    16    1
   16    16    17    1
   17    16    18    1
   18    16    19    1
   19    19    20    1
   20    19    21    1
   21    19    22    1
   22    22    23    1
   23    22    24    1
   24    22    25    1
@<TRIPOS>SUBSTRUCTURE
       1 MOL1            1 RESIDUE      1      MOL     
@<SCITEGIC>MOL_PROPERTY
VConf Rank
SciTegic.value.IntegerValue
260

@<SCITEGIC>MOL_PROPERTY
Conf_Id
SciTegic.value.IntegerValue
30

@<SCITEGIC>MOL_PROPERTY
Delta U+W
SciTegic.value.DoubleValue
0.843

@<SCITEGIC>MOL_PROPERTY
U+W
SciTegic.value.DoubleValue
-50.787

@<SCITEGIC>MOL_PROPERTY
Grad RMS
SciTegic.value.DoubleValue
0.000000

@<SCITEGIC>MOL_PROPERTY
U
SciTegic.value.DoubleValue
8.647

@<SCITEGIC>MOL_PROPERTY
W
SciTegic.value.DoubleValue
-59.434

@<SCITEGIC>MOL_PROPERTY
W(PB)
SciTegic.value.DoubleValue
-61.861

@<SCITEGIC>MOL_PROPERTY
W(SA)
SciTegic.value.DoubleValue
2.428

@<SCITEGIC>MOL_PROPERTY
Valence
SciTegic.value.DoubleValue
8.924

@<SCITEGIC>MOL_PROPERTY
Coulomb
SciTegic.value.DoubleValue
-1.170

@<SCITEGIC>MOL_PROPERTY
VdW
SciTegic.value.DoubleValue
0.894

@<SCITEGIC>MOL_PROPERTY
VdW6
SciTegic.value.DoubleValue
-10.224

@<SCITEGIC>MOL_PROPERTY
VdW12
SciTegic.value.DoubleValue
11.118

@<SCITEGIC>MOL_PROPERTY
Bond
SciTegic.value.DoubleValue
0.231

@<SCITEGIC>MOL_PROPERTY
Angle
SciTegic.value.DoubleValue
3.232

@<SCITEGIC>MOL_PROPERTY
Pdih
SciTegic.value.DoubleValue
5.460

@<SCITEGIC>MOL_PROPERTY
Idih
SciTegic.value.DoubleValue
0.000

@<SCITEGIC>MOL_PROPERTY
Tether
SciTegic.value.DoubleValue
0.000

@<TRIPOS>MOLECULE
guest-8_confgen4.mol2 : confsearch ligand conformer 261
          25          24           1
SMALL
USER_CHARGES
 
@<TRIPOS>ATOM
       1    C1      21.153610   15.611845   20.254635 C.2        1 MOL1         0.6168
       2    O1      20.178873   14.958098   20.572606 O.co2      1 MOL1        -0.6703
       3    O2      21.971782   15.230978   19.441214 O.co2      1 MOL1        -0.6703
       4    C2      21.388487   16.982427   20.891608 C.3        1 MOL1        -0.1963
       5    H1      21.445143   17.715441   20.078350 H          1 MOL1         0.0750
       6    H2      22.374872   16.956121   21.369374 H          1 MOL1         0.0750
       7    C3      20.317326   17.425377   21.923512 C.3        1 MOL1        -0.1860
       8    H3      19.330777   17.443354   21.439877 H          1 MOL1         0.0752
       9    H4      20.261377   16.683384   22.732104 H          1 MOL1         0.0752
      10    C4      20.631017   18.816582   22.515790 C.3        1 MOL1        -0.1858
      11    H5      20.686516   19.556670   21.705651 H          1 MOL1         0.0752
      12    H6      21.617686   18.796219   22.998704 H          1 MOL1         0.0752
      13    C5      19.564233   19.255217   23.541977 C.3        1 MOL1        -0.1858
      14    H7      18.577452   19.275703   23.059331 H          1 MOL1         0.0752
      15    H8      19.508539   18.515333   24.352269 H          1 MOL1         0.0752
      16    C6      19.877276   20.646175   24.134559 C.3        1 MOL1        -0.1858
      17    H9      19.932964   21.386235   23.324434 H          1 MOL1         0.0752
      18    H10     20.863983   20.625889   24.617355 H          1 MOL1         0.0752
      19    C7      18.811007   21.084739   25.160276 C.3        1 MOL1        -0.1834
      20    H11     17.822761   21.108023   24.680364 H          1 MOL1         0.0752
      21    H12     18.753772   20.347692   25.973279 H          1 MOL1         0.0752
      22    C8      19.127150   22.474084   25.749662 C.3        1 MOL1        -0.2849
      23    H13     19.159261   23.237291   24.961067 H          1 MOL1         0.0764
      24    H14     18.359422   22.769881   26.476426 H          1 MOL1         0.0764
      25    H15     20.097265   22.471236   26.263729 H          1 MOL1         0.0764
@<TRIPOS>BOND
    1     1     2    1
    2     1     3    2
    3     1     4    1
    4     4     5    1
    5     4     6    1
    6     4     7    1
    7     7     8    1
    8     7     9    1
    9     7    10    1
   10    10    11    1
   11    10    12    1
   12    10    13    1
   13    13    14    1
   14    13    15    1
   15    13    16    1
   16    16    17    1
   17    16    18    1
   18    16    19    1
   19    19    20    1
   20    19    21    1
   21    19    22    1
   22    22    23    1
   23    22    24    1
   24    22    25    1
@<TRIPOS>SUBSTRUCTURE
       1 MOL1            1 RESIDUE      1      MOL     
@<SCITEGIC>MOL_PROPERTY
VConf Rank
SciTegic.value.IntegerValue
261

@<SCITEGIC>MOL_PROPERTY
Conf_Id
SciTegic.value.IntegerValue
0

@<SCITEGIC>MOL_PROPERTY
Delta U+W
SciTegic.value.DoubleValue
0.000

@<SCITEGIC>MOL_PROPERTY
U+W
SciTegic.value.DoubleValue
-51.629

@<SCITEGIC>MOL_PROPERTY
Grad RMS
SciTegic.value.DoubleValue
0.000000

@<SCITEGIC>MOL_PROPERTY
U
SciTegic.value.DoubleValue
6.586

@<SCITEGIC>MOL_PROPERTY
W
SciTegic.value.DoubleValue
-58.216

@<SCITEGIC>MOL_PROPERTY
W(PB)
SciTegic.value.DoubleValue
-60.757

@<SCITEGIC>MOL_PROPERTY
W(SA)
SciTegic.value.DoubleValue
2.541

@<SCITEGIC>MOL_PROPERTY
Valence
SciTegic.value.DoubleValue
8.027

@<SCITEGIC>MOL_PROPERTY
Coulomb
SciTegic.value.DoubleValue
-2.892

@<SCITEGIC>MOL_PROPERTY
VdW
SciTegic.value.DoubleValue
1.451

@<SCITEGIC>MOL_PROPERTY
VdW6
SciTegic.value.DoubleValue
-7.931

@<SCITEGIC>MOL_PROPERTY
VdW12
SciTegic.value.DoubleValue
9.383

@<SCITEGIC>MOL_PROPERTY
Bond
SciTegic.value.DoubleValue
0.149

@<SCITEGIC>MOL_PROPERTY
Angle
SciTegic.value.DoubleValue
2.726

@<SCITEGIC>MOL_PROPERTY
Pdih
SciTegic.value.DoubleValue
5.152

@<SCITEGIC>MOL_PROPERTY
Idih
SciTegic.value.DoubleValue
0.000

@<SCITEGIC>MOL_PROPERTY
Tether
SciTegic.value.DoubleValue
0.000

@<TRIPOS>MOLECULE
guest-8_confgen4.mol2 : confsearch ligand conformer 262
          25          24           1
SMALL
USER_CHARGES
 
@<TRIPOS>ATOM
       1    C1      19.471172   22.536944   26.291685 C.2        1 MOL1         0.6168
       2    O1      20.431286   23.264434   26.451560 O.co2      1 MOL1        -0.6703
       3    O2      18.319287   22.908329   26.400566 O.co2      1 MOL1        -0.6703
       4    C2      19.725547   21.082895   25.910741 C.3        1 MOL1        -0.1963
       5    H1      18.922464   20.472552   26.341024 H          1 MOL1         0.0750
       6    H2      20.662783   20.765851   26.383685 H          1 MOL1         0.0750
       7    C3      19.799536   20.866648   24.379145 C.3        1 MOL1        -0.1860
       8    H3      18.859050   21.201131   23.919579 H          1 MOL1         0.0752
       9    H4      20.599232   21.494550   23.962230 H          1 MOL1         0.0752
      10    C4      20.057761   19.387543   24.019161 C.3        1 MOL1        -0.1858
      11    H5      19.257263   18.762465   24.438280 H          1 MOL1         0.0752
      12    H6      20.997842   19.055905   24.481160 H          1 MOL1         0.0752
      13    C5      20.131223   19.175091   22.491765 C.3        1 MOL1        -0.1858
      14    H7      19.191233   19.506587   22.029560 H          1 MOL1         0.0752
      15    H8      20.931660   19.800059   22.072456 H          1 MOL1         0.0752
      16    C6      20.389489   17.696226   22.131025 C.3        1 MOL1        -0.1858
      17    H9      19.589151   17.070989   22.550111 H          1 MOL1         0.0752
      18    H10     21.329440   17.364429   22.593084 H          1 MOL1         0.0752
      19    C7      20.463027   17.483692   20.604335 C.3        1 MOL1        -0.1834
      20    H11     19.523632   17.812785   20.138799 H          1 MOL1         0.0752
      21    H12     21.263919   18.106193   20.181778 H          1 MOL1         0.0752
      22    C8      20.720992   16.005773   20.248227 C.3        1 MOL1        -0.2849
      23    H13     20.770259   15.872993   19.159636 H          1 MOL1         0.0764
      24    H14     21.671079   15.658858   20.675288 H          1 MOL1         0.0764
      25    H15     19.917693   15.363250   20.631988 H          1 MOL1         0.0764
@<TRIPOS>BOND
    1     1     2    1
    2     1     3    2
    3     1     4    1
    4     4     5    1
    5     4     6    1
    6     4     7    1
    7     7     8    1
    8     7     9    1
    9     7    10    1
   10    10    11    1
   11    10    12    1
   12    10    13    1
   13    13    14    1
   14    13    15    1
   15    13    16    1
   16    16    17    1
   17    16    18    1
   18    16    19    1
   19    19    20    1
   20    19    21    1
   21    19    22    1
   22    22    23    1
   23    22    24    1
   24    22    25    1
@<TRIPOS>SUBSTRUCTURE
       1 MOL1            1 RESIDUE      1      MOL     
@<SCITEGIC>MOL_PROPERTY
VConf Rank
SciTegic.value.IntegerValue
262

@<SCITEGIC>MOL_PROPERTY
Conf_Id
SciTegic.value.IntegerValue
27

@<SCITEGIC>MOL_PROPERTY
Delta U+W
SciTegic.value.DoubleValue
-1.297

@<SCITEGIC>MOL_PROPERTY
U+W
SciTegic.value.DoubleValue
-52.926

@<SCITEGIC>MOL_PROPERTY
Grad RMS
SciTegic.value.DoubleValue
0.000000

@<SCITEGIC>MOL_PROPERTY
U
SciTegic.value.DoubleValue
5.617

@<SCITEGIC>MOL_PROPERTY
W
SciTegic.value.DoubleValue
-58.543

@<SCITEGIC>MOL_PROPERTY
W(PB)
SciTegic.value.DoubleValue
-61.065

@<SCITEGIC>MOL_PROPERTY
W(SA)
SciTegic.value.DoubleValue
2.522

@<SCITEGIC>MOL_PROPERTY
Valence
SciTegic.value.DoubleValue
7.531

@<SCITEGIC>MOL_PROPERTY
Coulomb
SciTegic.value.DoubleValue
-2.818

@<SCITEGIC>MOL_PROPERTY
VdW
SciTegic.value.DoubleValue
0.904

@<SCITEGIC>MOL_PROPERTY
VdW6
SciTegic.value.DoubleValue
-7.640

@<SCITEGIC>MOL_PROPERTY
VdW12
SciTegic.value.DoubleValue
8.544

@<SCITEGIC>MOL_PROPERTY
Bond
SciTegic.value.DoubleValue
0.115

@<SCITEGIC>MOL_PROPERTY
Angle
SciTegic.value.DoubleValue
2.271

@<SCITEGIC>MOL_PROPERTY
Pdih
SciTegic.value.DoubleValue
5.144

@<SCITEGIC>MOL_PROPERTY
Idih
SciTegic.value.DoubleValue
0.001

@<SCITEGIC>MOL_PROPERTY
Tether
SciTegic.value.DoubleValue
0.000

@<TRIPOS>MOLECULE
guest-8_confgen4.mol2 : confsearch ligand conformer 263
          25          24           1
SMALL
USER_CHARGES
 
@<TRIPOS>ATOM
       1    C1      16.515379   20.598631   23.772500 C.2        1 MOL1         0.6168
       2    O1      16.394019   21.323503   24.740440 O.co2      1 MOL1        -0.6703
       3    O2      16.432824   20.989474   22.624724 O.co2      1 MOL1        -0.6703
       4    C2      16.768573   19.113235   24.014273 C.3        1 MOL1        -0.1963
       5    H1      16.513288   18.561475   23.101455 H          1 MOL1         0.0750
       6    H2      16.068436   18.783458   24.790829 H          1 MOL1         0.0750
       7    C3      18.219698   18.784100   24.451139 C.3        1 MOL1        -0.1860
       8    H3      18.469769   19.364879   25.349934 H          1 MOL1         0.0752
       9    H4      18.274976   17.724198   24.734160 H          1 MOL1         0.0752
      10    C4      19.254176   19.069132   23.339212 C.3        1 MOL1        -0.1858
      11    H5      19.217162   20.131954   23.062696 H          1 MOL1         0.0752
      12    H6      18.992217   18.496806   22.438743 H          1 MOL1         0.0752
      13    C5      20.686933   18.704582   23.784119 C.3        1 MOL1        -0.1858
      14    H7      20.947981   19.277387   24.684584 H          1 MOL1         0.0752
      15    H8      20.727066   17.641435   24.058245 H          1 MOL1         0.0752
      16    C6      21.721237   18.989924   22.673868 C.3        1 MOL1        -0.1858
      17    H9      21.681170   20.053072   22.399571 H          1 MOL1         0.0752
      18    H10     21.460171   18.417485   21.773180 H          1 MOL1         0.0752
      19    C7      23.153564   18.626190   23.118286 C.3        1 MOL1        -0.1834
      20    H11     23.418794   19.198422   24.018112 H          1 MOL1         0.0752
      21    H12     23.197838   17.562799   23.391634 H          1 MOL1         0.0752
      22    C8      24.183280   18.912778   22.006910 C.3        1 MOL1        -0.2849
      23    H13     24.182639   19.976651   21.735670 H          1 MOL1         0.0764
      24    H14     25.195450   18.648548   22.339739 H          1 MOL1         0.0764
      25    H15     23.960006   18.328752   21.104437 H          1 MOL1         0.0764
@<TRIPOS>BOND
    1     1     2    1
    2     1     3    2
    3     1     4    1
    4     4     5    1
    5     4     6    1
    6     4     7    1
    7     7     8    1
    8     7     9    1
    9     7    10    1
   10    10    11    1
   11    10    12    1
   12    10    13    1
   13    13    14    1
   14    13    15    1
   15    13    16    1
   16    16    17    1
   17    16    18    1
   18    16    19    1
   19    19    20    1
   20    19    21    1
   21    19    22    1
   22    22    23    1
   23    22    24    1
   24    22    25    1
@<TRIPOS>SUBSTRUCTURE
       1 MOL1            1 RESIDUE      1      MOL     
@<SCITEGIC>MOL_PROPERTY
VConf Rank
SciTegic.value.IntegerValue
263

@<SCITEGIC>MOL_PROPERTY
Conf_Id
SciTegic.value.IntegerValue
37

@<SCITEGIC>MOL_PROPERTY
Delta U+W
SciTegic.value.DoubleValue
-0.230

@<SCITEGIC>MOL_PROPERTY
U+W
SciTegic.value.DoubleValue
-51.860

@<SCITEGIC>MOL_PROPERTY
Grad RMS
SciTegic.value.DoubleValue
0.000000

@<SCITEGIC>MOL_PROPERTY
U
SciTegic.value.DoubleValue
7.816

@<SCITEGIC>MOL_PROPERTY
W
SciTegic.value.DoubleValue
-59.675

@<SCITEGIC>MOL_PROPERTY
W(PB)
SciTegic.value.DoubleValue
-62.180

@<SCITEGIC>MOL_PROPERTY
W(SA)
SciTegic.value.DoubleValue
2.505

@<SCITEGIC>MOL_PROPERTY
Valence
SciTegic.value.DoubleValue
7.785

@<SCITEGIC>MOL_PROPERTY
Coulomb
SciTegic.value.DoubleValue
-0.713

@<SCITEGIC>MOL_PROPERTY
VdW
SciTegic.value.DoubleValue
0.744

@<SCITEGIC>MOL_PROPERTY
VdW6
SciTegic.value.DoubleValue
-8.514

@<SCITEGIC>MOL_PROPERTY
VdW12
SciTegic.value.DoubleValue
9.259

@<SCITEGIC>MOL_PROPERTY
Bond
SciTegic.value.DoubleValue
0.136

@<SCITEGIC>MOL_PROPERTY
Angle
SciTegic.value.DoubleValue
2.433

@<SCITEGIC>MOL_PROPERTY
Pdih
SciTegic.value.DoubleValue
5.216

@<SCITEGIC>MOL_PROPERTY
Idih
SciTegic.value.DoubleValue
0.000

@<SCITEGIC>MOL_PROPERTY
Tether
SciTegic.value.DoubleValue
0.000

@<TRIPOS>MOLECULE
guest-8_confgen4.mol2 : confsearch ligand conformer 264
          25          24           1
SMALL
USER_CHARGES
 
@<TRIPOS>ATOM
       1    C1      16.027468   20.046572   23.182534 C.2        1 MOL1         0.6168
       2    O1      15.552074   20.382894   24.249287 O.co2      1 MOL1        -0.6703
       3    O2      15.760158   18.999169   22.627147 O.co2      1 MOL1        -0.6703
       4    C2      17.000999   21.000957   22.496710 C.3        1 MOL1        -0.1963
       5    H1      16.564464   22.005471   22.545404 H          1 MOL1         0.0750
       6    H2      17.064225   20.733303   21.435008 H          1 MOL1         0.0750
       7    C3      18.416581   21.019805   23.129732 C.3        1 MOL1        -0.1860
       8    H3      19.003023   21.825374   22.667461 H          1 MOL1         0.0752
       9    H4      18.334121   21.261928   24.198493 H          1 MOL1         0.0752
      10    C4      19.164498   19.679229   22.952974 C.3        1 MOL1        -0.1858
      11    H5      19.232553   19.435099   21.883959 H          1 MOL1         0.0752
      12    H6      18.592217   18.870508   23.428251 H          1 MOL1         0.0752
      13    C5      20.582202   19.730788   23.562143 C.3        1 MOL1        -0.1858
      14    H7      21.157314   20.536930   23.086309 H          1 MOL1         0.0752
      15    H8      20.513105   19.974849   24.631136 H          1 MOL1         0.0752
      16    C6      21.329871   18.391384   23.386523 C.3        1 MOL1        -0.1858
      17    H9      21.398825   18.146986   22.317600 H          1 MOL1         0.0752
      18    H10     20.754795   17.585075   23.862212 H          1 MOL1         0.0752
      19    C7      22.746755   18.442232   23.995801 C.3        1 MOL1        -0.1834
      20    H11     23.325549   19.246611   23.520985 H          1 MOL1         0.0752
      21    H12     22.681481   18.684587   25.065608 H          1 MOL1         0.0752
      22    C8      23.489901   17.102886   23.818345 C.3        1 MOL1        -0.2849
      23    H13     23.597351   16.851147   22.755106 H          1 MOL1         0.0764
      24    H14     24.494750   17.156851   24.257034 H          1 MOL1         0.0764
      25    H15     22.948375   16.284879   24.311307 H          1 MOL1         0.0764
@<TRIPOS>BOND
    1     1     2    1
    2     1     3    2
    3     1     4    1
    4     4     5    1
    5     4     6    1
    6     4     7    1
    7     7     8    1
    8     7     9    1
    9     7    10    1
   10    10    11    1
   11    10    12    1
   12    10    13    1
   13    13    14    1
   14    13    15    1
   15    13    16    1
   16    16    17    1
   17    16    18    1
   18    16    19    1
   19    19    20    1
   20    19    21    1
   21    19    22    1
   22    22    23    1
   23    22    24    1
   24    22    25    1
@<TRIPOS>SUBSTRUCTURE
       1 MOL1            1 RESIDUE      1      MOL     
@<SCITEGIC>MOL_PROPERTY
VConf Rank
SciTegic.value.IntegerValue
264

@<SCITEGIC>MOL_PROPERTY
Conf_Id
SciTegic.value.IntegerValue
54

@<SCITEGIC>MOL_PROPERTY
Delta U+W
SciTegic.value.DoubleValue
-0.224

@<SCITEGIC>MOL_PROPERTY
U+W
SciTegic.value.DoubleValue
-51.854

@<SCITEGIC>MOL_PROPERTY
Grad RMS
SciTegic.value.DoubleValue
0.000000

@<SCITEGIC>MOL_PROPERTY
U
SciTegic.value.DoubleValue
7.816

@<SCITEGIC>MOL_PROPERTY
W
SciTegic.value.DoubleValue
-59.670

@<SCITEGIC>MOL_PROPERTY
W(PB)
SciTegic.value.DoubleValue
-62.157

@<SCITEGIC>MOL_PROPERTY
W(SA)
SciTegic.value.DoubleValue
2.487

@<SCITEGIC>MOL_PROPERTY
Valence
SciTegic.value.DoubleValue
7.785

@<SCITEGIC>MOL_PROPERTY
Coulomb
SciTegic.value.DoubleValue
-0.713

@<SCITEGIC>MOL_PROPERTY
VdW
SciTegic.value.DoubleValue
0.744

@<SCITEGIC>MOL_PROPERTY
VdW6
SciTegic.value.DoubleValue
-8.515

@<SCITEGIC>MOL_PROPERTY
VdW12
SciTegic.value.DoubleValue
9.259

@<SCITEGIC>MOL_PROPERTY
Bond
SciTegic.value.DoubleValue
0.136

@<SCITEGIC>MOL_PROPERTY
Angle
SciTegic.value.DoubleValue
2.433

@<SCITEGIC>MOL_PROPERTY
Pdih
SciTegic.value.DoubleValue
5.215

@<SCITEGIC>MOL_PROPERTY
Idih
SciTegic.value.DoubleValue
0.000

@<SCITEGIC>MOL_PROPERTY
Tether
SciTegic.value.DoubleValue
0.000

@<TRIPOS>MOLECULE
guest-8_confgen4.mol2 : confsearch ligand conformer 265
          25          24           1
SMALL
USER_CHARGES
 
@<TRIPOS>ATOM
       1    C1      20.190665   15.110224   22.719779 C.2        1 MOL1         0.6168
       2    O1      19.241011   14.688996   23.350471 O.co2      1 MOL1        -0.6703
       3    O2      20.405706   14.826163   21.557809 O.co2      1 MOL1        -0.6703
       4    C2      21.178789   16.031822   23.429325 C.3        1 MOL1        -0.1963
       5    H1      22.187619   15.675512   23.190001 H          1 MOL1         0.0750
       6    H2      21.050033   15.916595   24.512364 H          1 MOL1         0.0750
       7    C3      21.049215   17.525086   23.030532 C.3        1 MOL1        -0.1860
       8    H3      21.892676   18.074616   23.466875 H          1 MOL1         0.0752
       9    H4      21.139070   17.619190   21.939446 H          1 MOL1         0.0752
      10    C4      19.715456   18.152326   23.503405 C.3        1 MOL1        -0.1858
      11    H5      19.647421   18.098742   24.598521 H          1 MOL1         0.0752
      12    H6      18.879744   17.555659   23.112826 H          1 MOL1         0.0752
      13    C5      19.521530   19.616915   23.042615 C.3        1 MOL1        -0.1858
      14    H7      19.608449   19.672863   21.949046 H          1 MOL1         0.0752
      15    H8      18.494589   19.915376   23.288549 H          1 MOL1         0.0752
      16    C6      20.514563   20.608410   23.698093 C.3        1 MOL1        -0.1858
      17    H9      21.542095   20.316392   23.447541 H          1 MOL1         0.0752
      18    H10     20.430767   20.548343   24.791705 H          1 MOL1         0.0752
      19    C7      20.310503   22.072737   23.243567 C.3        1 MOL1        -0.1834
      20    H11     21.133362   22.682037   23.642191 H          1 MOL1         0.0752
      21    H12     20.381212   22.134893   22.148836 H          1 MOL1         0.0752
      22    C8      18.971538   22.681496   23.714229 C.3        1 MOL1        -0.2849
      23    H13     18.115555   22.181947   23.243964 H          1 MOL1         0.0764
      24    H14     18.863557   22.598800   24.803546 H          1 MOL1         0.0764
      25    H15     18.920243   23.745595   23.449713 H          1 MOL1         0.0764
@<TRIPOS>BOND
    1     1     2    1
    2     1     3    2
    3     1     4    1
    4     4     5    1
    5     4     6    1
    6     4     7    1
    7     7     8    1
    8     7     9    1
    9     7    10    1
   10    10    11    1
   11    10    12    1
   12    10    13    1
   13    13    14    1
   14    13    15    1
   15    13    16    1
   16    16    17    1
   17    16    18    1
   18    16    19    1
   19    19    20    1
   20    19    21    1
   21    19    22    1
   22    22    23    1
   23    22    24    1
   24    22    25    1
@<TRIPOS>SUBSTRUCTURE
       1 MOL1            1 RESIDUE      1      MOL     
@<SCITEGIC>MOL_PROPERTY
VConf Rank
SciTegic.value.IntegerValue
265

@<SCITEGIC>MOL_PROPERTY
Conf_Id
SciTegic.value.IntegerValue
101

@<SCITEGIC>MOL_PROPERTY
Delta U+W
SciTegic.value.DoubleValue
1.534

@<SCITEGIC>MOL_PROPERTY
U+W
SciTegic.value.DoubleValue
-50.095

@<SCITEGIC>MOL_PROPERTY
Grad RMS
SciTegic.value.DoubleValue
0.000000

@<SCITEGIC>MOL_PROPERTY
U
SciTegic.value.DoubleValue
9.416

@<SCITEGIC>MOL_PROPERTY
W
SciTegic.value.DoubleValue
-59.512

@<SCITEGIC>MOL_PROPERTY
W(PB)
SciTegic.value.DoubleValue
-61.988

@<SCITEGIC>MOL_PROPERTY
W(SA)
SciTegic.value.DoubleValue
2.476

@<SCITEGIC>MOL_PROPERTY
Valence
SciTegic.value.DoubleValue
8.939

@<SCITEGIC>MOL_PROPERTY
Coulomb
SciTegic.value.DoubleValue
-0.615

@<SCITEGIC>MOL_PROPERTY
VdW
SciTegic.value.DoubleValue
1.092

@<SCITEGIC>MOL_PROPERTY
VdW6
SciTegic.value.DoubleValue
-9.710

@<SCITEGIC>MOL_PROPERTY
VdW12
SciTegic.value.DoubleValue
10.802

@<SCITEGIC>MOL_PROPERTY
Bond
SciTegic.value.DoubleValue
0.216

@<SCITEGIC>MOL_PROPERTY
Angle
SciTegic.value.DoubleValue
2.979

@<SCITEGIC>MOL_PROPERTY
Pdih
SciTegic.value.DoubleValue
5.743

@<SCITEGIC>MOL_PROPERTY
Idih
SciTegic.value.DoubleValue
0.000

@<SCITEGIC>MOL_PROPERTY
Tether
SciTegic.value.DoubleValue
0.000

@<TRIPOS>MOLECULE
guest-8_confgen4.mol2 : confsearch ligand conformer 266
          25          24           1
SMALL
USER_CHARGES
 
@<TRIPOS>ATOM
       1    C1      20.342164   23.365606   23.594306 C.2        1 MOL1         0.6168
       2    O1      20.646501   23.623931   24.742079 O.co2      1 MOL1        -0.6703
       3    O2      20.501115   24.134279   22.666592 O.co2      1 MOL1        -0.6703
       4    C2      19.748994   21.992817   23.298051 C.3        1 MOL1        -0.1963
       5    H1      19.054514   22.097199   22.455946 H          1 MOL1         0.0750
       6    H2      19.159734   21.690143   24.170703 H          1 MOL1         0.0750
       7    C3      20.830819   20.930595   22.971099 C.3        1 MOL1        -0.1860
       8    H3      21.462453   21.312152   22.156925 H          1 MOL1         0.0752
       9    H4      21.491092   20.798718   23.839401 H          1 MOL1         0.0752
      10    C4      20.248520   19.561855   22.544265 C.3        1 MOL1        -0.1858
      11    H5      21.079571   18.933056   22.200090 H          1 MOL1         0.0752
      12    H6      19.581264   19.697493   21.682327 H          1 MOL1         0.0752
      13    C5      19.492308   18.832784   23.682026 C.3        1 MOL1        -0.1858
      14    H7      20.159334   18.696514   24.543144 H          1 MOL1         0.0752
      15    H8      18.666022   19.463052   24.033784 H          1 MOL1         0.0752
      16    C6      18.896246   17.467840   23.253083 C.3        1 MOL1        -0.1858
      17    H9      18.166766   17.635567   22.449090 H          1 MOL1         0.0752
      18    H10     18.326883   17.053721   24.096292 H          1 MOL1         0.0752
      19    C7      19.924443   16.410030   22.780528 C.3        1 MOL1        -0.1834
      20    H11     19.381810   15.496069   22.502554 H          1 MOL1         0.0752
      21    H12     20.428242   16.751489   21.866780 H          1 MOL1         0.0752
      22    C8      20.976003   16.055373   23.854018 C.3        1 MOL1        -0.2849
      23    H13     20.493221   15.733838   24.785959 H          1 MOL1         0.0764
      24    H14     21.619593   15.237171   23.506019 H          1 MOL1         0.0764
      25    H15     21.621689   16.913835   24.078098 H          1 MOL1         0.0764
@<TRIPOS>BOND
    1     1     2    1
    2     1     3    2
    3     1     4    1
    4     4     5    1
    5     4     6    1
    6     4     7    1
    7     7     8    1
    8     7     9    1
    9     7    10    1
   10    10    11    1
   11    10    12    1
   12    10    13    1
   13    13    14    1
   14    13    15    1
   15    13    16    1
   16    16    17    1
   17    16    18    1
   18    16    19    1
   19    19    20    1
   20    19    21    1
   21    19    22    1
   22    22    23    1
   23    22    24    1
   24    22    25    1
@<TRIPOS>SUBSTRUCTURE
       1 MOL1            1 RESIDUE      1      MOL     
@<SCITEGIC>MOL_PROPERTY
VConf Rank
SciTegic.value.IntegerValue
266

@<SCITEGIC>MOL_PROPERTY
Conf_Id
SciTegic.value.IntegerValue
75

@<SCITEGIC>MOL_PROPERTY
Delta U+W
SciTegic.value.DoubleValue
1.014

@<SCITEGIC>MOL_PROPERTY
U+W
SciTegic.value.DoubleValue
-50.615

@<SCITEGIC>MOL_PROPERTY
Grad RMS
SciTegic.value.DoubleValue
0.000000

@<SCITEGIC>MOL_PROPERTY
U
SciTegic.value.DoubleValue
8.474

@<SCITEGIC>MOL_PROPERTY
W
SciTegic.value.DoubleValue
-59.089

@<SCITEGIC>MOL_PROPERTY
W(PB)
SciTegic.value.DoubleValue
-61.530

@<SCITEGIC>MOL_PROPERTY
W(SA)
SciTegic.value.DoubleValue
2.441

@<SCITEGIC>MOL_PROPERTY
Valence
SciTegic.value.DoubleValue
9.080

@<SCITEGIC>MOL_PROPERTY
Coulomb
SciTegic.value.DoubleValue
-1.772

@<SCITEGIC>MOL_PROPERTY
VdW
SciTegic.value.DoubleValue
1.165

@<SCITEGIC>MOL_PROPERTY
VdW6
SciTegic.value.DoubleValue
-9.830

@<SCITEGIC>MOL_PROPERTY
VdW12
SciTegic.value.DoubleValue
10.996

@<SCITEGIC>MOL_PROPERTY
Bond
SciTegic.value.DoubleValue
0.240

@<SCITEGIC>MOL_PROPERTY
Angle
SciTegic.value.DoubleValue
3.225

@<SCITEGIC>MOL_PROPERTY
Pdih
SciTegic.value.DoubleValue
5.615

@<SCITEGIC>MOL_PROPERTY
Idih
SciTegic.value.DoubleValue
0.001

@<SCITEGIC>MOL_PROPERTY
Tether
SciTegic.value.DoubleValue
0.000

@<TRIPOS>MOLECULE
guest-8_confgen4.mol2 : confsearch ligand conformer 267
          25          24           1
SMALL
USER_CHARGES
 
@<TRIPOS>ATOM
       1    C1      18.888005   18.967106   27.338203 C.2        1 MOL1         0.6168
       2    O1      19.549308   19.765339   27.972360 O.co2      1 MOL1        -0.6703
       3    O2      17.783578   18.588912   27.675663 O.co2      1 MOL1        -0.6703
       4    C2      19.467135   18.426266   26.035828 C.3        1 MOL1        -0.1963
       5    H1      19.103218   17.400608   25.901105 H          1 MOL1         0.0750
       6    H2      20.557050   18.372110   26.144262 H          1 MOL1         0.0750
       7    C3      19.094639   19.291534   24.806748 C.3        1 MOL1        -0.1860
       8    H3      18.000627   19.346606   24.719575 H          1 MOL1         0.0752
       9    H4      19.454435   20.317964   24.963349 H          1 MOL1         0.0752
      10    C4      19.693788   18.724442   23.501536 C.3        1 MOL1        -0.1858
      11    H5      19.331862   17.698441   23.349404 H          1 MOL1         0.0752
      12    H6      20.783982   18.661838   23.600388 H          1 MOL1         0.0752
      13    C5      19.313929   19.588736   22.276205 C.3        1 MOL1        -0.1858
      14    H7      18.218569   19.600913   22.192808 H          1 MOL1         0.0752
      15    H8      19.620495   20.631793   22.433906 H          1 MOL1         0.0752
      16    C6      19.901951   19.057918   20.943956 C.3        1 MOL1        -0.1858
      17    H9      19.164002   19.236646   20.150006 H          1 MOL1         0.0752
      18    H10     20.030639   17.967958   20.991529 H          1 MOL1         0.0752
      19    C7      21.226807   19.731429   20.508017 C.3        1 MOL1        -0.1834
      20    H11     21.507482   19.341155   19.520050 H          1 MOL1         0.0752
      21    H12     21.065631   20.810413   20.377431 H          1 MOL1         0.0752
      22    C8      22.402166   19.503791   21.481200 C.3        1 MOL1        -0.2849
      23    H13     22.545059   18.434385   21.683471 H          1 MOL1         0.0764
      24    H14     23.334697   19.895693   21.055111 H          1 MOL1         0.0764
      25    H15     22.232124   20.020053   22.434188 H          1 MOL1         0.0764
@<TRIPOS>BOND
    1     1     2    1
    2     1     3    2
    3     1     4    1
    4     4     5    1
    5     4     6    1
    6     4     7    1
    7     7     8    1
    8     7     9    1
    9     7    10    1
   10    10    11    1
   11    10    12    1
   12    10    13    1
   13    13    14    1
   14    13    15    1
   15    13    16    1
   16    16    17    1
   17    16    18    1
   18    16    19    1
   19    19    20    1
   20    19    21    1
   21    19    22    1
   22    22    23    1
   23    22    24    1
   24    22    25    1
@<TRIPOS>SUBSTRUCTURE
       1 MOL1            1 RESIDUE      1      MOL     
@<SCITEGIC>MOL_PROPERTY
VConf Rank
SciTegic.value.IntegerValue
267

@<SCITEGIC>MOL_PROPERTY
Conf_Id
SciTegic.value.IntegerValue
125

@<SCITEGIC>MOL_PROPERTY
Delta U+W
SciTegic.value.DoubleValue
2.314

@<SCITEGIC>MOL_PROPERTY
U+W
SciTegic.value.DoubleValue
-49.315

@<SCITEGIC>MOL_PROPERTY
Grad RMS
SciTegic.value.DoubleValue
0.000000

@<SCITEGIC>MOL_PROPERTY
U
SciTegic.value.DoubleValue
9.740

@<SCITEGIC>MOL_PROPERTY
W
SciTegic.value.DoubleValue
-59.054

@<SCITEGIC>MOL_PROPERTY
W(PB)
SciTegic.value.DoubleValue
-61.488

@<SCITEGIC>MOL_PROPERTY
W(SA)
SciTegic.value.DoubleValue
2.433

@<SCITEGIC>MOL_PROPERTY
Valence
SciTegic.value.DoubleValue
10.506

@<SCITEGIC>MOL_PROPERTY
Coulomb
SciTegic.value.DoubleValue
-1.761

@<SCITEGIC>MOL_PROPERTY
VdW
SciTegic.value.DoubleValue
0.994

@<SCITEGIC>MOL_PROPERTY
VdW6
SciTegic.value.DoubleValue
-9.209

@<SCITEGIC>MOL_PROPERTY
VdW12
SciTegic.value.DoubleValue
10.203

@<SCITEGIC>MOL_PROPERTY
Bond
SciTegic.value.DoubleValue
0.193

@<SCITEGIC>MOL_PROPERTY
Angle
SciTegic.value.DoubleValue
2.979

@<SCITEGIC>MOL_PROPERTY
Pdih
SciTegic.value.DoubleValue
7.334

@<SCITEGIC>MOL_PROPERTY
Idih
SciTegic.value.DoubleValue
0.001

@<SCITEGIC>MOL_PROPERTY
Tether
SciTegic.value.DoubleValue
0.000

@<TRIPOS>MOLECULE
guest-8_confgen4.mol2 : confsearch ligand conformer 268
          25          24           1
SMALL
USER_CHARGES
 
@<TRIPOS>ATOM
       1    C1      20.903048   18.663854   19.318103 C.2        1 MOL1         0.6168
       2    O1      19.871917   18.244216   18.830901 O.co2      1 MOL1        -0.6703
       3    O2      21.950539   18.747748   18.707803 O.co2      1 MOL1        -0.6703
       4    C2      20.887858   19.085846   20.782927 C.3        1 MOL1        -0.1963
       5    H1      19.896138   19.498161   21.000198 H          1 MOL1         0.0750
       6    H2      21.613575   19.897899   20.910448 H          1 MOL1         0.0750
       7    C3      21.217780   17.916741   21.747079 C.3        1 MOL1        -0.1860
       8    H3      20.457537   17.130199   21.643590 H          1 MOL1         0.0752
       9    H4      22.172724   17.466921   21.441809 H          1 MOL1         0.0752
      10    C4      21.324886   18.348731   23.228992 C.3        1 MOL1        -0.1858
      11    H5      22.092411   19.128187   23.330605 H          1 MOL1         0.0752
      12    H6      21.674698   17.489484   23.817410 H          1 MOL1         0.0752
      13    C5      19.988452   18.853793   23.820642 C.3        1 MOL1        -0.1858
      14    H7      19.665166   19.753126   23.282763 H          1 MOL1         0.0752
      15    H8      19.210762   18.092194   23.673236 H          1 MOL1         0.0752
      16    C6      20.117948   19.174072   25.327910 C.3        1 MOL1        -0.1858
      17    H9      20.861802   19.969106   25.474510 H          1 MOL1         0.0752
      18    H10     20.502907   18.287693   25.850388 H          1 MOL1         0.0752
      19    C7      18.781171   19.588716   25.985872 C.3        1 MOL1        -0.1834
      20    H11     18.036236   18.793253   25.845808 H          1 MOL1         0.0752
      21    H12     18.935869   19.681314   27.069717 H          1 MOL1         0.0752
      22    C8      18.222567   20.924098   25.448006 C.3        1 MOL1        -0.2849
      23    H13     17.941692   20.844208   24.390455 H          1 MOL1         0.0764
      24    H14     17.325589   21.218239   26.008191 H          1 MOL1         0.0764
      25    H15     18.962681   21.728612   25.548490 H          1 MOL1         0.0764
@<TRIPOS>BOND
    1     1     2    1
    2     1     3    2
    3     1     4    1
    4     4     5    1
    5     4     6    1
    6     4     7    1
    7     7     8    1
    8     7     9    1
    9     7    10    1
   10    10    11    1
   11    10    12    1
   12    10    13    1
   13    13    14    1
   14    13    15    1
   15    13    16    1
   16    16    17    1
   17    16    18    1
   18    16    19    1
   19    19    20    1
   20    19    21    1
   21    19    22    1
   22    22    23    1
   23    22    24    1
   24    22    25    1
@<TRIPOS>SUBSTRUCTURE
       1 MOL1            1 RESIDUE      1      MOL     
@<SCITEGIC>MOL_PROPERTY
VConf Rank
SciTegic.value.IntegerValue
268

@<SCITEGIC>MOL_PROPERTY
Conf_Id
SciTegic.value.IntegerValue
4

@<SCITEGIC>MOL_PROPERTY
Delta U+W
SciTegic.value.DoubleValue
0.189

@<SCITEGIC>MOL_PROPERTY
U+W
SciTegic.value.DoubleValue
-51.441

@<SCITEGIC>MOL_PROPERTY
Grad RMS
SciTegic.value.DoubleValue
0.000000

@<SCITEGIC>MOL_PROPERTY
U
SciTegic.value.DoubleValue
7.701

@<SCITEGIC>MOL_PROPERTY
W
SciTegic.value.DoubleValue
-59.141

@<SCITEGIC>MOL_PROPERTY
W(PB)
SciTegic.value.DoubleValue
-61.609

@<SCITEGIC>MOL_PROPERTY
W(SA)
SciTegic.value.DoubleValue
2.467

@<SCITEGIC>MOL_PROPERTY
Valence
SciTegic.value.DoubleValue
8.550

@<SCITEGIC>MOL_PROPERTY
Coulomb
SciTegic.value.DoubleValue
-1.988

@<SCITEGIC>MOL_PROPERTY
VdW
SciTegic.value.DoubleValue
1.139

@<SCITEGIC>MOL_PROPERTY
VdW6
SciTegic.value.DoubleValue
-8.988

@<SCITEGIC>MOL_PROPERTY
VdW12
SciTegic.value.DoubleValue
10.127

@<SCITEGIC>MOL_PROPERTY
Bond
SciTegic.value.DoubleValue
0.191

@<SCITEGIC>MOL_PROPERTY
Angle
SciTegic.value.DoubleValue
2.738

@<SCITEGIC>MOL_PROPERTY
Pdih
SciTegic.value.DoubleValue
5.621

@<SCITEGIC>MOL_PROPERTY
Idih
SciTegic.value.DoubleValue
0.001

@<SCITEGIC>MOL_PROPERTY
Tether
SciTegic.value.DoubleValue
0.000

@<TRIPOS>MOLECULE
guest-8_confgen4.mol2 : confsearch ligand conformer 269
          25          24           1
SMALL
USER_CHARGES
 
@<TRIPOS>ATOM
       1    C1      20.675620   19.688763   19.287807 C.2        1 MOL1         0.6168
       2    O1      21.552905   18.896799   19.005216 O.co2      1 MOL1        -0.6703
       3    O2      20.063665   20.338093   18.462809 O.co2      1 MOL1        -0.6703
       4    C2      20.305948   19.860050   20.756829 C.3        1 MOL1        -0.1963
       5    H1      19.976033   20.895059   20.906060 H          1 MOL1         0.0750
       6    H2      21.217972   19.720424   21.347961 H          1 MOL1         0.0750
       7    C3      19.200073   18.874258   21.215626 C.3        1 MOL1        -0.1860
       8    H3      18.336930   18.975043   20.543113 H          1 MOL1         0.0752
       9    H4      19.560046   17.841982   21.105373 H          1 MOL1         0.0752
      10    C4      18.725656   19.110143   22.669394 C.3        1 MOL1        -0.1858
      11    H5      17.868551   18.451865   22.866755 H          1 MOL1         0.0752
      12    H6      18.357242   20.139870   22.773829 H          1 MOL1         0.0752
      13    C5      19.822089   18.839868   23.725794 C.3        1 MOL1        -0.1858
      14    H7      20.223504   17.826845   23.587175 H          1 MOL1         0.0752
      15    H8      20.653934   19.539244   23.579050 H          1 MOL1         0.0752
      16    C6      19.274704   18.985602   25.164660 C.3        1 MOL1        -0.1858
      17    H9      18.402388   18.328589   25.284003 H          1 MOL1         0.0752
      18    H10     18.915048   20.011745   25.321390 H          1 MOL1         0.0752
      19    C7      20.310444   18.628143   26.256118 C.3        1 MOL1        -0.1834
      20    H11     19.810319   18.642026   27.234336 H          1 MOL1         0.0752
      21    H12     20.668500   17.600326   26.105471 H          1 MOL1         0.0752
      22    C8      21.512883   19.596062   26.299273 C.3        1 MOL1        -0.2849
      23    H13     21.177351   20.634585   26.417578 H          1 MOL1         0.0764
      24    H14     22.169588   19.354708   27.145075 H          1 MOL1         0.0764
      25    H15     22.113671   19.530093   25.383637 H          1 MOL1         0.0764
@<TRIPOS>BOND
    1     1     2    1
    2     1     3    2
    3     1     4    1
    4     4     5    1
    5     4     6    1
    6     4     7    1
    7     7     8    1
    8     7     9    1
    9     7    10    1
   10    10    11    1
   11    10    12    1
   12    10    13    1
   13    13    14    1
   14    13    15    1
   15    13    16    1
   16    16    17    1
   17    16    18    1
   18    16    19    1
   19    19    20    1
   20    19    21    1
   21    19    22    1
   22    22    23    1
   23    22    24    1
   24    22    25    1
@<TRIPOS>SUBSTRUCTURE
       1 MOL1            1 RESIDUE      1      MOL     
@<SCITEGIC>MOL_PROPERTY
VConf Rank
SciTegic.value.IntegerValue
269

@<SCITEGIC>MOL_PROPERTY
Conf_Id
SciTegic.value.IntegerValue
17

@<SCITEGIC>MOL_PROPERTY
Delta U+W
SciTegic.value.DoubleValue
0.219

@<SCITEGIC>MOL_PROPERTY
U+W
SciTegic.value.DoubleValue
-51.411

@<SCITEGIC>MOL_PROPERTY
Grad RMS
SciTegic.value.DoubleValue
0.000000

@<SCITEGIC>MOL_PROPERTY
U
SciTegic.value.DoubleValue
7.701

@<SCITEGIC>MOL_PROPERTY
W
SciTegic.value.DoubleValue
-59.111

@<SCITEGIC>MOL_PROPERTY
W(PB)
SciTegic.value.DoubleValue
-61.599

@<SCITEGIC>MOL_PROPERTY
W(SA)
SciTegic.value.DoubleValue
2.488

@<SCITEGIC>MOL_PROPERTY
Valence
SciTegic.value.DoubleValue
8.550

@<SCITEGIC>MOL_PROPERTY
Coulomb
SciTegic.value.DoubleValue
-1.988

@<SCITEGIC>MOL_PROPERTY
VdW
SciTegic.value.DoubleValue
1.139

@<SCITEGIC>MOL_PROPERTY
VdW6
SciTegic.value.DoubleValue
-8.988

@<SCITEGIC>MOL_PROPERTY
VdW12
SciTegic.value.DoubleValue
10.127

@<SCITEGIC>MOL_PROPERTY
Bond
SciTegic.value.DoubleValue
0.191

@<SCITEGIC>MOL_PROPERTY
Angle
SciTegic.value.DoubleValue
2.738

@<SCITEGIC>MOL_PROPERTY
Pdih
SciTegic.value.DoubleValue
5.621

@<SCITEGIC>MOL_PROPERTY
Idih
SciTegic.value.DoubleValue
0.001

@<SCITEGIC>MOL_PROPERTY
Tether
SciTegic.value.DoubleValue
0.000

@<TRIPOS>MOLECULE
guest-8_confgen4.mol2 : confsearch ligand conformer 270
          25          24           1
SMALL
USER_CHARGES
 
@<TRIPOS>ATOM
       1    C1      20.178020   20.450583   19.787794 C.2        1 MOL1         0.6168
       2    O1      20.386443   19.499631   19.060256 O.co2      1 MOL1        -0.6703
       3    O2      20.956844   21.372782   19.929426 O.co2      1 MOL1        -0.6703
       4    C2      18.857836   20.501009   20.551667 C.3        1 MOL1        -0.1963
       5    H1      18.144502   19.826702   20.062548 H          1 MOL1         0.0750
       6    H2      18.457035   21.516192   20.448012 H          1 MOL1         0.0750
       7    C3      18.987354   20.146051   22.055705 C.3        1 MOL1        -0.1860
       8    H3      19.719708   20.820844   22.518284 H          1 MOL1         0.0752
       9    H4      18.025044   20.333558   22.550745 H          1 MOL1         0.0752
      10    C4      19.400014   18.671936   22.282527 C.3        1 MOL1        -0.1858
      11    H5      20.394717   18.492304   21.851692 H          1 MOL1         0.0752
      12    H6      18.704795   18.018761   21.737661 H          1 MOL1         0.0752
      13    C5      19.400847   18.254630   23.772352 C.3        1 MOL1        -0.1858
      14    H7      18.404703   18.425098   24.203034 H          1 MOL1         0.0752
      15    H8      19.583320   17.172863   23.830180 H          1 MOL1         0.0752
      16    C6      20.467164   18.989631   24.617203 C.3        1 MOL1        -0.1858
      17    H9      20.256006   20.066711   24.632666 H          1 MOL1         0.0752
      18    H10     21.454693   18.862754   24.152896 H          1 MOL1         0.0752
      19    C7      20.508275   18.462999   26.067277 C.3        1 MOL1        -0.1834
      20    H11     19.521229   18.586824   26.534038 H          1 MOL1         0.0752
      21    H12     20.727573   17.386279   26.064828 H          1 MOL1         0.0752
      22    C8      21.569468   19.199437   26.909448 C.3        1 MOL1        -0.2849
      23    H13     21.356566   20.275490   26.955982 H          1 MOL1         0.0764
      24    H14     21.585222   18.812362   27.936570 H          1 MOL1         0.0764
      25    H15     22.571824   19.066501   26.481673 H          1 MOL1         0.0764
@<TRIPOS>BOND
    1     1     2    1
    2     1     3    2
    3     1     4    1
    4     4     5    1
    5     4     6    1
    6     4     7    1
    7     7     8    1
    8     7     9    1
    9     7    10    1
   10    10    11    1
   11    10    12    1
   12    10    13    1
   13    13    14    1
   14    13    15    1
   15    13    16    1
   16    16    17    1
   17    16    18    1
   18    16    19    1
   19    19    20    1
   20    19    21    1
   21    19    22    1
   22    22    23    1
   23    22    24    1
   24    22    25    1
@<TRIPOS>SUBSTRUCTURE
       1 MOL1            1 RESIDUE      1      MOL     
@<SCITEGIC>MOL_PROPERTY
VConf Rank
SciTegic.value.IntegerValue
270

@<SCITEGIC>MOL_PROPERTY
Conf_Id
SciTegic.value.IntegerValue
142

@<SCITEGIC>MOL_PROPERTY
Delta U+W
SciTegic.value.DoubleValue
0.593

@<SCITEGIC>MOL_PROPERTY
U+W
SciTegic.value.DoubleValue
-51.037

@<SCITEGIC>MOL_PROPERTY
Grad RMS
SciTegic.value.DoubleValue
0.000000

@<SCITEGIC>MOL_PROPERTY
U
SciTegic.value.DoubleValue
8.903

@<SCITEGIC>MOL_PROPERTY
W
SciTegic.value.DoubleValue
-59.940

@<SCITEGIC>MOL_PROPERTY
W(PB)
SciTegic.value.DoubleValue
-62.418

@<SCITEGIC>MOL_PROPERTY
W(SA)
SciTegic.value.DoubleValue
2.478

@<SCITEGIC>MOL_PROPERTY
Valence
SciTegic.value.DoubleValue
8.305

@<SCITEGIC>MOL_PROPERTY
Coulomb
SciTegic.value.DoubleValue
-0.223

@<SCITEGIC>MOL_PROPERTY
VdW
SciTegic.value.DoubleValue
0.821

@<SCITEGIC>MOL_PROPERTY
VdW6
SciTegic.value.DoubleValue
-9.236

@<SCITEGIC>MOL_PROPERTY
VdW12
SciTegic.value.DoubleValue
10.057

@<SCITEGIC>MOL_PROPERTY
Bond
SciTegic.value.DoubleValue
0.173

@<SCITEGIC>MOL_PROPERTY
Angle
SciTegic.value.DoubleValue
2.663

@<SCITEGIC>MOL_PROPERTY
Pdih
SciTegic.value.DoubleValue
5.469

@<SCITEGIC>MOL_PROPERTY
Idih
SciTegic.value.DoubleValue
0.001

@<SCITEGIC>MOL_PROPERTY
Tether
SciTegic.value.DoubleValue
0.000

@<TRIPOS>MOLECULE
guest-8_confgen4.mol2 : confsearch ligand conformer 271
          25          24           1
SMALL
USER_CHARGES
 
@<TRIPOS>ATOM
       1    C1      22.382821   21.942832   22.994302 C.2        1 MOL1         0.6168
       2    O1      23.500111   22.299384   23.313820 O.co2      1 MOL1        -0.6703
       3    O2      21.917465   22.105605   21.883444 O.co2      1 MOL1        -0.6703
       4    C2      21.509257   21.279909   24.055602 C.3        1 MOL1        -0.1963
       5    H1      20.471149   21.275994   23.704010 H          1 MOL1         0.0750
       6    H2      21.533527   21.920365   24.944841 H          1 MOL1         0.0750
       7    C3      21.960709   19.845136   24.442573 C.3        1 MOL1        -0.1860
       8    H3      22.978164   19.895425   24.854196 H          1 MOL1         0.0752
       9    H4      21.325382   19.473373   25.256821 H          1 MOL1         0.0752
      10    C4      21.950858   18.831929   23.268708 C.3        1 MOL1        -0.1858
      11    H5      22.289837   17.856164   23.642302 H          1 MOL1         0.0752
      12    H6      22.693865   19.143160   22.521605 H          1 MOL1         0.0752
      13    C5      20.584182   18.651204   22.561699 C.3        1 MOL1        -0.1858
      14    H7      20.283006   19.593514   22.084730 H          1 MOL1         0.0752
      15    H8      20.710897   17.926306   21.746224 H          1 MOL1         0.0752
      16    C6      19.461566   18.157323   23.503230 C.3        1 MOL1        -0.1858
      17    H9      19.272501   18.906104   24.283413 H          1 MOL1         0.0752
      18    H10     19.785713   17.238596   24.010717 H          1 MOL1         0.0752
      19    C7      18.150541   17.887643   22.735165 C.3        1 MOL1        -0.1834
      20    H11     17.825926   18.804895   22.224529 H          1 MOL1         0.0752
      21    H12     18.325759   17.133154   21.955794 H          1 MOL1         0.0752
      22    C8      17.030282   17.401029   23.676398 C.3        1 MOL1        -0.2849
      23    H13     16.811830   18.151267   24.447624 H          1 MOL1         0.0764
      24    H14     16.106289   17.214178   23.113940 H          1 MOL1         0.0764
      25    H15     17.316702   16.467271   24.177807 H          1 MOL1         0.0764
@<TRIPOS>BOND
    1     1     2    1
    2     1     3    2
    3     1     4    1
    4     4     5    1
    5     4     6    1
    6     4     7    1
    7     7     8    1
    8     7     9    1
    9     7    10    1
   10    10    11    1
   11    10    12    1
   12    10    13    1
   13    13    14    1
   14    13    15    1
   15    13    16    1
   16    16    17    1
   17    16    18    1
   18    16    19    1
   19    19    20    1
   20    19    21    1
   21    19    22    1
   22    22    23    1
   23    22    24    1
   24    22    25    1
@<TRIPOS>SUBSTRUCTURE
       1 MOL1            1 RESIDUE      1      MOL     
@<SCITEGIC>MOL_PROPERTY
VConf Rank
SciTegic.value.IntegerValue
271

@<SCITEGIC>MOL_PROPERTY
Conf_Id
SciTegic.value.IntegerValue
135

@<SCITEGIC>MOL_PROPERTY
Delta U+W
SciTegic.value.DoubleValue
1.314

@<SCITEGIC>MOL_PROPERTY
U+W
SciTegic.value.DoubleValue
-50.316

@<SCITEGIC>MOL_PROPERTY
Grad RMS
SciTegic.value.DoubleValue
0.000000

@<SCITEGIC>MOL_PROPERTY
U
SciTegic.value.DoubleValue
9.773

@<SCITEGIC>MOL_PROPERTY
W
SciTegic.value.DoubleValue
-60.088

@<SCITEGIC>MOL_PROPERTY
W(PB)
SciTegic.value.DoubleValue
-62.535

@<SCITEGIC>MOL_PROPERTY
W(SA)
SciTegic.value.DoubleValue
2.447

@<SCITEGIC>MOL_PROPERTY
Valence
SciTegic.value.DoubleValue
8.741

@<SCITEGIC>MOL_PROPERTY
Coulomb
SciTegic.value.DoubleValue
0.479

@<SCITEGIC>MOL_PROPERTY
VdW
SciTegic.value.DoubleValue
0.552

@<SCITEGIC>MOL_PROPERTY
VdW6
SciTegic.value.DoubleValue
-10.627

@<SCITEGIC>MOL_PROPERTY
VdW12
SciTegic.value.DoubleValue
11.179

@<SCITEGIC>MOL_PROPERTY
Bond
SciTegic.value.DoubleValue
0.227

@<SCITEGIC>MOL_PROPERTY
Angle
SciTegic.value.DoubleValue
3.155

@<SCITEGIC>MOL_PROPERTY
Pdih
SciTegic.value.DoubleValue
5.358

@<SCITEGIC>MOL_PROPERTY
Idih
SciTegic.value.DoubleValue
0.001

@<SCITEGIC>MOL_PROPERTY
Tether
SciTegic.value.DoubleValue
0.000

@<TRIPOS>MOLECULE
guest-8_confgen4.mol2 : confsearch ligand conformer 272
          25          24           1
SMALL
USER_CHARGES
 
@<TRIPOS>ATOM
       1    C1      19.418420   15.143892   22.333099 C.2        1 MOL1         0.6168
       2    O1      20.262884   14.395696   22.784569 O.co2      1 MOL1        -0.6703
       3    O2      18.313185   14.778841   21.983864 O.co2      1 MOL1        -0.6703
       4    C2      19.756081   16.626222   22.219678 C.3        1 MOL1        -0.1963
       5    H1      19.213870   17.033137   21.357835 H          1 MOL1         0.0750
       6    H2      20.826065   16.707083   21.998843 H          1 MOL1         0.0750
       7    C3      19.397448   17.422082   23.501792 C.3        1 MOL1        -0.1860
       8    H3      18.341754   17.237441   23.744413 H          1 MOL1         0.0752
       9    H4      19.981628   17.038009   24.349438 H          1 MOL1         0.0752
      10    C4      19.612362   18.948626   23.366122 C.3        1 MOL1        -0.1858
      11    H5      19.187567   19.428560   24.256741 H          1 MOL1         0.0752
      12    H6      19.047496   19.326242   22.503040 H          1 MOL1         0.0752
      13    C5      21.100512   19.352917   23.237971 C.3        1 MOL1        -0.1858
      14    H7      21.645934   19.023098   24.132582 H          1 MOL1         0.0752
      15    H8      21.552626   18.825084   22.389172 H          1 MOL1         0.0752
      16    C6      21.330110   20.870780   23.026202 C.3        1 MOL1        -0.1858
      17    H9      20.867037   21.193189   22.083587 H          1 MOL1         0.0752
      18    H10     22.409806   21.026043   22.895724 H          1 MOL1         0.0752
      19    C7      20.852148   21.769635   24.194026 C.3        1 MOL1        -0.1834
      20    H11     20.864275   21.207314   25.137892 H          1 MOL1         0.0752
      21    H12     21.568891   22.592818   24.320324 H          1 MOL1         0.0752
      22    C8      19.455389   22.385215   23.954462 C.3        1 MOL1        -0.2849
      23    H13     18.686033   21.614997   23.828073 H          1 MOL1         0.0764
      24    H14     19.162707   23.015743   24.803919 H          1 MOL1         0.0764
      25    H15     19.455486   23.013713   23.054422 H          1 MOL1         0.0764
@<TRIPOS>BOND
    1     1     2    1
    2     1     3    2
    3     1     4    1
    4     4     5    1
    5     4     6    1
    6     4     7    1
    7     7     8    1
    8     7     9    1
    9     7    10    1
   10    10    11    1
   11    10    12    1
   12    10    13    1
   13    13    14    1
   14    13    15    1
   15    13    16    1
   16    16    17    1
   17    16    18    1
   18    16    19    1
   19    19    20    1
   20    19    21    1
   21    19    22    1
   22    22    23    1
   23    22    24    1
   24    22    25    1
@<TRIPOS>SUBSTRUCTURE
       1 MOL1            1 RESIDUE      1      MOL     
@<SCITEGIC>MOL_PROPERTY
VConf Rank
SciTegic.value.IntegerValue
272

@<SCITEGIC>MOL_PROPERTY
Conf_Id
SciTegic.value.IntegerValue
19

@<SCITEGIC>MOL_PROPERTY
Delta U+W
SciTegic.value.DoubleValue
3.222

@<SCITEGIC>MOL_PROPERTY
U+W
SciTegic.value.DoubleValue
-48.407

@<SCITEGIC>MOL_PROPERTY
Grad RMS
SciTegic.value.DoubleValue
0.000000

@<SCITEGIC>MOL_PROPERTY
U
SciTegic.value.DoubleValue
10.617

@<SCITEGIC>MOL_PROPERTY
W
SciTegic.value.DoubleValue
-59.025

@<SCITEGIC>MOL_PROPERTY
W(PB)
SciTegic.value.DoubleValue
-61.462

@<SCITEGIC>MOL_PROPERTY
W(SA)
SciTegic.value.DoubleValue
2.437

@<SCITEGIC>MOL_PROPERTY
Valence
SciTegic.value.DoubleValue
11.188

@<SCITEGIC>MOL_PROPERTY
Coulomb
SciTegic.value.DoubleValue
-1.778

@<SCITEGIC>MOL_PROPERTY
VdW
SciTegic.value.DoubleValue
1.208

@<SCITEGIC>MOL_PROPERTY
VdW6
SciTegic.value.DoubleValue
-9.786

@<SCITEGIC>MOL_PROPERTY
VdW12
SciTegic.value.DoubleValue
10.993

@<SCITEGIC>MOL_PROPERTY
Bond
SciTegic.value.DoubleValue
0.241

@<SCITEGIC>MOL_PROPERTY
Angle
SciTegic.value.DoubleValue
3.294

@<SCITEGIC>MOL_PROPERTY
Pdih
SciTegic.value.DoubleValue
7.653

@<SCITEGIC>MOL_PROPERTY
Idih
SciTegic.value.DoubleValue
0.001

@<SCITEGIC>MOL_PROPERTY
Tether
SciTegic.value.DoubleValue
0.000

@<TRIPOS>MOLECULE
guest-8_confgen4.mol2 : confsearch ligand conformer 273
          25          24           1
SMALL
USER_CHARGES
 
@<TRIPOS>ATOM
       1    C1      21.795144   20.203455   26.979788 C.2        1 MOL1         0.6168
       2    O1      22.811360   19.586751   27.232219 O.co2      1 MOL1        -0.6703
       3    O2      21.120116   20.762011   27.821882 O.co2      1 MOL1        -0.6703
       4    C2      21.328536   20.259994   25.529524 C.3        1 MOL1        -0.1963
       5    H1      22.220614   20.264459   24.893640 H          1 MOL1         0.0750
       6    H2      20.813749   21.215805   25.375357 H          1 MOL1         0.0750
       7    C3      20.392165   19.081491   25.155134 C.3        1 MOL1        -0.1860
       8    H3      20.932713   18.131446   25.266957 H          1 MOL1         0.0752
       9    H4      19.562116   19.051923   25.874573 H          1 MOL1         0.0752
      10    C4      19.803702   19.184693   23.727550 C.3        1 MOL1        -0.1858
      11    H5      19.285367   20.145981   23.609932 H          1 MOL1         0.0752
      12    H6      19.044032   18.400353   23.619376 H          1 MOL1         0.0752
      13    C5      20.861794   19.018012   22.610802 C.3        1 MOL1        -0.1858
      14    H7      21.661868   19.755567   22.749982 H          1 MOL1         0.0752
      15    H8      21.333598   18.030110   22.700515 H          1 MOL1         0.0752
      16    C6      20.303343   19.192764   21.175857 C.3        1 MOL1        -0.1858
      17    H9      21.149151   19.107344   20.480023 H          1 MOL1         0.0752
      18    H10     19.912740   20.211311   21.045871 H          1 MOL1         0.0752
      19    C7      19.233478   18.150918   20.763365 C.3        1 MOL1        -0.1834
      20    H11     19.384281   17.891586   19.706337 H          1 MOL1         0.0752
      21    H12     19.370853   17.218769   21.328573 H          1 MOL1         0.0752
      22    C8      17.786863   18.668625   20.926304 C.3        1 MOL1        -0.2849
      23    H13     17.617735   19.555909   20.302442 H          1 MOL1         0.0764
      24    H14     17.066728   17.899665   20.618226 H          1 MOL1         0.0764
      25    H15     17.564603   18.939033   21.964860 H          1 MOL1         0.0764
@<TRIPOS>BOND
    1     1     2    1
    2     1     3    2
    3     1     4    1
    4     4     5    1
    5     4     6    1
    6     4     7    1
    7     7     8    1
    8     7     9    1
    9     7    10    1
   10    10    11    1
   11    10    12    1
   12    10    13    1
   13    13    14    1
   14    13    15    1
   15    13    16    1
   16    16    17    1
   17    16    18    1
   18    16    19    1
   19    19    20    1
   20    19    21    1
   21    19    22    1
   22    22    23    1
   23    22    24    1
   24    22    25    1
@<TRIPOS>SUBSTRUCTURE
       1 MOL1            1 RESIDUE      1      MOL     
@<SCITEGIC>MOL_PROPERTY
VConf Rank
SciTegic.value.IntegerValue
273

@<SCITEGIC>MOL_PROPERTY
Conf_Id
SciTegic.value.IntegerValue
20

@<SCITEGIC>MOL_PROPERTY
Delta U+W
SciTegic.value.DoubleValue
3.224

@<SCITEGIC>MOL_PROPERTY
U+W
SciTegic.value.DoubleValue
-48.406

@<SCITEGIC>MOL_PROPERTY
Grad RMS
SciTegic.value.DoubleValue
0.000000

@<SCITEGIC>MOL_PROPERTY
U
SciTegic.value.DoubleValue
10.617

@<SCITEGIC>MOL_PROPERTY
W
SciTegic.value.DoubleValue
-59.023

@<SCITEGIC>MOL_PROPERTY
W(PB)
SciTegic.value.DoubleValue
-61.467

@<SCITEGIC>MOL_PROPERTY
W(SA)
SciTegic.value.DoubleValue
2.444

@<SCITEGIC>MOL_PROPERTY
Valence
SciTegic.value.DoubleValue
11.188

@<SCITEGIC>MOL_PROPERTY
Coulomb
SciTegic.value.DoubleValue
-1.778

@<SCITEGIC>MOL_PROPERTY
VdW
SciTegic.value.DoubleValue
1.208

@<SCITEGIC>MOL_PROPERTY
VdW6
SciTegic.value.DoubleValue
-9.786

@<SCITEGIC>MOL_PROPERTY
VdW12
SciTegic.value.DoubleValue
10.993

@<SCITEGIC>MOL_PROPERTY
Bond
SciTegic.value.DoubleValue
0.241

@<SCITEGIC>MOL_PROPERTY
Angle
SciTegic.value.DoubleValue
3.294

@<SCITEGIC>MOL_PROPERTY
Pdih
SciTegic.value.DoubleValue
7.653

@<SCITEGIC>MOL_PROPERTY
Idih
SciTegic.value.DoubleValue
0.001

@<SCITEGIC>MOL_PROPERTY
Tether
SciTegic.value.DoubleValue
0.000

@<TRIPOS>MOLECULE
guest-8_confgen4.mol2 : confsearch ligand conformer 274
          25          24           1
SMALL
USER_CHARGES
 
@<TRIPOS>ATOM
       1    C1      21.777539   17.560923   21.627469 C.2        1 MOL1         0.6168
       2    O1      21.070229   17.179791   20.715276 O.co2      1 MOL1        -0.6703
       3    O2      22.120968   16.850311   22.551755 O.co2      1 MOL1        -0.6703
       4    C2      22.318552   18.988582   21.577610 C.3        1 MOL1        -0.1963
       5    H1      22.954287   19.046072   20.686541 H          1 MOL1         0.0750
       6    H2      22.973882   19.151865   22.441711 H          1 MOL1         0.0750
       7    C3      21.239033   20.104821   21.501735 C.3        1 MOL1        -0.1860
       8    H3      21.716728   21.012277   21.108339 H          1 MOL1         0.0752
       9    H4      20.466180   19.829362   20.770698 H          1 MOL1         0.0752
      10    C4      20.582765   20.467125   22.857144 C.3        1 MOL1        -0.1858
      11    H5      19.958352   21.358533   22.707203 H          1 MOL1         0.0752
      12    H6      21.359639   20.752637   23.579491 H          1 MOL1         0.0752
      13    C5      19.706986   19.342221   23.453996 C.3        1 MOL1        -0.1858
      14    H7      18.997890   18.984616   22.694821 H          1 MOL1         0.0752
      15    H8      20.336704   18.488221   23.733540 H          1 MOL1         0.0752
      16    C6      18.932298   19.822004   24.700686 C.3        1 MOL1        -0.1858
      17    H9      18.291288   20.672466   24.430892 H          1 MOL1         0.0752
      18    H10     19.642680   20.183676   25.456718 H          1 MOL1         0.0752
      19    C7      18.066309   18.696261   25.304125 C.3        1 MOL1        -0.1834
      20    H11     17.354005   18.332785   24.550490 H          1 MOL1         0.0752
      21    H12     18.704474   17.844222   25.576855 H          1 MOL1         0.0752
      22    C8      17.294435   19.178033   26.549024 C.3        1 MOL1        -0.2849
      23    H13     16.624097   20.010431   26.297765 H          1 MOL1         0.0764
      24    H14     16.684597   18.365354   26.964613 H          1 MOL1         0.0764
      25    H15     17.984892   19.518133   27.331952 H          1 MOL1         0.0764
@<TRIPOS>BOND
    1     1     2    1
    2     1     3    2
    3     1     4    1
    4     4     5    1
    5     4     6    1
    6     4     7    1
    7     7     8    1
    8     7     9    1
    9     7    10    1
   10    10    11    1
   11    10    12    1
   12    10    13    1
   13    13    14    1
   14    13    15    1
   15    13    16    1
   16    16    17    1
   17    16    18    1
   18    16    19    1
   19    19    20    1
   20    19    21    1
   21    19    22    1
   22    22    23    1
   23    22    24    1
   24    22    25    1
@<TRIPOS>SUBSTRUCTURE
       1 MOL1            1 RESIDUE      1      MOL     
@<SCITEGIC>MOL_PROPERTY
VConf Rank
SciTegic.value.IntegerValue
274

@<SCITEGIC>MOL_PROPERTY
Conf_Id
SciTegic.value.IntegerValue
24

@<SCITEGIC>MOL_PROPERTY
Delta U+W
SciTegic.value.DoubleValue
1.784

@<SCITEGIC>MOL_PROPERTY
U+W
SciTegic.value.DoubleValue
-49.846

@<SCITEGIC>MOL_PROPERTY
Grad RMS
SciTegic.value.DoubleValue
0.000000

@<SCITEGIC>MOL_PROPERTY
U
SciTegic.value.DoubleValue
10.904

@<SCITEGIC>MOL_PROPERTY
W
SciTegic.value.DoubleValue
-60.749

@<SCITEGIC>MOL_PROPERTY
W(PB)
SciTegic.value.DoubleValue
-63.220

@<SCITEGIC>MOL_PROPERTY
W(SA)
SciTegic.value.DoubleValue
2.471

@<SCITEGIC>MOL_PROPERTY
Valence
SciTegic.value.DoubleValue
9.445

@<SCITEGIC>MOL_PROPERTY
Coulomb
SciTegic.value.DoubleValue
0.780

@<SCITEGIC>MOL_PROPERTY
VdW
SciTegic.value.DoubleValue
0.679

@<SCITEGIC>MOL_PROPERTY
VdW6
SciTegic.value.DoubleValue
-10.008

@<SCITEGIC>MOL_PROPERTY
VdW12
SciTegic.value.DoubleValue
10.687

@<SCITEGIC>MOL_PROPERTY
Bond
SciTegic.value.DoubleValue
0.201

@<SCITEGIC>MOL_PROPERTY
Angle
SciTegic.value.DoubleValue
3.198

@<SCITEGIC>MOL_PROPERTY
Pdih
SciTegic.value.DoubleValue
6.039

@<SCITEGIC>MOL_PROPERTY
Idih
SciTegic.value.DoubleValue
0.006

@<SCITEGIC>MOL_PROPERTY
Tether
SciTegic.value.DoubleValue
0.000

@<TRIPOS>MOLECULE
guest-8_confgen4.mol2 : confsearch ligand conformer 275
          25          24           1
SMALL
USER_CHARGES
 
@<TRIPOS>ATOM
       1    C1      23.204489   18.320880   22.885349 C.2        1 MOL1         0.6168
       2    O1      23.236322   17.136643   22.612931 O.co2      1 MOL1        -0.6703
       3    O2      23.234439   19.202412   22.049154 O.co2      1 MOL1        -0.6703
       4    C2      23.193522   18.725963   24.358162 C.3        1 MOL1        -0.1963
       5    H1      23.216498   19.820268   24.427113 H          1 MOL1         0.0750
       6    H2      24.136880   18.364996   24.783890 H          1 MOL1         0.0750
       7    C3      22.011532   18.158309   25.193491 C.3        1 MOL1        -0.1860
       8    H3      21.863435   17.095091   24.958485 H          1 MOL1         0.0752
       9    H4      22.296564   18.196151   26.253564 H          1 MOL1         0.0752
      10    C4      20.676479   18.927752   25.036407 C.3        1 MOL1        -0.1858
      11    H5      20.828879   19.987062   25.284341 H          1 MOL1         0.0752
      12    H6      19.966954   18.536283   25.778236 H          1 MOL1         0.0752
      13    C5      20.042232   18.809254   23.632016 C.3        1 MOL1        -0.1858
      14    H7      20.677176   19.313336   22.892587 H          1 MOL1         0.0752
      15    H8      19.986145   17.751434   23.340608 H          1 MOL1         0.0752
      16    C6      18.630633   19.433783   23.588200 C.3        1 MOL1        -0.1858
      17    H9      18.688015   20.490145   23.884573 H          1 MOL1         0.0752
      18    H10     17.982874   18.930882   24.319271 H          1 MOL1         0.0752
      19    C7      18.001069   19.326208   22.183404 C.3        1 MOL1        -0.1834
      20    H11     18.645531   19.829830   21.449484 H          1 MOL1         0.0752
      21    H12     17.941615   18.270545   21.884243 H          1 MOL1         0.0752
      22    C8      16.591913   19.950932   22.142568 C.3        1 MOL1        -0.2849
      23    H13     16.626610   21.015854   22.407354 H          1 MOL1         0.0764
      24    H14     16.159903   19.865637   21.137006 H          1 MOL1         0.0764
      25    H15     15.917298   19.444652   22.845382 H          1 MOL1         0.0764
@<TRIPOS>BOND
    1     1     2    1
    2     1     3    2
    3     1     4    1
    4     4     5    1
    5     4     6    1
    6     4     7    1
    7     7     8    1
    8     7     9    1
    9     7    10    1
   10    10    11    1
   11    10    12    1
   12    10    13    1
   13    13    14    1
   14    13    15    1
   15    13    16    1
   16    16    17    1
   17    16    18    1
   18    16    19    1
   19    19    20    1
   20    19    21    1
   21    19    22    1
   22    22    23    1
   23    22    24    1
   24    22    25    1
@<TRIPOS>SUBSTRUCTURE
       1 MOL1            1 RESIDUE      1      MOL     
@<SCITEGIC>MOL_PROPERTY
VConf Rank
SciTegic.value.IntegerValue
275

@<SCITEGIC>MOL_PROPERTY
Conf_Id
SciTegic.value.IntegerValue
9

@<SCITEGIC>MOL_PROPERTY
Delta U+W
SciTegic.value.DoubleValue
1.764

@<SCITEGIC>MOL_PROPERTY
U+W
SciTegic.value.DoubleValue
-49.865

@<SCITEGIC>MOL_PROPERTY
Grad RMS
SciTegic.value.DoubleValue
0.000000

@<SCITEGIC>MOL_PROPERTY
U
SciTegic.value.DoubleValue
10.902

@<SCITEGIC>MOL_PROPERTY
W
SciTegic.value.DoubleValue
-60.768

@<SCITEGIC>MOL_PROPERTY
W(PB)
SciTegic.value.DoubleValue
-63.223

@<SCITEGIC>MOL_PROPERTY
W(SA)
SciTegic.value.DoubleValue
2.456

@<SCITEGIC>MOL_PROPERTY
Valence
SciTegic.value.DoubleValue
9.445

@<SCITEGIC>MOL_PROPERTY
Coulomb
SciTegic.value.DoubleValue
0.778

@<SCITEGIC>MOL_PROPERTY
VdW
SciTegic.value.DoubleValue
0.679

@<SCITEGIC>MOL_PROPERTY
VdW6
SciTegic.value.DoubleValue
-10.007

@<SCITEGIC>MOL_PROPERTY
VdW12
SciTegic.value.DoubleValue
10.687

@<SCITEGIC>MOL_PROPERTY
Bond
SciTegic.value.DoubleValue
0.201

@<SCITEGIC>MOL_PROPERTY
Angle
SciTegic.value.DoubleValue
3.198

@<SCITEGIC>MOL_PROPERTY
Pdih
SciTegic.value.DoubleValue
6.040

@<SCITEGIC>MOL_PROPERTY
Idih
SciTegic.value.DoubleValue
0.006

@<SCITEGIC>MOL_PROPERTY
Tether
SciTegic.value.DoubleValue
0.000

@<TRIPOS>MOLECULE
guest-8_confgen4.mol2 : confsearch ligand conformer 276
          25          24           1
SMALL
USER_CHARGES
 
@<TRIPOS>ATOM
       1    C1      16.911738   17.731295   21.933111 C.2        1 MOL1         0.6168
       2    O1      17.117837   18.286968   20.872283 O.co2      1 MOL1        -0.6703
       3    O2      16.119432   16.820566   22.073368 O.co2      1 MOL1        -0.6703
       4    C2      17.705787   18.188020   23.151554 C.3        1 MOL1        -0.1963
       5    H1      17.069232   18.063822   24.035652 H          1 MOL1         0.0750
       6    H2      17.896395   19.260193   23.043954 H          1 MOL1         0.0750
       7    C3      19.029562   17.399467   23.334457 C.3        1 MOL1        -0.1860
       8    H3      18.776381   16.335825   23.444010 H          1 MOL1         0.0752
       9    H4      19.643673   17.475156   22.426408 H          1 MOL1         0.0752
      10    C4      19.847451   17.843862   24.573756 C.3        1 MOL1        -0.1858
      11    H5      20.336443   16.955453   24.996291 H          1 MOL1         0.0752
      12    H6      19.176738   18.217102   25.359680 H          1 MOL1         0.0752
      13    C5      20.954391   18.886840   24.277715 C.3        1 MOL1        -0.1858
      14    H7      21.519156   19.062403   25.203333 H          1 MOL1         0.0752
      15    H8      21.665219   18.459982   23.558034 H          1 MOL1         0.0752
      16    C6      20.426078   20.240893   23.748000 C.3        1 MOL1        -0.1858
      17    H9      19.606434   20.584355   24.393456 H          1 MOL1         0.0752
      18    H10     20.005793   20.107621   22.742592 H          1 MOL1         0.0752
      19    C7      21.509666   21.343123   23.698407 C.3        1 MOL1        -0.1834
      20    H11     21.035830   22.291018   23.408340 H          1 MOL1         0.0752
      21    H12     21.926562   21.499431   24.702896 H          1 MOL1         0.0752
      22    C8      22.650478   21.031850   22.705441 C.3        1 MOL1        -0.2849
      23    H13     22.254781   20.846840   21.698297 H          1 MOL1         0.0764
      24    H14     23.348290   21.876969   22.644748 H          1 MOL1         0.0764
      25    H15     23.223006   20.149557   23.017920 H          1 MOL1         0.0764
@<TRIPOS>BOND
    1     1     2    1
    2     1     3    2
    3     1     4    1
    4     4     5    1
    5     4     6    1
    6     4     7    1
    7     7     8    1
    8     7     9    1
    9     7    10    1
   10    10    11    1
   11    10    12    1
   12    10    13    1
   13    13    14    1
   14    13    15    1
   15    13    16    1
   16    16    17    1
   17    16    18    1
   18    16    19    1
   19    19    20    1
   20    19    21    1
   21    19    22    1
   22    22    23    1
   23    22    24    1
   24    22    25    1
@<TRIPOS>SUBSTRUCTURE
       1 MOL1            1 RESIDUE      1      MOL     
@<SCITEGIC>MOL_PROPERTY
VConf Rank
SciTegic.value.IntegerValue
276

@<SCITEGIC>MOL_PROPERTY
Conf_Id
SciTegic.value.IntegerValue
89

@<SCITEGIC>MOL_PROPERTY
Delta U+W
SciTegic.value.DoubleValue
2.903

@<SCITEGIC>MOL_PROPERTY
U+W
SciTegic.value.DoubleValue
-48.726

@<SCITEGIC>MOL_PROPERTY
Grad RMS
SciTegic.value.DoubleValue
0.000000

@<SCITEGIC>MOL_PROPERTY
U
SciTegic.value.DoubleValue
10.996

@<SCITEGIC>MOL_PROPERTY
W
SciTegic.value.DoubleValue
-59.723

@<SCITEGIC>MOL_PROPERTY
W(PB)
SciTegic.value.DoubleValue
-62.151

@<SCITEGIC>MOL_PROPERTY
W(SA)
SciTegic.value.DoubleValue
2.428

@<SCITEGIC>MOL_PROPERTY
Valence
SciTegic.value.DoubleValue
10.985

@<SCITEGIC>MOL_PROPERTY
Coulomb
SciTegic.value.DoubleValue
-0.995

@<SCITEGIC>MOL_PROPERTY
VdW
SciTegic.value.DoubleValue
1.006

@<SCITEGIC>MOL_PROPERTY
VdW6
SciTegic.value.DoubleValue
-10.062

@<SCITEGIC>MOL_PROPERTY
VdW12
SciTegic.value.DoubleValue
11.069

@<SCITEGIC>MOL_PROPERTY
Bond
SciTegic.value.DoubleValue
0.238

@<SCITEGIC>MOL_PROPERTY
Angle
SciTegic.value.DoubleValue
3.202

@<SCITEGIC>MOL_PROPERTY
Pdih
SciTegic.value.DoubleValue
7.544

@<SCITEGIC>MOL_PROPERTY
Idih
SciTegic.value.DoubleValue
0.001

@<SCITEGIC>MOL_PROPERTY
Tether
SciTegic.value.DoubleValue
0.000

@<TRIPOS>MOLECULE
guest-8_confgen4.mol2 : confsearch ligand conformer 277
          25          24           1
SMALL
USER_CHARGES
 
@<TRIPOS>ATOM
       1    C1      21.311838   22.233675   22.955364 C.2        1 MOL1         0.6168
       2    O1      21.728793   22.092308   21.822481 O.co2      1 MOL1        -0.6703
       3    O2      20.399243   22.982464   23.245352 O.co2      1 MOL1        -0.6703
       4    C2      22.015763   21.478218   24.080984 C.3        1 MOL1        -0.1963
       5    H1      22.469639   22.240044   24.725262 H          1 MOL1         0.0750
       6    H2      22.841332   20.893903   23.656975 H          1 MOL1         0.0750
       7    C3      21.098182   20.567380   24.944696 C.3        1 MOL1        -0.1860
       8    H3      21.599918   20.398301   25.907046 H          1 MOL1         0.0752
       9    H4      20.162566   21.093100   25.180945 H          1 MOL1         0.0752
      10    C4      20.787223   19.181083   24.327104 C.3        1 MOL1        -0.1858
      11    H5      20.284763   18.580475   25.095428 H          1 MOL1         0.0752
      12    H6      21.726501   18.661478   24.094036 H          1 MOL1         0.0752
      13    C5      19.897882   19.240426   23.061428 C.3        1 MOL1        -0.1858
      14    H7      18.984109   19.812225   23.273170 H          1 MOL1         0.0752
      15    H8      20.429877   19.784060   22.271315 H          1 MOL1         0.0752
      16    C6      19.522523   17.846342   22.503745 C.3        1 MOL1        -0.1858
      17    H9      20.436093   17.263604   22.323096 H          1 MOL1         0.0752
      18    H10     19.043849   17.983533   21.524484 H          1 MOL1         0.0752
      19    C7      18.564939   17.048865   23.418350 C.3        1 MOL1        -0.1834
      20    H11     19.051640   16.826082   24.376588 H          1 MOL1         0.0752
      21    H12     17.676690   17.655254   23.643060 H          1 MOL1         0.0752
      22    C8      18.127272   15.724624   22.760378 C.3        1 MOL1        -0.2849
      23    H13     18.994946   15.086055   22.548862 H          1 MOL1         0.0764
      24    H14     17.450726   15.168822   23.422512 H          1 MOL1         0.0764
      25    H15     17.599590   15.910272   21.815693 H          1 MOL1         0.0764
@<TRIPOS>BOND
    1     1     2    1
    2     1     3    2
    3     1     4    1
    4     4     5    1
    5     4     6    1
    6     4     7    1
    7     7     8    1
    8     7     9    1
    9     7    10    1
   10    10    11    1
   11    10    12    1
   12    10    13    1
   13    13    14    1
   14    13    15    1
   15    13    16    1
   16    16    17    1
   17    16    18    1
   18    16    19    1
   19    19    20    1
   20    19    21    1
   21    19    22    1
   22    22    23    1
   23    22    24    1
   24    22    25    1
@<TRIPOS>SUBSTRUCTURE
       1 MOL1            1 RESIDUE      1      MOL     
@<SCITEGIC>MOL_PROPERTY
VConf Rank
SciTegic.value.IntegerValue
277

@<SCITEGIC>MOL_PROPERTY
Conf_Id
SciTegic.value.IntegerValue
114

@<SCITEGIC>MOL_PROPERTY
Delta U+W
SciTegic.value.DoubleValue
2.758

@<SCITEGIC>MOL_PROPERTY
U+W
SciTegic.value.DoubleValue
-48.871

@<SCITEGIC>MOL_PROPERTY
Grad RMS
SciTegic.value.DoubleValue
0.000000

@<SCITEGIC>MOL_PROPERTY
U
SciTegic.value.DoubleValue
11.422

@<SCITEGIC>MOL_PROPERTY
W
SciTegic.value.DoubleValue
-60.293

@<SCITEGIC>MOL_PROPERTY
W(PB)
SciTegic.value.DoubleValue
-62.719

@<SCITEGIC>MOL_PROPERTY
W(SA)
SciTegic.value.DoubleValue
2.425

@<SCITEGIC>MOL_PROPERTY
Valence
SciTegic.value.DoubleValue
10.135

@<SCITEGIC>MOL_PROPERTY
Coulomb
SciTegic.value.DoubleValue
0.369

@<SCITEGIC>MOL_PROPERTY
VdW
SciTegic.value.DoubleValue
0.918

@<SCITEGIC>MOL_PROPERTY
VdW6
SciTegic.value.DoubleValue
-10.482

@<SCITEGIC>MOL_PROPERTY
VdW12
SciTegic.value.DoubleValue
11.400

@<SCITEGIC>MOL_PROPERTY
Bond
SciTegic.value.DoubleValue
0.245

@<SCITEGIC>MOL_PROPERTY
Angle
SciTegic.value.DoubleValue
3.539

@<SCITEGIC>MOL_PROPERTY
Pdih
SciTegic.value.DoubleValue
6.346

@<SCITEGIC>MOL_PROPERTY
Idih
SciTegic.value.DoubleValue
0.006

@<SCITEGIC>MOL_PROPERTY
Tether
SciTegic.value.DoubleValue
0.000

@<TRIPOS>MOLECULE
guest-8_confgen4.mol2 : confsearch ligand conformer 278
          25          24           1
SMALL
USER_CHARGES
 
@<TRIPOS>ATOM
       1    C1      20.263232   15.611014   21.793101 C.2        1 MOL1         0.6168
       2    O1      19.683604   15.731382   20.731684 O.co2      1 MOL1        -0.6703
       3    O2      21.427089   15.274559   21.889716 O.co2      1 MOL1        -0.6703
       4    C2      19.482828   15.876465   23.077412 C.3        1 MOL1        -0.1963
       5    H1      19.712336   15.062659   23.775283 H          1 MOL1         0.0750
       6    H2      18.410817   15.811222   22.855352 H          1 MOL1         0.0750
       7    C3      19.811228   17.238082   23.743093 C.3        1 MOL1        -0.1860
       8    H3      19.308638   17.288689   24.718332 H          1 MOL1         0.0752
       9    H4      20.890485   17.286051   23.938621 H          1 MOL1         0.0752
      10    C4      19.368740   18.441973   22.877007 C.3        1 MOL1        -0.1858
      11    H5      18.308255   18.321812   22.616670 H          1 MOL1         0.0752
      12    H6      19.921492   18.442608   21.927394 H          1 MOL1         0.0752
      13    C5      19.548626   19.809235   23.579089 C.3        1 MOL1        -0.1858
      14    H7      19.076050   20.576281   22.952593 H          1 MOL1         0.0752
      15    H8      19.004481   19.807683   24.533252 H          1 MOL1         0.0752
      16    C6      21.030756   20.186702   23.822716 C.3        1 MOL1        -0.1858
      17    H9      21.575213   20.184557   22.868649 H          1 MOL1         0.0752
      18    H10     21.503520   19.422809   24.452815 H          1 MOL1         0.0752
      19    C7      21.209668   21.556986   24.517518 C.3        1 MOL1        -0.1834
      20    H11     20.656700   21.566768   25.466949 H          1 MOL1         0.0752
      21    H12     22.270134   21.684160   24.775351 H          1 MOL1         0.0752
      22    C8      20.766332   22.751203   23.644473 C.3        1 MOL1        -0.2849
      23    H13     21.003036   23.699727   24.143649 H          1 MOL1         0.0764
      24    H14     21.281541   22.742016   22.675149 H          1 MOL1         0.0764
      25    H15     19.685012   22.734878   23.460390 H          1 MOL1         0.0764
@<TRIPOS>BOND
    1     1     2    1
    2     1     3    2
    3     1     4    1
    4     4     5    1
    5     4     6    1
    6     4     7    1
    7     7     8    1
    8     7     9    1
    9     7    10    1
   10    10    11    1
   11    10    12    1
   12    10    13    1
   13    13    14    1
   14    13    15    1
   15    13    16    1
   16    16    17    1
   17    16    18    1
   18    16    19    1
   19    19    20    1
   20    19    21    1
   21    19    22    1
   22    22    23    1
   23    22    24    1
   24    22    25    1
@<TRIPOS>SUBSTRUCTURE
       1 MOL1            1 RESIDUE      1      MOL     
@<SCITEGIC>MOL_PROPERTY
VConf Rank
SciTegic.value.IntegerValue
278

@<SCITEGIC>MOL_PROPERTY
Conf_Id
SciTegic.value.IntegerValue
87

@<SCITEGIC>MOL_PROPERTY
Delta U+W
SciTegic.value.DoubleValue
1.453

@<SCITEGIC>MOL_PROPERTY
U+W
SciTegic.value.DoubleValue
-50.176

@<SCITEGIC>MOL_PROPERTY
Grad RMS
SciTegic.value.DoubleValue
0.000000

@<SCITEGIC>MOL_PROPERTY
U
SciTegic.value.DoubleValue
9.763

@<SCITEGIC>MOL_PROPERTY
W
SciTegic.value.DoubleValue
-59.940

@<SCITEGIC>MOL_PROPERTY
W(PB)
SciTegic.value.DoubleValue
-62.392

@<SCITEGIC>MOL_PROPERTY
W(SA)
SciTegic.value.DoubleValue
2.452

@<SCITEGIC>MOL_PROPERTY
Valence
SciTegic.value.DoubleValue
8.883

@<SCITEGIC>MOL_PROPERTY
Coulomb
SciTegic.value.DoubleValue
-0.122

@<SCITEGIC>MOL_PROPERTY
VdW
SciTegic.value.DoubleValue
1.003

@<SCITEGIC>MOL_PROPERTY
VdW6
SciTegic.value.DoubleValue
-9.782

@<SCITEGIC>MOL_PROPERTY
VdW12
SciTegic.value.DoubleValue
10.785

@<SCITEGIC>MOL_PROPERTY
Bond
SciTegic.value.DoubleValue
0.212

@<SCITEGIC>MOL_PROPERTY
Angle
SciTegic.value.DoubleValue
2.940

@<SCITEGIC>MOL_PROPERTY
Pdih
SciTegic.value.DoubleValue
5.730

@<SCITEGIC>MOL_PROPERTY
Idih
SciTegic.value.DoubleValue
0.001

@<SCITEGIC>MOL_PROPERTY
Tether
SciTegic.value.DoubleValue
0.000

@<TRIPOS>MOLECULE
guest-8_confgen4.mol2 : confsearch ligand conformer 279
          25          24           1
SMALL
USER_CHARGES
 
@<TRIPOS>ATOM
       1    C1      17.494263   20.465830   26.023990 C.2        1 MOL1         0.6168
       2    O1      18.140689   20.393012   27.050399 O.co2      1 MOL1        -0.6703
       3    O2      16.651678   21.316903   25.817914 O.co2      1 MOL1        -0.6703
       4    C2      17.768399   19.443834   24.926474 C.3        1 MOL1        -0.1963
       5    H1      16.828944   19.257155   24.392566 H          1 MOL1         0.0750
       6    H2      18.063134   18.501705   25.404072 H          1 MOL1         0.0750
       7    C3      18.864936   19.905450   23.935281 C.3        1 MOL1        -0.1860
       8    H3      18.560074   20.853604   23.471379 H          1 MOL1         0.0752
       9    H4      19.788385   20.104738   24.495024 H          1 MOL1         0.0752
      10    C4      19.127939   18.848571   22.837800 C.3        1 MOL1        -0.1858
      11    H5      18.180182   18.611364   22.335693 H          1 MOL1         0.0752
      12    H6      19.471272   17.912631   23.297740 H          1 MOL1         0.0752
      13    C5      20.145037   19.313204   21.765435 C.3        1 MOL1        -0.1858
      14    H7      20.229510   18.534579   20.996029 H          1 MOL1         0.0752
      15    H8      19.739605   20.195274   21.251578 H          1 MOL1         0.0752
      16    C6      21.560153   19.659068   22.299893 C.3        1 MOL1        -0.1858
      17    H9      21.498444   20.545376   22.944808 H          1 MOL1         0.0752
      18    H10     22.192035   19.953889   21.451191 H          1 MOL1         0.0752
      19    C7      22.267924   18.521578   23.076620 C.3        1 MOL1        -0.1834
      20    H11     23.242945   18.889110   23.424700 H          1 MOL1         0.0752
      21    H12     21.697875   18.269953   23.980812 H          1 MOL1         0.0752
      22    C8      22.489635   17.250122   22.229103 C.3        1 MOL1        -0.2849
      23    H13     23.044379   17.482101   21.310745 H          1 MOL1         0.0764
      24    H14     23.066235   16.506895   22.794677 H          1 MOL1         0.0764
      25    H15     21.535338   16.787425   21.947723 H          1 MOL1         0.0764
@<TRIPOS>BOND
    1     1     2    1
    2     1     3    2
    3     1     4    1
    4     4     5    1
    5     4     6    1
    6     4     7    1
    7     7     8    1
    8     7     9    1
    9     7    10    1
   10    10    11    1
   11    10    12    1
   12    10    13    1
   13    13    14    1
   14    13    15    1
   15    13    16    1
   16    16    17    1
   17    16    18    1
   18    16    19    1
   19    19    20    1
   20    19    21    1
   21    19    22    1
   22    22    23    1
   23    22    24    1
   24    22    25    1
@<TRIPOS>SUBSTRUCTURE
       1 MOL1            1 RESIDUE      1      MOL     
@<SCITEGIC>MOL_PROPERTY
VConf Rank
SciTegic.value.IntegerValue
279

@<SCITEGIC>MOL_PROPERTY
Conf_Id
SciTegic.value.IntegerValue
29

@<SCITEGIC>MOL_PROPERTY
Delta U+W
SciTegic.value.DoubleValue
0.850

@<SCITEGIC>MOL_PROPERTY
U+W
SciTegic.value.DoubleValue
-50.780

@<SCITEGIC>MOL_PROPERTY
Grad RMS
SciTegic.value.DoubleValue
0.000000

@<SCITEGIC>MOL_PROPERTY
U
SciTegic.value.DoubleValue
8.646

@<SCITEGIC>MOL_PROPERTY
W
SciTegic.value.DoubleValue
-59.426

@<SCITEGIC>MOL_PROPERTY
W(PB)
SciTegic.value.DoubleValue
-61.868

@<SCITEGIC>MOL_PROPERTY
W(SA)
SciTegic.value.DoubleValue
2.442

@<SCITEGIC>MOL_PROPERTY
Valence
SciTegic.value.DoubleValue
8.924

@<SCITEGIC>MOL_PROPERTY
Coulomb
SciTegic.value.DoubleValue
-1.171

@<SCITEGIC>MOL_PROPERTY
VdW
SciTegic.value.DoubleValue
0.894

@<SCITEGIC>MOL_PROPERTY
VdW6
SciTegic.value.DoubleValue
-10.223

@<SCITEGIC>MOL_PROPERTY
VdW12
SciTegic.value.DoubleValue
11.117

@<SCITEGIC>MOL_PROPERTY
Bond
SciTegic.value.DoubleValue
0.231

@<SCITEGIC>MOL_PROPERTY
Angle
SciTegic.value.DoubleValue
3.232

@<SCITEGIC>MOL_PROPERTY
Pdih
SciTegic.value.DoubleValue
5.461

@<SCITEGIC>MOL_PROPERTY
Idih
SciTegic.value.DoubleValue
0.001

@<SCITEGIC>MOL_PROPERTY
Tether
SciTegic.value.DoubleValue
0.000

@<TRIPOS>MOLECULE
guest-8_confgen4.mol2 : confsearch ligand conformer 280
          25          24           1
SMALL
USER_CHARGES
 
@<TRIPOS>ATOM
       1    C1      16.687083   18.102889   25.235065 C.2        1 MOL1         0.6168
       2    O1      16.796468   16.893007   25.265168 O.co2      1 MOL1        -0.6703
       3    O2      15.620425   18.680950   25.165612 O.co2      1 MOL1        -0.6703
       4    C2      17.959605   18.941837   25.267125 C.3        1 MOL1        -0.1963
       5    H1      18.706755   18.404920   25.863832 H          1 MOL1         0.0750
       6    H2      17.736905   19.878457   25.792128 H          1 MOL1         0.0750
       7    C3      18.519071   19.239939   23.854295 C.3        1 MOL1        -0.1860
       8    H3      18.715128   18.288630   23.342085 H          1 MOL1         0.0752
       9    H4      17.757521   19.770044   23.265931 H          1 MOL1         0.0752
      10    C4      19.812339   20.085095   23.915990 C.3        1 MOL1        -0.1858
      11    H5      20.587250   19.538863   24.469661 H          1 MOL1         0.0752
      12    H6      19.614451   20.999637   24.491380 H          1 MOL1         0.0752
      13    C5      20.349463   20.493050   22.521211 C.3        1 MOL1        -0.1858
      14    H7      19.597542   21.118507   22.021321 H          1 MOL1         0.0752
      15    H8      21.229161   21.136311   22.654360 H          1 MOL1         0.0752
      16    C6      20.716148   19.314058   21.581347 C.3        1 MOL1        -0.1858
      17    H9      21.100405   19.725305   20.638101 H          1 MOL1         0.0752
      18    H10     19.803861   18.764591   21.314730 H          1 MOL1         0.0752
      19    C7      21.754971   18.316100   22.149729 C.3        1 MOL1        -0.1834
      20    H11     21.355364   17.824806   23.046824 H          1 MOL1         0.0752
      21    H12     21.914171   17.518010   21.411751 H          1 MOL1         0.0752
      22    C8      23.115008   18.970500   22.475454 C.3        1 MOL1        -0.2849
      23    H13     23.020567   19.702933   23.286977 H          1 MOL1         0.0764
      24    H14     23.840276   18.211096   22.794861 H          1 MOL1         0.0764
      25    H15     23.525482   19.482114   21.595285 H          1 MOL1         0.0764
@<TRIPOS>BOND
    1     1     2    1
    2     1     3    2
    3     1     4    1
    4     4     5    1
    5     4     6    1
    6     4     7    1
    7     7     8    1
    8     7     9    1
    9     7    10    1
   10    10    11    1
   11    10    12    1
   12    10    13    1
   13    13    14    1
   14    13    15    1
   15    13    16    1
   16    16    17    1
   17    16    18    1
   18    16    19    1
   19    19    20    1
   20    19    21    1
   21    19    22    1
   22    22    23    1
   23    22    24    1
   24    22    25    1
@<TRIPOS>SUBSTRUCTURE
       1 MOL1            1 RESIDUE      1      MOL     
@<SCITEGIC>MOL_PROPERTY
VConf Rank
SciTegic.value.IntegerValue
280

@<SCITEGIC>MOL_PROPERTY
Conf_Id
SciTegic.value.IntegerValue
30

@<SCITEGIC>MOL_PROPERTY
Delta U+W
SciTegic.value.DoubleValue
0.843

@<SCITEGIC>MOL_PROPERTY
U+W
SciTegic.value.DoubleValue
-50.787

@<SCITEGIC>MOL_PROPERTY
Grad RMS
SciTegic.value.DoubleValue
0.000000

@<SCITEGIC>MOL_PROPERTY
U
SciTegic.value.DoubleValue
8.647

@<SCITEGIC>MOL_PROPERTY
W
SciTegic.value.DoubleValue
-59.434

@<SCITEGIC>MOL_PROPERTY
W(PB)
SciTegic.value.DoubleValue
-61.861

@<SCITEGIC>MOL_PROPERTY
W(SA)
SciTegic.value.DoubleValue
2.428

@<SCITEGIC>MOL_PROPERTY
Valence
SciTegic.value.DoubleValue
8.924

@<SCITEGIC>MOL_PROPERTY
Coulomb
SciTegic.value.DoubleValue
-1.170

@<SCITEGIC>MOL_PROPERTY
VdW
SciTegic.value.DoubleValue
0.894

@<SCITEGIC>MOL_PROPERTY
VdW6
SciTegic.value.DoubleValue
-10.224

@<SCITEGIC>MOL_PROPERTY
VdW12
SciTegic.value.DoubleValue
11.118

@<SCITEGIC>MOL_PROPERTY
Bond
SciTegic.value.DoubleValue
0.231

@<SCITEGIC>MOL_PROPERTY
Angle
SciTegic.value.DoubleValue
3.232

@<SCITEGIC>MOL_PROPERTY
Pdih
SciTegic.value.DoubleValue
5.460

@<SCITEGIC>MOL_PROPERTY
Idih
SciTegic.value.DoubleValue
0.000

@<SCITEGIC>MOL_PROPERTY
Tether
SciTegic.value.DoubleValue
0.000

@<TRIPOS>MOLECULE
guest-8_confgen4.mol2 : confsearch ligand conformer 281
          25          24           1
SMALL
USER_CHARGES
 
@<TRIPOS>ATOM
       1    C1      20.007973   14.891946   21.185375 C.2        1 MOL1         0.6168
       2    O1      18.797234   14.876406   21.073704 O.co2      1 MOL1        -0.6703
       3    O2      20.719116   13.972792   20.831044 O.co2      1 MOL1        -0.6703
       4    C2      20.697729   16.112239   21.797355 C.3        1 MOL1        -0.1963
       5    H1      21.416063   16.486428   21.058514 H          1 MOL1         0.0750
       6    H2      21.277129   15.761998   22.659640 H          1 MOL1         0.0750
       7    C3      19.748519   17.259686   22.234142 C.3        1 MOL1        -0.1860
       8    H3      19.166597   17.601389   21.366898 H          1 MOL1         0.0752
       9    H4      19.027568   16.876331   22.969515 H          1 MOL1         0.0752
      10    C4      20.525601   18.448900   22.839584 C.3        1 MOL1        -0.1858
      11    H5      21.245728   18.830440   22.102712 H          1 MOL1         0.0752
      12    H6      21.106593   18.104932   23.706342 H          1 MOL1         0.0752
      13    C5      19.579457   19.589139   23.273354 C.3        1 MOL1        -0.1858
      14    H7      18.998351   19.933334   22.406780 H          1 MOL1         0.0752
      15    H8      18.859235   19.207903   24.010269 H          1 MOL1         0.0752
      16    C6      20.355801   20.778526   23.878796 C.3        1 MOL1        -0.1858
      17    H9      21.076055   21.159957   23.142020 H          1 MOL1         0.0752
      18    H10     20.936905   20.434574   24.745461 H          1 MOL1         0.0752
      19    C7      19.410180   21.918339   24.312372 C.3        1 MOL1        -0.1834
      20    H11     18.828483   22.266312   23.447483 H          1 MOL1         0.0752
      21    H12     18.689338   21.540943   25.050915 H          1 MOL1         0.0752
      22    C8      20.189169   23.104071   24.916377 C.3        1 MOL1        -0.2849
      23    H13     20.896087   23.521755   24.187541 H          1 MOL1         0.0764
      24    H14     19.501761   23.904715   25.218910 H          1 MOL1         0.0764
      25    H15     20.755877   22.790937   25.803048 H          1 MOL1         0.0764
@<TRIPOS>BOND
    1     1     2    1
    2     1     3    2
    3     1     4    1
    4     4     5    1
    5     4     6    1
    6     4     7    1
    7     7     8    1
    8     7     9    1
    9     7    10    1
   10    10    11    1
   11    10    12    1
   12    10    13    1
   13    13    14    1
   14    13    15    1
   15    13    16    1
   16    16    17    1
   17    16    18    1
   18    16    19    1
   19    19    20    1
   20    19    21    1
   21    19    22    1
   22    22    23    1
   23    22    24    1
   24    22    25    1
@<TRIPOS>SUBSTRUCTURE
       1 MOL1            1 RESIDUE      1      MOL     
@<SCITEGIC>MOL_PROPERTY
VConf Rank
SciTegic.value.IntegerValue
281

@<SCITEGIC>MOL_PROPERTY
Conf_Id
SciTegic.value.IntegerValue
0

@<SCITEGIC>MOL_PROPERTY
Delta U+W
SciTegic.value.DoubleValue
0.000

@<SCITEGIC>MOL_PROPERTY
U+W
SciTegic.value.DoubleValue
-51.629

@<SCITEGIC>MOL_PROPERTY
Grad RMS
SciTegic.value.DoubleValue
0.000000

@<SCITEGIC>MOL_PROPERTY
U
SciTegic.value.DoubleValue
6.586

@<SCITEGIC>MOL_PROPERTY
W
SciTegic.value.DoubleValue
-58.216

@<SCITEGIC>MOL_PROPERTY
W(PB)
SciTegic.value.DoubleValue
-60.757

@<SCITEGIC>MOL_PROPERTY
W(SA)
SciTegic.value.DoubleValue
2.541

@<SCITEGIC>MOL_PROPERTY
Valence
SciTegic.value.DoubleValue
8.027

@<SCITEGIC>MOL_PROPERTY
Coulomb
SciTegic.value.DoubleValue
-2.892

@<SCITEGIC>MOL_PROPERTY
VdW
SciTegic.value.DoubleValue
1.451

@<SCITEGIC>MOL_PROPERTY
VdW6
SciTegic.value.DoubleValue
-7.931

@<SCITEGIC>MOL_PROPERTY
VdW12
SciTegic.value.DoubleValue
9.383

@<SCITEGIC>MOL_PROPERTY
Bond
SciTegic.value.DoubleValue
0.149

@<SCITEGIC>MOL_PROPERTY
Angle
SciTegic.value.DoubleValue
2.726

@<SCITEGIC>MOL_PROPERTY
Pdih
SciTegic.value.DoubleValue
5.152

@<SCITEGIC>MOL_PROPERTY
Idih
SciTegic.value.DoubleValue
0.000

@<SCITEGIC>MOL_PROPERTY
Tether
SciTegic.value.DoubleValue
0.000

@<TRIPOS>MOLECULE
guest-8_confgen4.mol2 : confsearch ligand conformer 282
          25          24           1
SMALL
USER_CHARGES
 
@<TRIPOS>ATOM
       1    C1      24.115865   19.780992   20.800739 C.2        1 MOL1         0.6168
       2    O1      24.182560   20.832840   20.195936 O.co2      1 MOL1        -0.6703
       3    O2      25.078253   19.223285   21.290017 O.co2      1 MOL1        -0.6703
       4    C2      22.745202   19.136845   20.975210 C.3        1 MOL1        -0.1963
       5    H1      22.879991   18.048670   20.992856 H          1 MOL1         0.0750
       6    H2      22.142041   19.374644   20.090759 H          1 MOL1         0.0750
       7    C3      22.019113   19.606670   22.259765 C.3        1 MOL1        -0.1860
       8    H3      22.641821   19.373230   23.134599 H          1 MOL1         0.0752
       9    H4      21.904035   20.699195   22.232582 H          1 MOL1         0.0752
      10    C4      20.634496   18.940962   22.413686 C.3        1 MOL1        -0.1858
      11    H5      20.752906   17.848947   22.439418 H          1 MOL1         0.0752
      12    H6      20.014991   19.175104   21.537003 H          1 MOL1         0.0752
      13    C5      19.912999   19.411381   23.694942 C.3        1 MOL1        -0.1858
      14    H7      20.532275   19.177283   24.571754 H          1 MOL1         0.0752
      15    H8      19.794475   20.503353   23.669402 H          1 MOL1         0.0752
      16    C6      18.528283   18.746135   23.849501 C.3        1 MOL1        -0.1858
      17    H9      18.646473   17.654133   23.875178 H          1 MOL1         0.0752
      18    H10     17.908752   18.980065   22.972829 H          1 MOL1         0.0752
      19    C7      17.806921   19.216291   25.130106 C.3        1 MOL1        -0.1834
      20    H11     18.422915   18.982235   26.009457 H          1 MOL1         0.0752
      21    H12     17.685173   20.308142   25.107104 H          1 MOL1         0.0752
      22    C8      16.424667   18.549764   25.280824 C.3        1 MOL1        -0.2849
      23    H13     15.926258   18.895198   26.195894 H          1 MOL1         0.0764
      24    H14     15.776127   18.793344   24.429084 H          1 MOL1         0.0764
      25    H15     16.519429   17.457463   25.338227 H          1 MOL1         0.0764
@<TRIPOS>BOND
    1     1     2    1
    2     1     3    2
    3     1     4    1
    4     4     5    1
    5     4     6    1
    6     4     7    1
    7     7     8    1
    8     7     9    1
    9     7    10    1
   10    10    11    1
   11    10    12    1
   12    10    13    1
   13    13    14    1
   14    13    15    1
   15    13    16    1
   16    16    17    1
   17    16    18    1
   18    16    19    1
   19    19    20    1
   20    19    21    1
   21    19    22    1
   22    22    23    1
   23    22    24    1
   24    22    25    1
@<TRIPOS>SUBSTRUCTURE
       1 MOL1            1 RESIDUE      1      MOL     
@<SCITEGIC>MOL_PROPERTY
VConf Rank
SciTegic.value.IntegerValue
282

@<SCITEGIC>MOL_PROPERTY
Conf_Id
SciTegic.value.IntegerValue
27

@<SCITEGIC>MOL_PROPERTY
Delta U+W
SciTegic.value.DoubleValue
-1.297

@<SCITEGIC>MOL_PROPERTY
U+W
SciTegic.value.DoubleValue
-52.926

@<SCITEGIC>MOL_PROPERTY
Grad RMS
SciTegic.value.DoubleValue
0.000000

@<SCITEGIC>MOL_PROPERTY
U
SciTegic.value.DoubleValue
5.617

@<SCITEGIC>MOL_PROPERTY
W
SciTegic.value.DoubleValue
-58.543

@<SCITEGIC>MOL_PROPERTY
W(PB)
SciTegic.value.DoubleValue
-61.065

@<SCITEGIC>MOL_PROPERTY
W(SA)
SciTegic.value.DoubleValue
2.522

@<SCITEGIC>MOL_PROPERTY
Valence
SciTegic.value.DoubleValue
7.531

@<SCITEGIC>MOL_PROPERTY
Coulomb
SciTegic.value.DoubleValue
-2.818

@<SCITEGIC>MOL_PROPERTY
VdW
SciTegic.value.DoubleValue
0.904

@<SCITEGIC>MOL_PROPERTY
VdW6
SciTegic.value.DoubleValue
-7.640

@<SCITEGIC>MOL_PROPERTY
VdW12
SciTegic.value.DoubleValue
8.544

@<SCITEGIC>MOL_PROPERTY
Bond
SciTegic.value.DoubleValue
0.115

@<SCITEGIC>MOL_PROPERTY
Angle
SciTegic.value.DoubleValue
2.271

@<SCITEGIC>MOL_PROPERTY
Pdih
SciTegic.value.DoubleValue
5.144

@<SCITEGIC>MOL_PROPERTY
Idih
SciTegic.value.DoubleValue
0.001

@<SCITEGIC>MOL_PROPERTY
Tether
SciTegic.value.DoubleValue
0.000

@<TRIPOS>MOLECULE
guest-8_confgen4.mol2 : confsearch ligand conformer 283
          25          24           1
SMALL
USER_CHARGES
 
@<TRIPOS>ATOM
       1    C1      23.679875   20.886288   24.374042 C.2        1 MOL1         0.6168
       2    O1      24.670052   20.286127   24.004675 O.co2      1 MOL1        -0.6703
       3    O2      23.356230   21.977260   23.947431 O.co2      1 MOL1        -0.6703
       4    C2      22.805444   20.239927   25.444814 C.3        1 MOL1        -0.1963
       5    H1      22.183130   21.017145   25.904710 H          1 MOL1         0.0750
       6    H2      23.472389   19.862152   26.228686 H          1 MOL1         0.0750
       7    C3      21.916414   19.083208   24.918913 C.3        1 MOL1        -0.1860
       8    H3      22.551145   18.326582   24.436932 H          1 MOL1         0.0752
       9    H4      21.430359   18.591022   25.772172 H          1 MOL1         0.0752
      10    C4      20.835363   19.568309   23.927058 C.3        1 MOL1        -0.1858
      11    H5      21.314735   20.046598   23.061689 H          1 MOL1         0.0752
      12    H6      20.212153   20.334037   24.409027 H          1 MOL1         0.0752
      13    C5      19.942319   18.406346   23.441314 C.3        1 MOL1        -0.1858
      14    H7      20.566382   17.641175   22.959498 H          1 MOL1         0.0752
      15    H8      19.459521   17.928455   24.304775 H          1 MOL1         0.0752
      16    C6      18.862427   18.890187   22.449553 C.3        1 MOL1        -0.1858
      17    H9      19.345095   19.368190   21.586029 H          1 MOL1         0.0752
      18    H10     18.238467   19.655634   22.931057 H          1 MOL1         0.0752
      19    C7      17.969865   17.729024   21.963341 C.3        1 MOL1        -0.1834
      20    H11     18.590590   16.962197   21.479439 H          1 MOL1         0.0752
      21    H12     17.483868   17.249685   22.824458 H          1 MOL1         0.0752
      22    C8      16.893032   18.216350   20.973115 C.3        1 MOL1        -0.2849
      23    H13     17.352415   18.672412   20.086338 H          1 MOL1         0.0764
      24    H14     16.268003   17.378451   20.637936 H          1 MOL1         0.0764
      25    H15     16.237372   18.962112   21.441456 H          1 MOL1         0.0764
@<TRIPOS>BOND
    1     1     2    1
    2     1     3    2
    3     1     4    1
    4     4     5    1
    5     4     6    1
    6     4     7    1
    7     7     8    1
    8     7     9    1
    9     7    10    1
   10    10    11    1
   11    10    12    1
   12    10    13    1
   13    13    14    1
   14    13    15    1
   15    13    16    1
   16    16    17    1
   17    16    18    1
   18    16    19    1
   19    19    20    1
   20    19    21    1
   21    19    22    1
   22    22    23    1
   23    22    24    1
   24    22    25    1
@<TRIPOS>SUBSTRUCTURE
       1 MOL1            1 RESIDUE      1      MOL     
@<SCITEGIC>MOL_PROPERTY
VConf Rank
SciTegic.value.IntegerValue
283

@<SCITEGIC>MOL_PROPERTY
Conf_Id
SciTegic.value.IntegerValue
37

@<SCITEGIC>MOL_PROPERTY
Delta U+W
SciTegic.value.DoubleValue
-0.230

@<SCITEGIC>MOL_PROPERTY
U+W
SciTegic.value.DoubleValue
-51.860

@<SCITEGIC>MOL_PROPERTY
Grad RMS
SciTegic.value.DoubleValue
0.000000

@<SCITEGIC>MOL_PROPERTY
U
SciTegic.value.DoubleValue
7.816

@<SCITEGIC>MOL_PROPERTY
W
SciTegic.value.DoubleValue
-59.675

@<SCITEGIC>MOL_PROPERTY
W(PB)
SciTegic.value.DoubleValue
-62.180

@<SCITEGIC>MOL_PROPERTY
W(SA)
SciTegic.value.DoubleValue
2.505

@<SCITEGIC>MOL_PROPERTY
Valence
SciTegic.value.DoubleValue
7.785

@<SCITEGIC>MOL_PROPERTY
Coulomb
SciTegic.value.DoubleValue
-0.713

@<SCITEGIC>MOL_PROPERTY
VdW
SciTegic.value.DoubleValue
0.744

@<SCITEGIC>MOL_PROPERTY
VdW6
SciTegic.value.DoubleValue
-8.514

@<SCITEGIC>MOL_PROPERTY
VdW12
SciTegic.value.DoubleValue
9.259

@<SCITEGIC>MOL_PROPERTY
Bond
SciTegic.value.DoubleValue
0.136

@<SCITEGIC>MOL_PROPERTY
Angle
SciTegic.value.DoubleValue
2.433

@<SCITEGIC>MOL_PROPERTY
Pdih
SciTegic.value.DoubleValue
5.216

@<SCITEGIC>MOL_PROPERTY
Idih
SciTegic.value.DoubleValue
0.000

@<SCITEGIC>MOL_PROPERTY
Tether
SciTegic.value.DoubleValue
0.000

@<TRIPOS>MOLECULE
guest-8_confgen4.mol2 : confsearch ligand conformer 284
          25          24           1
SMALL
USER_CHARGES
 
@<TRIPOS>ATOM
       1    C1      23.872708   20.315943   22.906861 C.2        1 MOL1         0.6168
       2    O1      24.099309   20.986915   21.919176 O.co2      1 MOL1        -0.6703
       3    O2      24.278584   19.180203   23.056271 O.co2      1 MOL1        -0.6703
       4    C2      23.046457   20.941921   24.026874 C.3        1 MOL1        -0.1963
       5    H1      23.437733   21.951697   24.197864 H          1 MOL1         0.0750
       6    H2      23.219504   20.373932   24.948985 H          1 MOL1         0.0750
       7    C3      21.527852   21.019255   23.722236 C.3        1 MOL1        -0.1860
       8    H3      21.035081   21.601971   24.512278 H          1 MOL1         0.0752
       9    H4      21.372689   21.566635   22.782038 H          1 MOL1         0.0752
      10    C4      20.868283   19.624832   23.631012 C.3        1 MOL1        -0.1858
      11    H5      21.037615   19.076726   24.567991 H          1 MOL1         0.0752
      12    H6      21.344510   19.041637   22.830690 H          1 MOL1         0.0752
      13    C5      19.351939   19.726255   23.358903 C.3        1 MOL1        -0.1858
      14    H7      18.873131   20.306584   24.159527 H          1 MOL1         0.0752
      15    H8      19.183631   20.274381   22.421717 H          1 MOL1         0.0752
      16    C6      18.692338   18.333301   23.266922 C.3        1 MOL1        -0.1858
      17    H9      18.860779   17.784887   24.203913 H          1 MOL1         0.0752
      18    H10     19.171146   17.752768   22.466390 H          1 MOL1         0.0752
      19    C7      17.176789   18.434150   22.994335 C.3        1 MOL1        -0.1834
      20    H11     16.694210   19.012770   23.794206 H          1 MOL1         0.0752
      21    H12     17.004615   18.980550   22.056632 H          1 MOL1         0.0752
      22    C8      16.521998   17.041116   22.903188 C.3        1 MOL1        -0.2849
      23    H13     16.651810   16.483981   23.840282 H          1 MOL1         0.0764
      24    H14     15.445322   17.131609   22.709119 H          1 MOL1         0.0764
      25    H15     16.964621   16.451497   22.089658 H          1 MOL1         0.0764
@<TRIPOS>BOND
    1     1     2    1
    2     1     3    2
    3     1     4    1
    4     4     5    1
    5     4     6    1
    6     4     7    1
    7     7     8    1
    8     7     9    1
    9     7    10    1
   10    10    11    1
   11    10    12    1
   12    10    13    1
   13    13    14    1
   14    13    15    1
   15    13    16    1
   16    16    17    1
   17    16    18    1
   18    16    19    1
   19    19    20    1
   20    19    21    1
   21    19    22    1
   22    22    23    1
   23    22    24    1
   24    22    25    1
@<TRIPOS>SUBSTRUCTURE
       1 MOL1            1 RESIDUE      1      MOL     
@<SCITEGIC>MOL_PROPERTY
VConf Rank
SciTegic.value.IntegerValue
284

@<SCITEGIC>MOL_PROPERTY
Conf_Id
SciTegic.value.IntegerValue
54

@<SCITEGIC>MOL_PROPERTY
Delta U+W
SciTegic.value.DoubleValue
-0.224

@<SCITEGIC>MOL_PROPERTY
U+W
SciTegic.value.DoubleValue
-51.854

@<SCITEGIC>MOL_PROPERTY
Grad RMS
SciTegic.value.DoubleValue
0.000000

@<SCITEGIC>MOL_PROPERTY
U
SciTegic.value.DoubleValue
7.816

@<SCITEGIC>MOL_PROPERTY
W
SciTegic.value.DoubleValue
-59.670

@<SCITEGIC>MOL_PROPERTY
W(PB)
SciTegic.value.DoubleValue
-62.157

@<SCITEGIC>MOL_PROPERTY
W(SA)
SciTegic.value.DoubleValue
2.487

@<SCITEGIC>MOL_PROPERTY
Valence
SciTegic.value.DoubleValue
7.785

@<SCITEGIC>MOL_PROPERTY
Coulomb
SciTegic.value.DoubleValue
-0.713

@<SCITEGIC>MOL_PROPERTY
VdW
SciTegic.value.DoubleValue
0.744

@<SCITEGIC>MOL_PROPERTY
VdW6
SciTegic.value.DoubleValue
-8.515

@<SCITEGIC>MOL_PROPERTY
VdW12
SciTegic.value.DoubleValue
9.259

@<SCITEGIC>MOL_PROPERTY
Bond
SciTegic.value.DoubleValue
0.136

@<SCITEGIC>MOL_PROPERTY
Angle
SciTegic.value.DoubleValue
2.433

@<SCITEGIC>MOL_PROPERTY
Pdih
SciTegic.value.DoubleValue
5.215

@<SCITEGIC>MOL_PROPERTY
Idih
SciTegic.value.DoubleValue
0.000

@<SCITEGIC>MOL_PROPERTY
Tether
SciTegic.value.DoubleValue
0.000

@<TRIPOS>MOLECULE
guest-8_confgen4.mol2 : confsearch ligand conformer 285
          25          24           1
SMALL
USER_CHARGES
 
@<TRIPOS>ATOM
       1    C1      17.916191   17.711180   26.403115 C.2        1 MOL1         0.6168
       2    O1      18.134050   16.515678   26.422163 O.co2      1 MOL1        -0.6703
       3    O2      17.996007   18.425079   27.383466 O.co2      1 MOL1        -0.6703
       4    C2      17.501448   18.349847   25.080512 C.3        1 MOL1        -0.1963
       5    H1      16.641923   18.998576   25.286273 H          1 MOL1         0.0750
       6    H2      17.149084   17.560638   24.405369 H          1 MOL1         0.0750
       7    C3      18.622459   19.176865   24.398574 C.3        1 MOL1        -0.1860
       8    H3      18.186326   19.717292   23.549144 H          1 MOL1         0.0752
       9    H4      18.993245   19.935774   25.101408 H          1 MOL1         0.0752
      10    C4      19.797242   18.295225   23.910162 C.3        1 MOL1        -0.1858
      11    H5      19.433348   17.566511   23.173050 H          1 MOL1         0.0752
      12    H6      20.183786   17.711117   24.756554 H          1 MOL1         0.0752
      13    C5      20.969405   19.104271   23.304824 C.3        1 MOL1        -0.1858
      14    H7      21.320485   19.845564   24.035443 H          1 MOL1         0.0752
      15    H8      21.805339   18.413583   23.136494 H          1 MOL1         0.0752
      16    C6      20.611511   19.810209   21.973512 C.3        1 MOL1        -0.1858
      17    H9      19.780589   20.506969   22.140749 H          1 MOL1         0.0752
      18    H10     20.255703   19.069094   21.244975 H          1 MOL1         0.0752
      19    C7      21.788679   20.608683   21.365893 C.3        1 MOL1        -0.1834
      20    H11     21.416160   21.185160   20.507901 H          1 MOL1         0.0752
      21    H12     22.155600   21.342788   22.096481 H          1 MOL1         0.0752
      22    C8      22.957011   19.716625   20.892426 C.3        1 MOL1        -0.2849
      23    H13     23.443758   19.210880   21.735458 H          1 MOL1         0.0764
      24    H14     22.606760   18.951970   20.186920 H          1 MOL1         0.0764
      25    H15     23.719261   20.321161   20.384080 H          1 MOL1         0.0764
@<TRIPOS>BOND
    1     1     2    1
    2     1     3    2
    3     1     4    1
    4     4     5    1
    5     4     6    1
    6     4     7    1
    7     7     8    1
    8     7     9    1
    9     7    10    1
   10    10    11    1
   11    10    12    1
   12    10    13    1
   13    13    14    1
   14    13    15    1
   15    13    16    1
   16    16    17    1
   17    16    18    1
   18    16    19    1
   19    19    20    1
   20    19    21    1
   21    19    22    1
   22    22    23    1
   23    22    24    1
   24    22    25    1
@<TRIPOS>SUBSTRUCTURE
       1 MOL1            1 RESIDUE      1      MOL     
@<SCITEGIC>MOL_PROPERTY
VConf Rank
SciTegic.value.IntegerValue
285

@<SCITEGIC>MOL_PROPERTY
Conf_Id
SciTegic.value.IntegerValue
101

@<SCITEGIC>MOL_PROPERTY
Delta U+W
SciTegic.value.DoubleValue
1.534

@<SCITEGIC>MOL_PROPERTY
U+W
SciTegic.value.DoubleValue
-50.095

@<SCITEGIC>MOL_PROPERTY
Grad RMS
SciTegic.value.DoubleValue
0.000000

@<SCITEGIC>MOL_PROPERTY
U
SciTegic.value.DoubleValue
9.416

@<SCITEGIC>MOL_PROPERTY
W
SciTegic.value.DoubleValue
-59.512

@<SCITEGIC>MOL_PROPERTY
W(PB)
SciTegic.value.DoubleValue
-61.988

@<SCITEGIC>MOL_PROPERTY
W(SA)
SciTegic.value.DoubleValue
2.476

@<SCITEGIC>MOL_PROPERTY
Valence
SciTegic.value.DoubleValue
8.939

@<SCITEGIC>MOL_PROPERTY
Coulomb
SciTegic.value.DoubleValue
-0.615

@<SCITEGIC>MOL_PROPERTY
VdW
SciTegic.value.DoubleValue
1.092

@<SCITEGIC>MOL_PROPERTY
VdW6
SciTegic.value.DoubleValue
-9.710

@<SCITEGIC>MOL_PROPERTY
VdW12
SciTegic.value.DoubleValue
10.802

@<SCITEGIC>MOL_PROPERTY
Bond
SciTegic.value.DoubleValue
0.216

@<SCITEGIC>MOL_PROPERTY
Angle
SciTegic.value.DoubleValue
2.979

@<SCITEGIC>MOL_PROPERTY
Pdih
SciTegic.value.DoubleValue
5.743

@<SCITEGIC>MOL_PROPERTY
Idih
SciTegic.value.DoubleValue
0.000

@<SCITEGIC>MOL_PROPERTY
Tether
SciTegic.value.DoubleValue
0.000

@<TRIPOS>MOLECULE
guest-8_confgen4.mol2 : confsearch ligand conformer 286
          25          24           1
SMALL
USER_CHARGES
 
@<TRIPOS>ATOM
       1    C1      22.473610   22.452326   24.400846 C.2        1 MOL1         0.6168
       2    O1      22.130936   22.783163   25.518817 O.co2      1 MOL1        -0.6703
       3    O2      23.550104   22.737998   23.914709 O.co2      1 MOL1        -0.6703
       4    C2      21.508797   21.613310   23.570572 C.3        1 MOL1        -0.1963
       5    H1      21.663014   21.863753   22.514241 H          1 MOL1         0.0750
       6    H2      20.490516   21.920868   23.833007 H          1 MOL1         0.0750
       7    C3      21.696253   20.089741   23.792280 C.3        1 MOL1        -0.1860
       8    H3      22.750628   19.836423   23.614656 H          1 MOL1         0.0752
       9    H4      21.491347   19.843016   24.843203 H          1 MOL1         0.0752
      10    C4      20.815791   19.214563   22.868397 C.3        1 MOL1        -0.1858
      11    H5      21.122750   18.169055   22.999464 H          1 MOL1         0.0752
      12    H6      21.015215   19.469752   21.818790 H          1 MOL1         0.0752
      13    C5      19.300354   19.343291   23.159570 C.3        1 MOL1        -0.1858
      14    H7      19.100906   19.087518   24.208291 H          1 MOL1         0.0752
      15    H8      18.992560   20.389277   23.037526 H          1 MOL1         0.0752
      16    C6      18.415490   18.478176   22.226324 C.3        1 MOL1        -0.1858
      17    H9      18.564527   18.807965   21.189162 H          1 MOL1         0.0752
      18    H10     17.360761   18.678729   22.458691 H          1 MOL1         0.0752
      19    C7      18.659507   16.950447   22.303535 C.3        1 MOL1        -0.1834
      20    H11     17.979929   16.452646   21.598262 H          1 MOL1         0.0752
      21    H12     19.675564   16.710297   21.963977 H          1 MOL1         0.0752
      22    C8      18.428591   16.363550   23.712851 C.3        1 MOL1        -0.2849
      23    H13     17.425536   16.612590   24.082768 H          1 MOL1         0.0764
      24    H14     18.520791   15.269981   23.693593 H          1 MOL1         0.0764
      25    H15     19.165825   16.746687   24.429630 H          1 MOL1         0.0764
@<TRIPOS>BOND
    1     1     2    1
    2     1     3    2
    3     1     4    1
    4     4     5    1
    5     4     6    1
    6     4     7    1
    7     7     8    1
    8     7     9    1
    9     7    10    1
   10    10    11    1
   11    10    12    1
   12    10    13    1
   13    13    14    1
   14    13    15    1
   15    13    16    1
   16    16    17    1
   17    16    18    1
   18    16    19    1
   19    19    20    1
   20    19    21    1
   21    19    22    1
   22    22    23    1
   23    22    24    1
   24    22    25    1
@<TRIPOS>SUBSTRUCTURE
       1 MOL1            1 RESIDUE      1      MOL     
@<SCITEGIC>MOL_PROPERTY
VConf Rank
SciTegic.value.IntegerValue
286

@<SCITEGIC>MOL_PROPERTY
Conf_Id
SciTegic.value.IntegerValue
75

@<SCITEGIC>MOL_PROPERTY
Delta U+W
SciTegic.value.DoubleValue
1.014

@<SCITEGIC>MOL_PROPERTY
U+W
SciTegic.value.DoubleValue
-50.615

@<SCITEGIC>MOL_PROPERTY
Grad RMS
SciTegic.value.DoubleValue
0.000000

@<SCITEGIC>MOL_PROPERTY
U
SciTegic.value.DoubleValue
8.474

@<SCITEGIC>MOL_PROPERTY
W
SciTegic.value.DoubleValue
-59.089

@<SCITEGIC>MOL_PROPERTY
W(PB)
SciTegic.value.DoubleValue
-61.530

@<SCITEGIC>MOL_PROPERTY
W(SA)
SciTegic.value.DoubleValue
2.441

@<SCITEGIC>MOL_PROPERTY
Valence
SciTegic.value.DoubleValue
9.080

@<SCITEGIC>MOL_PROPERTY
Coulomb
SciTegic.value.DoubleValue
-1.772

@<SCITEGIC>MOL_PROPERTY
VdW
SciTegic.value.DoubleValue
1.165

@<SCITEGIC>MOL_PROPERTY
VdW6
SciTegic.value.DoubleValue
-9.830

@<SCITEGIC>MOL_PROPERTY
VdW12
SciTegic.value.DoubleValue
10.996

@<SCITEGIC>MOL_PROPERTY
Bond
SciTegic.value.DoubleValue
0.240

@<SCITEGIC>MOL_PROPERTY
Angle
SciTegic.value.DoubleValue
3.225

@<SCITEGIC>MOL_PROPERTY
Pdih
SciTegic.value.DoubleValue
5.615

@<SCITEGIC>MOL_PROPERTY
Idih
SciTegic.value.DoubleValue
0.001

@<SCITEGIC>MOL_PROPERTY
Tether
SciTegic.value.DoubleValue
0.000

@<TRIPOS>MOLECULE
guest-8_confgen4.mol2 : confsearch ligand conformer 287
          25          24           1
SMALL
USER_CHARGES
 
@<TRIPOS>ATOM
       1    C1      23.959750   17.653263   22.472342 C.2        1 MOL1         0.6168
       2    O1      24.570424   18.487348   21.833569 O.co2      1 MOL1        -0.6703
       3    O2      24.494936   16.817010   23.173004 O.co2      1 MOL1        -0.6703
       4    C2      22.436714   17.670392   22.407930 C.3        1 MOL1        -0.1963
       5    H1      22.079678   16.638735   22.511701 H          1 MOL1         0.0750
       6    H2      22.141866   18.016853   21.410114 H          1 MOL1         0.0750
       7    C3      21.798704   18.568960   23.495864 C.3        1 MOL1        -0.1860
       8    H3      22.113794   18.217171   24.488063 H          1 MOL1         0.0752
       9    H4      22.176476   19.595018   23.386188 H          1 MOL1         0.0752
      10    C4      20.257101   18.570814   23.408651 C.3        1 MOL1        -0.1858
      11    H5      19.884098   17.543361   23.518299 H          1 MOL1         0.0752
      12    H6      19.950817   18.911860   22.412613 H          1 MOL1         0.0752
      13    C5      19.624513   19.464873   24.501000 C.3        1 MOL1        -0.1858
      14    H7      19.928160   19.073238   25.481478 H          1 MOL1         0.0752
      15    H8      20.027210   20.485188   24.440890 H          1 MOL1         0.0752
      16    C6      18.075977   19.500848   24.444745 C.3        1 MOL1        -0.1858
      17    H9      17.698089   19.548969   25.475159 H          1 MOL1         0.0752
      18    H10     17.687715   18.561321   24.028358 H          1 MOL1         0.0752
      19    C7      17.484707   20.708100   23.675428 C.3        1 MOL1        -0.1834
      20    H11     16.390312   20.678147   23.768016 H          1 MOL1         0.0752
      21    H12     17.807783   21.643173   24.153442 H          1 MOL1         0.0752
      22    C8      17.852895   20.745399   22.177623 C.3        1 MOL1        -0.2849
      23    H13     17.601883   19.796472   21.686205 H          1 MOL1         0.0764
      24    H14     17.303716   21.547050   21.667220 H          1 MOL1         0.0764
      25    H15     18.923858   20.938483   22.038397 H          1 MOL1         0.0764
@<TRIPOS>BOND
    1     1     2    1
    2     1     3    2
    3     1     4    1
    4     4     5    1
    5     4     6    1
    6     4     7    1
    7     7     8    1
    8     7     9    1
    9     7    10    1
   10    10    11    1
   11    10    12    1
   12    10    13    1
   13    13    14    1
   14    13    15    1
   15    13    16    1
   16    16    17    1
   17    16    18    1
   18    16    19    1
   19    19    20    1
   20    19    21    1
   21    19    22    1
   22    22    23    1
   23    22    24    1
   24    22    25    1
@<TRIPOS>SUBSTRUCTURE
       1 MOL1            1 RESIDUE      1      MOL     
@<SCITEGIC>MOL_PROPERTY
VConf Rank
SciTegic.value.IntegerValue
287

@<SCITEGIC>MOL_PROPERTY
Conf_Id
SciTegic.value.IntegerValue
125

@<SCITEGIC>MOL_PROPERTY
Delta U+W
SciTegic.value.DoubleValue
2.314

@<SCITEGIC>MOL_PROPERTY
U+W
SciTegic.value.DoubleValue
-49.315

@<SCITEGIC>MOL_PROPERTY
Grad RMS
SciTegic.value.DoubleValue
0.000000

@<SCITEGIC>MOL_PROPERTY
U
SciTegic.value.DoubleValue
9.740

@<SCITEGIC>MOL_PROPERTY
W
SciTegic.value.DoubleValue
-59.054

@<SCITEGIC>MOL_PROPERTY
W(PB)
SciTegic.value.DoubleValue
-61.488

@<SCITEGIC>MOL_PROPERTY
W(SA)
SciTegic.value.DoubleValue
2.433

@<SCITEGIC>MOL_PROPERTY
Valence
SciTegic.value.DoubleValue
10.506

@<SCITEGIC>MOL_PROPERTY
Coulomb
SciTegic.value.DoubleValue
-1.761

@<SCITEGIC>MOL_PROPERTY
VdW
SciTegic.value.DoubleValue
0.994

@<SCITEGIC>MOL_PROPERTY
VdW6
SciTegic.value.DoubleValue
-9.209

@<SCITEGIC>MOL_PROPERTY
VdW12
SciTegic.value.DoubleValue
10.203

@<SCITEGIC>MOL_PROPERTY
Bond
SciTegic.value.DoubleValue
0.193

@<SCITEGIC>MOL_PROPERTY
Angle
SciTegic.value.DoubleValue
2.979

@<SCITEGIC>MOL_PROPERTY
Pdih
SciTegic.value.DoubleValue
7.334

@<SCITEGIC>MOL_PROPERTY
Idih
SciTegic.value.DoubleValue
0.001

@<SCITEGIC>MOL_PROPERTY
Tether
SciTegic.value.DoubleValue
0.000

@<TRIPOS>MOLECULE
guest-8_confgen4.mol2 : confsearch ligand conformer 288
          25          24           1
SMALL
USER_CHARGES
 
@<TRIPOS>ATOM
       1    C1      17.666484   21.985976   24.935897 C.2        1 MOL1         0.6168
       2    O1      17.863364   22.992480   24.284068 O.co2      1 MOL1        -0.6703
       3    O2      16.987554   21.958572   25.943392 O.co2      1 MOL1        -0.6703
       4    C2      18.327415   20.690761   24.478068 C.3        1 MOL1        -0.1963
       5    H1      18.376905   20.711196   23.383604 H          1 MOL1         0.0750
       6    H2      17.672948   19.857119   24.759260 H          1 MOL1         0.0750
       7    C3      19.740042   20.491011   25.086200 C.3        1 MOL1        -0.1860
       8    H3      20.398983   21.307228   24.759218 H          1 MOL1         0.0752
       9    H4      19.667449   20.570419   26.179759 H          1 MOL1         0.0752
      10    C4      20.379664   19.127922   24.729796 C.3        1 MOL1        -0.1858
      11    H5      19.723115   18.313981   25.066569 H          1 MOL1         0.0752
      12    H6      21.316626   19.025149   25.294110 H          1 MOL1         0.0752
      13    C5      20.679547   18.964703   23.221610 C.3        1 MOL1        -0.1858
      14    H7      19.741302   18.997783   22.654839 H          1 MOL1         0.0752
      15    H8      21.295147   19.806492   22.876658 H          1 MOL1         0.0752
      16    C6      21.412122   17.635055   22.927374 C.3        1 MOL1        -0.1858
      17    H9      20.778777   16.789376   23.228354 H          1 MOL1         0.0752
      18    H10     22.318092   17.580971   23.546354 H          1 MOL1         0.0752
      19    C7      21.821179   17.472977   21.444734 C.3        1 MOL1        -0.1834
      20    H11     22.459357   18.314556   21.141780 H          1 MOL1         0.0752
      21    H12     22.434955   16.567053   21.345703 H          1 MOL1         0.0752
      22    C8      20.615813   17.363554   20.485722 C.3        1 MOL1        -0.2849
      23    H13     20.036238   18.294810   20.462432 H          1 MOL1         0.0764
      24    H14     20.956829   17.159347   19.462539 H          1 MOL1         0.0764
      25    H15     19.946046   16.547919   20.787811 H          1 MOL1         0.0764
@<TRIPOS>BOND
    1     1     2    1
    2     1     3    2
    3     1     4    1
    4     4     5    1
    5     4     6    1
    6     4     7    1
    7     7     8    1
    8     7     9    1
    9     7    10    1
   10    10    11    1
   11    10    12    1
   12    10    13    1
   13    13    14    1
   14    13    15    1
   15    13    16    1
   16    16    17    1
   17    16    18    1
   18    16    19    1
   19    19    20    1
   20    19    21    1
   21    19    22    1
   22    22    23    1
   23    22    24    1
   24    22    25    1
@<TRIPOS>SUBSTRUCTURE
       1 MOL1            1 RESIDUE      1      MOL     
@<SCITEGIC>MOL_PROPERTY
VConf Rank
SciTegic.value.IntegerValue
288

@<SCITEGIC>MOL_PROPERTY
Conf_Id
SciTegic.value.IntegerValue
4

@<SCITEGIC>MOL_PROPERTY
Delta U+W
SciTegic.value.DoubleValue
0.189

@<SCITEGIC>MOL_PROPERTY
U+W
SciTegic.value.DoubleValue
-51.441

@<SCITEGIC>MOL_PROPERTY
Grad RMS
SciTegic.value.DoubleValue
0.000000

@<SCITEGIC>MOL_PROPERTY
U
SciTegic.value.DoubleValue
7.701

@<SCITEGIC>MOL_PROPERTY
W
SciTegic.value.DoubleValue
-59.141

@<SCITEGIC>MOL_PROPERTY
W(PB)
SciTegic.value.DoubleValue
-61.609

@<SCITEGIC>MOL_PROPERTY
W(SA)
SciTegic.value.DoubleValue
2.467

@<SCITEGIC>MOL_PROPERTY
Valence
SciTegic.value.DoubleValue
8.550

@<SCITEGIC>MOL_PROPERTY
Coulomb
SciTegic.value.DoubleValue
-1.988

@<SCITEGIC>MOL_PROPERTY
VdW
SciTegic.value.DoubleValue
1.139

@<SCITEGIC>MOL_PROPERTY
VdW6
SciTegic.value.DoubleValue
-8.988

@<SCITEGIC>MOL_PROPERTY
VdW12
SciTegic.value.DoubleValue
10.127

@<SCITEGIC>MOL_PROPERTY
Bond
SciTegic.value.DoubleValue
0.191

@<SCITEGIC>MOL_PROPERTY
Angle
SciTegic.value.DoubleValue
2.738

@<SCITEGIC>MOL_PROPERTY
Pdih
SciTegic.value.DoubleValue
5.621

@<SCITEGIC>MOL_PROPERTY
Idih
SciTegic.value.DoubleValue
0.001

@<SCITEGIC>MOL_PROPERTY
Tether
SciTegic.value.DoubleValue
0.000

@<TRIPOS>MOLECULE
guest-8_confgen4.mol2 : confsearch ligand conformer 289
          25          24           1
SMALL
USER_CHARGES
 
@<TRIPOS>ATOM
       1    C1      20.572062   17.004506   26.696848 C.2        1 MOL1         0.6168
       2    O1      19.689138   16.169700   26.681412 O.co2      1 MOL1        -0.6703
       3    O2      21.475878   17.013406   27.509115 O.co2      1 MOL1        -0.6703
       4    C2      20.558436   18.087023   25.623538 C.3        1 MOL1        -0.1963
       5    H1      20.994531   18.996968   26.052697 H          1 MOL1         0.0750
       6    H2      19.511560   18.307828   25.386860 H          1 MOL1         0.0750
       7    C3      21.333121   17.673576   24.345194 C.3        1 MOL1        -0.1860
       8    H3      22.349143   17.368711   24.631903 H          1 MOL1         0.0752
       9    H4      20.858470   16.788930   23.898608 H          1 MOL1         0.0752
      10    C4      21.433291   18.801580   23.290809 C.3        1 MOL1        -0.1858
      11    H5      22.092503   18.462394   22.480067 H          1 MOL1         0.0752
      12    H6      21.917121   19.680998   23.737468 H          1 MOL1         0.0752
      13    C5      20.066432   19.207266   22.692218 C.3        1 MOL1        -0.1858
      14    H7      19.562960   18.317381   22.290740 H          1 MOL1         0.0752
      15    H8      19.424175   19.611542   23.483857 H          1 MOL1         0.0752
      16    C6      20.225839   20.259972   21.570790 C.3        1 MOL1        -0.1858
      17    H9      20.920531   19.873060   20.812802 H          1 MOL1         0.0752
      18    H10     20.686825   21.169344   21.979962 H          1 MOL1         0.0752
      19    C7      18.893676   20.623708   20.874475 C.3        1 MOL1        -0.1834
      20    H11     19.110399   21.280166   20.020471 H          1 MOL1         0.0752
      21    H12     18.432326   19.716984   20.459368 H          1 MOL1         0.0752
      22    C8      17.890426   21.336773   21.807007 C.3        1 MOL1        -0.2849
      23    H13     18.340665   22.230104   22.259061 H          1 MOL1         0.0764
      24    H14     17.002438   21.653562   21.244852 H          1 MOL1         0.0764
      25    H15     17.553119   20.674702   22.614208 H          1 MOL1         0.0764
@<TRIPOS>BOND
    1     1     2    1
    2     1     3    2
    3     1     4    1
    4     4     5    1
    5     4     6    1
    6     4     7    1
    7     7     8    1
    8     7     9    1
    9     7    10    1
   10    10    11    1
   11    10    12    1
   12    10    13    1
   13    13    14    1
   14    13    15    1
   15    13    16    1
   16    16    17    1
   17    16    18    1
   18    16    19    1
   19    19    20    1
   20    19    21    1
   21    19    22    1
   22    22    23    1
   23    22    24    1
   24    22    25    1
@<TRIPOS>SUBSTRUCTURE
       1 MOL1            1 RESIDUE      1      MOL     
@<SCITEGIC>MOL_PROPERTY
VConf Rank
SciTegic.value.IntegerValue
289

@<SCITEGIC>MOL_PROPERTY
Conf_Id
SciTegic.value.IntegerValue
17

@<SCITEGIC>MOL_PROPERTY
Delta U+W
SciTegic.value.DoubleValue
0.219

@<SCITEGIC>MOL_PROPERTY
U+W
SciTegic.value.DoubleValue
-51.411

@<SCITEGIC>MOL_PROPERTY
Grad RMS
SciTegic.value.DoubleValue
0.000000

@<SCITEGIC>MOL_PROPERTY
U
SciTegic.value.DoubleValue
7.701

@<SCITEGIC>MOL_PROPERTY
W
SciTegic.value.DoubleValue
-59.111

@<SCITEGIC>MOL_PROPERTY
W(PB)
SciTegic.value.DoubleValue
-61.599

@<SCITEGIC>MOL_PROPERTY
W(SA)
SciTegic.value.DoubleValue
2.488

@<SCITEGIC>MOL_PROPERTY
Valence
SciTegic.value.DoubleValue
8.550

@<SCITEGIC>MOL_PROPERTY
Coulomb
SciTegic.value.DoubleValue
-1.988

@<SCITEGIC>MOL_PROPERTY
VdW
SciTegic.value.DoubleValue
1.139

@<SCITEGIC>MOL_PROPERTY
VdW6
SciTegic.value.DoubleValue
-8.988

@<SCITEGIC>MOL_PROPERTY
VdW12
SciTegic.value.DoubleValue
10.127

@<SCITEGIC>MOL_PROPERTY
Bond
SciTegic.value.DoubleValue
0.191

@<SCITEGIC>MOL_PROPERTY
Angle
SciTegic.value.DoubleValue
2.738

@<SCITEGIC>MOL_PROPERTY
Pdih
SciTegic.value.DoubleValue
5.621

@<SCITEGIC>MOL_PROPERTY
Idih
SciTegic.value.DoubleValue
0.001

@<SCITEGIC>MOL_PROPERTY
Tether
SciTegic.value.DoubleValue
0.000

@<TRIPOS>MOLECULE
guest-8_confgen4.mol2 : confsearch ligand conformer 290
          25          24           1
SMALL
USER_CHARGES
 
@<TRIPOS>ATOM
       1    C1      21.776023   16.442251   25.074294 C.2        1 MOL1         0.6168
       2    O1      21.311435   15.382897   24.701484 O.co2      1 MOL1        -0.6703
       3    O2      21.715016   16.836917   26.222159 O.co2      1 MOL1        -0.6703
       4    C2      22.492870   17.317830   24.050368 C.3        1 MOL1        -0.1963
       5    H1      22.775922   16.694296   23.193712 H          1 MOL1         0.0750
       6    H2      23.424827   17.665948   24.511077 H          1 MOL1         0.0750
       7    C3      21.662422   18.538163   23.574931 C.3        1 MOL1        -0.1860
       8    H3      21.375188   19.135363   24.450440 H          1 MOL1         0.0752
       9    H4      22.296544   19.178595   22.947236 H          1 MOL1         0.0752
      10    C4      20.404801   18.122667   22.774615 C.3        1 MOL1        -0.1858
      11    H5      19.729584   17.540065   23.416471 H          1 MOL1         0.0752
      12    H6      20.706850   17.454257   21.956788 H          1 MOL1         0.0752
      13    C5      19.634998   19.321192   22.170742 C.3        1 MOL1        -0.1858
      14    H7      20.305835   19.900264   21.521509 H          1 MOL1         0.0752
      15    H8      18.836922   18.931482   21.524166 H          1 MOL1         0.0752
      16    C6      19.009155   20.250980   23.236034 C.3        1 MOL1        -0.1858
      17    H9      19.799566   20.709254   23.844445 H          1 MOL1         0.0752
      18    H10     18.382310   19.659176   23.917010 H          1 MOL1         0.0752
      19    C7      18.158840   21.365854   22.591234 C.3        1 MOL1        -0.1834
      20    H11     18.782657   21.958654   21.907934 H          1 MOL1         0.0752
      21    H12     17.358224   20.918632   21.985900 H          1 MOL1         0.0752
      22    C8      17.538490   22.294365   23.654604 C.3        1 MOL1        -0.2849
      23    H13     18.318704   22.780831   24.254605 H          1 MOL1         0.0764
      24    H14     16.937452   23.080196   23.178916 H          1 MOL1         0.0764
      25    H15     16.884570   21.731800   24.333787 H          1 MOL1         0.0764
@<TRIPOS>BOND
    1     1     2    1
    2     1     3    2
    3     1     4    1
    4     4     5    1
    5     4     6    1
    6     4     7    1
    7     7     8    1
    8     7     9    1
    9     7    10    1
   10    10    11    1
   11    10    12    1
   12    10    13    1
   13    13    14    1
   14    13    15    1
   15    13    16    1
   16    16    17    1
   17    16    18    1
   18    16    19    1
   19    19    20    1
   20    19    21    1
   21    19    22    1
   22    22    23    1
   23    22    24    1
   24    22    25    1
@<TRIPOS>SUBSTRUCTURE
       1 MOL1            1 RESIDUE      1      MOL     
@<SCITEGIC>MOL_PROPERTY
VConf Rank
SciTegic.value.IntegerValue
290

@<SCITEGIC>MOL_PROPERTY
Conf_Id
SciTegic.value.IntegerValue
142

@<SCITEGIC>MOL_PROPERTY
Delta U+W
SciTegic.value.DoubleValue
0.593

@<SCITEGIC>MOL_PROPERTY
U+W
SciTegic.value.DoubleValue
-51.037

@<SCITEGIC>MOL_PROPERTY
Grad RMS
SciTegic.value.DoubleValue
0.000000

@<SCITEGIC>MOL_PROPERTY
U
SciTegic.value.DoubleValue
8.903

@<SCITEGIC>MOL_PROPERTY
W
SciTegic.value.DoubleValue
-59.940

@<SCITEGIC>MOL_PROPERTY
W(PB)
SciTegic.value.DoubleValue
-62.418

@<SCITEGIC>MOL_PROPERTY
W(SA)
SciTegic.value.DoubleValue
2.478

@<SCITEGIC>MOL_PROPERTY
Valence
SciTegic.value.DoubleValue
8.305

@<SCITEGIC>MOL_PROPERTY
Coulomb
SciTegic.value.DoubleValue
-0.223

@<SCITEGIC>MOL_PROPERTY
VdW
SciTegic.value.DoubleValue
0.821

@<SCITEGIC>MOL_PROPERTY
VdW6
SciTegic.value.DoubleValue
-9.236

@<SCITEGIC>MOL_PROPERTY
VdW12
SciTegic.value.DoubleValue
10.057

@<SCITEGIC>MOL_PROPERTY
Bond
SciTegic.value.DoubleValue
0.173

@<SCITEGIC>MOL_PROPERTY
Angle
SciTegic.value.DoubleValue
2.663

@<SCITEGIC>MOL_PROPERTY
Pdih
SciTegic.value.DoubleValue
5.469

@<SCITEGIC>MOL_PROPERTY
Idih
SciTegic.value.DoubleValue
0.001

@<SCITEGIC>MOL_PROPERTY
Tether
SciTegic.value.DoubleValue
0.000

@<TRIPOS>MOLECULE
guest-8_confgen4.mol2 : confsearch ligand conformer 291
          25          24           1
SMALL
USER_CHARGES
 
@<TRIPOS>ATOM
       1    C1      20.928007   22.052548   25.328302 C.2        1 MOL1         0.6168
       2    O1      21.806307   22.882408   25.460512 O.co2      1 MOL1        -0.6703
       3    O2      19.744126   22.325790   25.299644 O.co2      1 MOL1        -0.6703
       4    C2      21.335719   20.585896   25.220406 C.3        1 MOL1        -0.1963
       5    H1      20.450229   19.961822   25.386946 H          1 MOL1         0.0750
       6    H2      22.023252   20.376603   26.048061 H          1 MOL1         0.0750
       7    C3      22.020588   20.215502   23.876570 C.3        1 MOL1        -0.1860
       8    H3      22.939367   20.809307   23.774501 H          1 MOL1         0.0752
       9    H4      22.343117   19.166900   23.912007 H          1 MOL1         0.0752
      10    C4      21.138622   20.448181   22.622521 C.3        1 MOL1        -0.1858
      11    H5      21.712565   20.163899   21.730125 H          1 MOL1         0.0752
      12    H6      20.937513   21.523553   22.521448 H          1 MOL1         0.0752
      13    C5      19.787940   19.689303   22.613090 C.3        1 MOL1        -0.1858
      14    H7      19.154428   20.044262   23.436996 H          1 MOL1         0.0752
      15    H8      19.254065   19.946839   21.688327 H          1 MOL1         0.0752
      16    C6      19.941468   18.152870   22.693522 C.3        1 MOL1        -0.1858
      17    H9      20.408804   17.873928   23.646881 H          1 MOL1         0.0752
      18    H10     20.611253   17.808467   21.893866 H          1 MOL1         0.0752
      19    C7      18.580151   17.436485   22.570869 C.3        1 MOL1        -0.1834
      20    H11     17.907650   17.781620   23.368428 H          1 MOL1         0.0752
      21    H12     18.105905   17.702204   21.615957 H          1 MOL1         0.0752
      22    C8      18.734245   15.904667   22.657372 C.3        1 MOL1        -0.2849
      23    H13     19.177202   15.608112   23.617169 H          1 MOL1         0.0764
      24    H14     17.757390   15.411874   22.568236 H          1 MOL1         0.0764
      25    H15     19.378428   15.528721   21.851738 H          1 MOL1         0.0764
@<TRIPOS>BOND
    1     1     2    1
    2     1     3    2
    3     1     4    1
    4     4     5    1
    5     4     6    1
    6     4     7    1
    7     7     8    1
    8     7     9    1
    9     7    10    1
   10    10    11    1
   11    10    12    1
   12    10    13    1
   13    13    14    1
   14    13    15    1
   15    13    16    1
   16    16    17    1
   17    16    18    1
   18    16    19    1
   19    19    20    1
   20    19    21    1
   21    19    22    1
   22    22    23    1
   23    22    24    1
   24    22    25    1
@<TRIPOS>SUBSTRUCTURE
       1 MOL1            1 RESIDUE      1      MOL     
@<SCITEGIC>MOL_PROPERTY
VConf Rank
SciTegic.value.IntegerValue
291

@<SCITEGIC>MOL_PROPERTY
Conf_Id
SciTegic.value.IntegerValue
135

@<SCITEGIC>MOL_PROPERTY
Delta U+W
SciTegic.value.DoubleValue
1.314

@<SCITEGIC>MOL_PROPERTY
U+W
SciTegic.value.DoubleValue
-50.316

@<SCITEGIC>MOL_PROPERTY
Grad RMS
SciTegic.value.DoubleValue
0.000000

@<SCITEGIC>MOL_PROPERTY
U
SciTegic.value.DoubleValue
9.773

@<SCITEGIC>MOL_PROPERTY
W
SciTegic.value.DoubleValue
-60.088

@<SCITEGIC>MOL_PROPERTY
W(PB)
SciTegic.value.DoubleValue
-62.535

@<SCITEGIC>MOL_PROPERTY
W(SA)
SciTegic.value.DoubleValue
2.447

@<SCITEGIC>MOL_PROPERTY
Valence
SciTegic.value.DoubleValue
8.741

@<SCITEGIC>MOL_PROPERTY
Coulomb
SciTegic.value.DoubleValue
0.479

@<SCITEGIC>MOL_PROPERTY
VdW
SciTegic.value.DoubleValue
0.552

@<SCITEGIC>MOL_PROPERTY
VdW6
SciTegic.value.DoubleValue
-10.627

@<SCITEGIC>MOL_PROPERTY
VdW12
SciTegic.value.DoubleValue
11.179

@<SCITEGIC>MOL_PROPERTY
Bond
SciTegic.value.DoubleValue
0.227

@<SCITEGIC>MOL_PROPERTY
Angle
SciTegic.value.DoubleValue
3.155

@<SCITEGIC>MOL_PROPERTY
Pdih
SciTegic.value.DoubleValue
5.358

@<SCITEGIC>MOL_PROPERTY
Idih
SciTegic.value.DoubleValue
0.001

@<SCITEGIC>MOL_PROPERTY
Tether
SciTegic.value.DoubleValue
0.000

@<TRIPOS>MOLECULE
guest-8_confgen4.mol2 : confsearch ligand conformer 292
          25          24           1
SMALL
USER_CHARGES
 
@<TRIPOS>ATOM
       1    C1      23.328441   16.587608   23.938687 C.2        1 MOL1         0.6168
       2    O1      23.083017   15.708604   24.741095 O.co2      1 MOL1        -0.6703
       3    O2      24.239048   16.531036   23.135963 O.co2      1 MOL1        -0.6703
       4    C2      22.430444   17.819490   23.922864 C.3        1 MOL1        -0.1963
       5    H1      23.038041   18.678826   23.615106 H          1 MOL1         0.0750
       6    H2      22.102417   18.004502   24.951621 H          1 MOL1         0.0750
       7    C3      21.211403   17.660021   22.977171 C.3        1 MOL1        -0.1860
       8    H3      21.576822   17.379697   21.979506 H          1 MOL1         0.0752
       9    H4      20.583742   16.826837   23.322322 H          1 MOL1         0.0752
      10    C4      20.354692   18.942125   22.846066 C.3        1 MOL1        -0.1858
      11    H5      19.621428   18.776405   22.046785 H          1 MOL1         0.0752
      12    H6      20.989093   19.779480   22.525208 H          1 MOL1         0.0752
      13    C5      19.605269   19.318715   24.146453 C.3        1 MOL1        -0.1858
      14    H7      18.929260   18.499799   24.427493 H          1 MOL1         0.0752
      15    H8      20.324592   19.420565   24.968448 H          1 MOL1         0.0752
      16    C6      18.801775   20.640719   24.056067 C.3        1 MOL1        -0.1858
      17    H9      19.482403   21.482270   23.867800 H          1 MOL1         0.0752
      18    H10     18.363073   20.828421   25.045603 H          1 MOL1         0.0752
      19    C7      17.655012   20.634455   23.014386 C.3        1 MOL1        -0.1834
      20    H11     17.294851   19.609572   22.849663 H          1 MOL1         0.0752
      21    H12     16.803620   21.194472   23.425257 H          1 MOL1         0.0752
      22    C8      18.051353   21.286047   21.670657 C.3        1 MOL1        -0.2849
      23    H13     18.894418   20.768499   21.198954 H          1 MOL1         0.0764
      24    H14     17.207811   21.262402   20.968741 H          1 MOL1         0.0764
      25    H15     18.337690   22.335811   21.815874 H          1 MOL1         0.0764
@<TRIPOS>BOND
    1     1     2    1
    2     1     3    2
    3     1     4    1
    4     4     5    1
    5     4     6    1
    6     4     7    1
    7     7     8    1
    8     7     9    1
    9     7    10    1
   10    10    11    1
   11    10    12    1
   12    10    13    1
   13    13    14    1
   14    13    15    1
   15    13    16    1
   16    16    17    1
   17    16    18    1
   18    16    19    1
   19    19    20    1
   20    19    21    1
   21    19    22    1
   22    22    23    1
   23    22    24    1
   24    22    25    1
@<TRIPOS>SUBSTRUCTURE
       1 MOL1            1 RESIDUE      1      MOL     
@<SCITEGIC>MOL_PROPERTY
VConf Rank
SciTegic.value.IntegerValue
292

@<SCITEGIC>MOL_PROPERTY
Conf_Id
SciTegic.value.IntegerValue
19

@<SCITEGIC>MOL_PROPERTY
Delta U+W
SciTegic.value.DoubleValue
3.222

@<SCITEGIC>MOL_PROPERTY
U+W
SciTegic.value.DoubleValue
-48.407

@<SCITEGIC>MOL_PROPERTY
Grad RMS
SciTegic.value.DoubleValue
0.000000

@<SCITEGIC>MOL_PROPERTY
U
SciTegic.value.DoubleValue
10.617

@<SCITEGIC>MOL_PROPERTY
W
SciTegic.value.DoubleValue
-59.025

@<SCITEGIC>MOL_PROPERTY
W(PB)
SciTegic.value.DoubleValue
-61.462

@<SCITEGIC>MOL_PROPERTY
W(SA)
SciTegic.value.DoubleValue
2.437

@<SCITEGIC>MOL_PROPERTY
Valence
SciTegic.value.DoubleValue
11.188

@<SCITEGIC>MOL_PROPERTY
Coulomb
SciTegic.value.DoubleValue
-1.778

@<SCITEGIC>MOL_PROPERTY
VdW
SciTegic.value.DoubleValue
1.208

@<SCITEGIC>MOL_PROPERTY
VdW6
SciTegic.value.DoubleValue
-9.786

@<SCITEGIC>MOL_PROPERTY
VdW12
SciTegic.value.DoubleValue
10.993

@<SCITEGIC>MOL_PROPERTY
Bond
SciTegic.value.DoubleValue
0.241

@<SCITEGIC>MOL_PROPERTY
Angle
SciTegic.value.DoubleValue
3.294

@<SCITEGIC>MOL_PROPERTY
Pdih
SciTegic.value.DoubleValue
7.653

@<SCITEGIC>MOL_PROPERTY
Idih
SciTegic.value.DoubleValue
0.001

@<SCITEGIC>MOL_PROPERTY
Tether
SciTegic.value.DoubleValue
0.000

@<TRIPOS>MOLECULE
guest-8_confgen4.mol2 : confsearch ligand conformer 293
          25          24           1
SMALL
USER_CHARGES
 
@<TRIPOS>ATOM
       1    C1      24.180392   19.328390   22.238052 C.2        1 MOL1         0.6168
       2    O1      24.450767   18.700241   21.233529 O.co2      1 MOL1        -0.6703
       3    O2      25.002516   19.646785   23.074418 O.co2      1 MOL1        -0.6703
       4    C2      22.725586   19.718483   22.473741 C.3        1 MOL1        -0.1963
       5    H1      22.268648   19.903169   21.495339 H          1 MOL1         0.0750
       6    H2      22.713083   20.667164   23.023466 H          1 MOL1         0.0750
       7    C3      21.934400   18.636988   23.254908 C.3        1 MOL1        -0.1860
       8    H3      21.912051   17.704887   22.673555 H          1 MOL1         0.0752
       9    H4      22.476023   18.409705   24.183581 H          1 MOL1         0.0752
      10    C4      20.491537   19.063175   23.617463 C.3        1 MOL1        -0.1858
      11    H5      20.514711   20.008254   24.176809 H          1 MOL1         0.0752
      12    H6      20.076903   18.305273   24.293962 H          1 MOL1         0.0752
      13    C5      19.562364   19.202753   22.387983 C.3        1 MOL1        -0.1858
      14    H7      20.002652   19.909030   21.673283 H          1 MOL1         0.0752
      15    H8      19.498396   18.237166   21.868228 H          1 MOL1         0.0752
      16    C6      18.134172   19.701035   22.724820 C.3        1 MOL1        -0.1858
      17    H9      17.591080   19.811565   21.776292 H          1 MOL1         0.0752
      18    H10     18.180444   20.708525   23.160399 H          1 MOL1         0.0752
      19    C7      17.315678   18.757225   23.641058 C.3        1 MOL1        -0.1834
      20    H11     16.268548   18.764936   23.308250 H          1 MOL1         0.0752
      21    H12     17.663455   17.720976   23.529373 H          1 MOL1         0.0752
      22    C8      17.347226   19.176164   25.127921 C.3        1 MOL1        -0.2849
      23    H13     16.927464   20.182058   25.258531 H          1 MOL1         0.0764
      24    H14     16.751408   18.482551   25.735135 H          1 MOL1         0.0764
      25    H15     18.367143   19.181474   25.528993 H          1 MOL1         0.0764
@<TRIPOS>BOND
    1     1     2    1
    2     1     3    2
    3     1     4    1
    4     4     5    1
    5     4     6    1
    6     4     7    1
    7     7     8    1
    8     7     9    1
    9     7    10    1
   10    10    11    1
   11    10    12    1
   12    10    13    1
   13    13    14    1
   14    13    15    1
   15    13    16    1
   16    16    17    1
   17    16    18    1
   18    16    19    1
   19    19    20    1
   20    19    21    1
   21    19    22    1
   22    22    23    1
   23    22    24    1
   24    22    25    1
@<TRIPOS>SUBSTRUCTURE
       1 MOL1            1 RESIDUE      1      MOL     
@<SCITEGIC>MOL_PROPERTY
VConf Rank
SciTegic.value.IntegerValue
293

@<SCITEGIC>MOL_PROPERTY
Conf_Id
SciTegic.value.IntegerValue
20

@<SCITEGIC>MOL_PROPERTY
Delta U+W
SciTegic.value.DoubleValue
3.224

@<SCITEGIC>MOL_PROPERTY
U+W
SciTegic.value.DoubleValue
-48.406

@<SCITEGIC>MOL_PROPERTY
Grad RMS
SciTegic.value.DoubleValue
0.000000

@<SCITEGIC>MOL_PROPERTY
U
SciTegic.value.DoubleValue
10.617

@<SCITEGIC>MOL_PROPERTY
W
SciTegic.value.DoubleValue
-59.023

@<SCITEGIC>MOL_PROPERTY
W(PB)
SciTegic.value.DoubleValue
-61.467

@<SCITEGIC>MOL_PROPERTY
W(SA)
SciTegic.value.DoubleValue
2.444

@<SCITEGIC>MOL_PROPERTY
Valence
SciTegic.value.DoubleValue
11.188

@<SCITEGIC>MOL_PROPERTY
Coulomb
SciTegic.value.DoubleValue
-1.778

@<SCITEGIC>MOL_PROPERTY
VdW
SciTegic.value.DoubleValue
1.208

@<SCITEGIC>MOL_PROPERTY
VdW6
SciTegic.value.DoubleValue
-9.786

@<SCITEGIC>MOL_PROPERTY
VdW12
SciTegic.value.DoubleValue
10.993

@<SCITEGIC>MOL_PROPERTY
Bond
SciTegic.value.DoubleValue
0.241

@<SCITEGIC>MOL_PROPERTY
Angle
SciTegic.value.DoubleValue
3.294

@<SCITEGIC>MOL_PROPERTY
Pdih
SciTegic.value.DoubleValue
7.653

@<SCITEGIC>MOL_PROPERTY
Idih
SciTegic.value.DoubleValue
0.001

@<SCITEGIC>MOL_PROPERTY
Tether
SciTegic.value.DoubleValue
0.000

@<TRIPOS>MOLECULE
guest-8_confgen4.mol2 : confsearch ligand conformer 294
          25          24           1
SMALL
USER_CHARGES
 
@<TRIPOS>ATOM
       1    C1      16.772134   19.539156   22.869442 C.2        1 MOL1         0.6168
       2    O1      16.414224   20.606598   23.327825 O.co2      1 MOL1        -0.6703
       3    O2      16.538345   18.470032   23.398151 O.co2      1 MOL1        -0.6703
       4    C2      17.496565   19.533926   21.524614 C.3        1 MOL1        -0.1963
       5    H1      16.785880   19.930608   20.790423 H          1 MOL1         0.0750
       6    H2      17.701556   18.496434   21.234135 H          1 MOL1         0.0750
       7    C3      18.802212   20.376265   21.471142 C.3        1 MOL1        -0.1860
       8    H3      19.020110   20.597400   20.417554 H          1 MOL1         0.0752
       9    H4      18.640634   21.348819   21.956556 H          1 MOL1         0.0752
      10    C4      20.048356   19.682105   22.074758 C.3        1 MOL1        -0.1858
      11    H5      20.927998   20.299086   21.845530 H          1 MOL1         0.0752
      12    H6      20.210892   18.716250   21.577222 H          1 MOL1         0.0752
      13    C5      19.974027   19.472332   23.604170 C.3        1 MOL1        -0.1858
      14    H7      19.707940   20.419120   24.093900 H          1 MOL1         0.0752
      15    H8      19.181225   18.752490   23.843536 H          1 MOL1         0.0752
      16    C6      21.311230   18.952188   24.175053 C.3        1 MOL1        -0.1858
      17    H9      22.111912   19.669540   23.948603 H          1 MOL1         0.0752
      18    H10     21.578056   18.007989   23.680761 H          1 MOL1         0.0752
      19    C7      21.234556   18.731540   25.700442 C.3        1 MOL1        -0.1834
      20    H11     20.968568   19.674501   26.197969 H          1 MOL1         0.0752
      21    H12     20.435601   18.013048   25.930755 H          1 MOL1         0.0752
      22    C8      22.570897   18.211684   26.267550 C.3        1 MOL1        -0.2849
      23    H13     23.382412   18.926606   26.078605 H          1 MOL1         0.0764
      24    H14     22.498122   18.060535   27.352410 H          1 MOL1         0.0764
      25    H15     22.845357   17.252470   25.809341 H          1 MOL1         0.0764
@<TRIPOS>BOND
    1     1     2    1
    2     1     3    2
    3     1     4    1
    4     4     5    1
    5     4     6    1
    6     4     7    1
    7     7     8    1
    8     7     9    1
    9     7    10    1
   10    10    11    1
   11    10    12    1
   12    10    13    1
   13    13    14    1
   14    13    15    1
   15    13    16    1
   16    16    17    1
   17    16    18    1
   18    16    19    1
   19    19    20    1
   20    19    21    1
   21    19    22    1
   22    22    23    1
   23    22    24    1
   24    22    25    1
@<TRIPOS>SUBSTRUCTURE
       1 MOL1            1 RESIDUE      1      MOL     
@<SCITEGIC>MOL_PROPERTY
VConf Rank
SciTegic.value.IntegerValue
294

@<SCITEGIC>MOL_PROPERTY
Conf_Id
SciTegic.value.IntegerValue
24

@<SCITEGIC>MOL_PROPERTY
Delta U+W
SciTegic.value.DoubleValue
1.784

@<SCITEGIC>MOL_PROPERTY
U+W
SciTegic.value.DoubleValue
-49.846

@<SCITEGIC>MOL_PROPERTY
Grad RMS
SciTegic.value.DoubleValue
0.000000

@<SCITEGIC>MOL_PROPERTY
U
SciTegic.value.DoubleValue
10.904

@<SCITEGIC>MOL_PROPERTY
W
SciTegic.value.DoubleValue
-60.749

@<SCITEGIC>MOL_PROPERTY
W(PB)
SciTegic.value.DoubleValue
-63.220

@<SCITEGIC>MOL_PROPERTY
W(SA)
SciTegic.value.DoubleValue
2.471

@<SCITEGIC>MOL_PROPERTY
Valence
SciTegic.value.DoubleValue
9.445

@<SCITEGIC>MOL_PROPERTY
Coulomb
SciTegic.value.DoubleValue
0.780

@<SCITEGIC>MOL_PROPERTY
VdW
SciTegic.value.DoubleValue
0.679

@<SCITEGIC>MOL_PROPERTY
VdW6
SciTegic.value.DoubleValue
-10.008

@<SCITEGIC>MOL_PROPERTY
VdW12
SciTegic.value.DoubleValue
10.687

@<SCITEGIC>MOL_PROPERTY
Bond
SciTegic.value.DoubleValue
0.201

@<SCITEGIC>MOL_PROPERTY
Angle
SciTegic.value.DoubleValue
3.198

@<SCITEGIC>MOL_PROPERTY
Pdih
SciTegic.value.DoubleValue
6.039

@<SCITEGIC>MOL_PROPERTY
Idih
SciTegic.value.DoubleValue
0.006

@<SCITEGIC>MOL_PROPERTY
Tether
SciTegic.value.DoubleValue
0.000

@<TRIPOS>MOLECULE
guest-8_confgen4.mol2 : confsearch ligand conformer 295
          25          24           1
SMALL
USER_CHARGES
 
@<TRIPOS>ATOM
       1    C1      17.089354   18.166126   24.019190 C.2        1 MOL1         0.6168
       2    O1      16.534869   19.148260   24.472623 O.co2      1 MOL1        -0.6703
       3    O2      16.991812   17.816567   22.859228 O.co2      1 MOL1        -0.6703
       4    C2      17.897895   17.286054   24.970571 C.3        1 MOL1        -0.1963
       5    H1      18.285046   16.422986   24.415581 H          1 MOL1         0.0750
       6    H2      17.186448   16.892683   25.705805 H          1 MOL1         0.0750
       7    C3      19.053545   18.006836   25.720270 C.3        1 MOL1        -0.1860
       8    H3      18.705844   18.977942   26.099284 H          1 MOL1         0.0752
       9    H4      19.306733   17.410008   26.606905 H          1 MOL1         0.0752
      10    C4      20.348836   18.193192   24.891671 C.3        1 MOL1        -0.1858
      11    H5      20.697444   17.217661   24.526093 H          1 MOL1         0.0752
      12    H6      21.132988   18.569222   25.563006 H          1 MOL1         0.0752
      13    C5      20.201796   19.170591   23.703523 C.3        1 MOL1        -0.1858
      14    H7      19.518890   18.748147   22.955733 H          1 MOL1         0.0752
      15    H8      19.754704   20.111387   24.052890 H          1 MOL1         0.0752
      16    C6      21.561388   19.461700   23.031706 C.3        1 MOL1        -0.1858
      17    H9      22.009137   18.519359   22.687403 H          1 MOL1         0.0752
      18    H10     22.251527   19.893304   23.769535 H          1 MOL1         0.0752
      19    C7      21.414045   20.428567   21.838044 C.3        1 MOL1        -0.1834
      20    H11     20.725596   19.999282   21.096858 H          1 MOL1         0.0752
      21    H12     20.966995   21.372572   22.179300 H          1 MOL1         0.0752
      22    C8      22.773023   20.717066   21.169003 C.3        1 MOL1        -0.2849
      23    H13     23.228265   19.792697   20.789963 H          1 MOL1         0.0764
      24    H14     22.649330   21.405577   20.323003 H          1 MOL1         0.0764
      25    H15     23.471497   21.176514   21.880631 H          1 MOL1         0.0764
@<TRIPOS>BOND
    1     1     2    1
    2     1     3    2
    3     1     4    1
    4     4     5    1
    5     4     6    1
    6     4     7    1
    7     7     8    1
    8     7     9    1
    9     7    10    1
   10    10    11    1
   11    10    12    1
   12    10    13    1
   13    13    14    1
   14    13    15    1
   15    13    16    1
   16    16    17    1
   17    16    18    1
   18    16    19    1
   19    19    20    1
   20    19    21    1
   21    19    22    1
   22    22    23    1
   23    22    24    1
   24    22    25    1
@<TRIPOS>SUBSTRUCTURE
       1 MOL1            1 RESIDUE      1      MOL     
@<SCITEGIC>MOL_PROPERTY
VConf Rank
SciTegic.value.IntegerValue
295

@<SCITEGIC>MOL_PROPERTY
Conf_Id
SciTegic.value.IntegerValue
9

@<SCITEGIC>MOL_PROPERTY
Delta U+W
SciTegic.value.DoubleValue
1.764

@<SCITEGIC>MOL_PROPERTY
U+W
SciTegic.value.DoubleValue
-49.865

@<SCITEGIC>MOL_PROPERTY
Grad RMS
SciTegic.value.DoubleValue
0.000000

@<SCITEGIC>MOL_PROPERTY
U
SciTegic.value.DoubleValue
10.902

@<SCITEGIC>MOL_PROPERTY
W
SciTegic.value.DoubleValue
-60.768

@<SCITEGIC>MOL_PROPERTY
W(PB)
SciTegic.value.DoubleValue
-63.223

@<SCITEGIC>MOL_PROPERTY
W(SA)
SciTegic.value.DoubleValue
2.456

@<SCITEGIC>MOL_PROPERTY
Valence
SciTegic.value.DoubleValue
9.445

@<SCITEGIC>MOL_PROPERTY
Coulomb
SciTegic.value.DoubleValue
0.778

@<SCITEGIC>MOL_PROPERTY
VdW
SciTegic.value.DoubleValue
0.679

@<SCITEGIC>MOL_PROPERTY
VdW6
SciTegic.value.DoubleValue
-10.007

@<SCITEGIC>MOL_PROPERTY
VdW12
SciTegic.value.DoubleValue
10.687

@<SCITEGIC>MOL_PROPERTY
Bond
SciTegic.value.DoubleValue
0.201

@<SCITEGIC>MOL_PROPERTY
Angle
SciTegic.value.DoubleValue
3.198

@<SCITEGIC>MOL_PROPERTY
Pdih
SciTegic.value.DoubleValue
6.040

@<SCITEGIC>MOL_PROPERTY
Idih
SciTegic.value.DoubleValue
0.006

@<SCITEGIC>MOL_PROPERTY
Tether
SciTegic.value.DoubleValue
0.000

@<TRIPOS>MOLECULE
guest-8_confgen4.mol2 : confsearch ligand conformer 296
          25          24           1
SMALL
USER_CHARGES
 
@<TRIPOS>ATOM
       1    C1      18.102830   17.214727   25.917819 C.2        1 MOL1         0.6168
       2    O1      18.993350   17.340623   26.734966 O.co2      1 MOL1        -0.6703
       3    O2      16.976651   16.855093   26.199299 O.co2      1 MOL1        -0.6703
       4    C2      18.409406   17.545830   24.461763 C.3        1 MOL1        -0.1963
       5    H1      17.804382   16.884465   23.830257 H          1 MOL1         0.0750
       6    H2      19.457759   17.293787   24.274965 H          1 MOL1         0.0750
       7    C3      18.118770   19.028929   24.110202 C.3        1 MOL1        -0.1860
       8    H3      17.055463   19.220983   24.310024 H          1 MOL1         0.0752
       9    H4      18.680405   19.693883   24.780887 H          1 MOL1         0.0752
      10    C4      18.416357   19.383173   22.630931 C.3        1 MOL1        -0.1858
      11    H5      17.671398   20.119666   22.299974 H          1 MOL1         0.0752
      12    H6      18.269680   18.502508   21.990811 H          1 MOL1         0.0752
      13    C5      19.817640   19.995787   22.382195 C.3        1 MOL1        -0.1858
      14    H7      19.885453   20.283183   21.324200 H          1 MOL1         0.0752
      15    H8      19.910516   20.923928   22.961293 H          1 MOL1         0.0752
      16    C6      20.993788   19.049850   22.721386 C.3        1 MOL1        -0.1858
      17    H9      20.811919   18.070097   22.259429 H          1 MOL1         0.0752
      18    H10     21.038536   18.887508   23.806232 H          1 MOL1         0.0752
      19    C7      22.363392   19.577888   22.234668 C.3        1 MOL1        -0.1834
      20    H11     23.125470   18.809460   22.424193 H          1 MOL1         0.0752
      21    H12     22.338120   19.727874   21.146505 H          1 MOL1         0.0752
      22    C8      22.793201   20.888133   22.929540 C.3        1 MOL1        -0.2849
      23    H13     22.801318   20.769389   24.020859 H          1 MOL1         0.0764
      24    H14     23.803755   21.177199   22.613198 H          1 MOL1         0.0764
      25    H15     22.116792   21.714648   22.678109 H          1 MOL1         0.0764
@<TRIPOS>BOND
    1     1     2    1
    2     1     3    2
    3     1     4    1
    4     4     5    1
    5     4     6    1
    6     4     7    1
    7     7     8    1
    8     7     9    1
    9     7    10    1
   10    10    11    1
   11    10    12    1
   12    10    13    1
   13    13    14    1
   14    13    15    1
   15    13    16    1
   16    16    17    1
   17    16    18    1
   18    16    19    1
   19    19    20    1
   20    19    21    1
   21    19    22    1
   22    22    23    1
   23    22    24    1
   24    22    25    1
@<TRIPOS>SUBSTRUCTURE
       1 MOL1            1 RESIDUE      1      MOL     
@<SCITEGIC>MOL_PROPERTY
VConf Rank
SciTegic.value.IntegerValue
296

@<SCITEGIC>MOL_PROPERTY
Conf_Id
SciTegic.value.IntegerValue
89

@<SCITEGIC>MOL_PROPERTY
Delta U+W
SciTegic.value.DoubleValue
2.903

@<SCITEGIC>MOL_PROPERTY
U+W
SciTegic.value.DoubleValue
-48.726

@<SCITEGIC>MOL_PROPERTY
Grad RMS
SciTegic.value.DoubleValue
0.000000

@<SCITEGIC>MOL_PROPERTY
U
SciTegic.value.DoubleValue
10.996

@<SCITEGIC>MOL_PROPERTY
W
SciTegic.value.DoubleValue
-59.723

@<SCITEGIC>MOL_PROPERTY
W(PB)
SciTegic.value.DoubleValue
-62.151

@<SCITEGIC>MOL_PROPERTY
W(SA)
SciTegic.value.DoubleValue
2.428

@<SCITEGIC>MOL_PROPERTY
Valence
SciTegic.value.DoubleValue
10.985

@<SCITEGIC>MOL_PROPERTY
Coulomb
SciTegic.value.DoubleValue
-0.995

@<SCITEGIC>MOL_PROPERTY
VdW
SciTegic.value.DoubleValue
1.006

@<SCITEGIC>MOL_PROPERTY
VdW6
SciTegic.value.DoubleValue
-10.062

@<SCITEGIC>MOL_PROPERTY
VdW12
SciTegic.value.DoubleValue
11.069

@<SCITEGIC>MOL_PROPERTY
Bond
SciTegic.value.DoubleValue
0.238

@<SCITEGIC>MOL_PROPERTY
Angle
SciTegic.value.DoubleValue
3.202

@<SCITEGIC>MOL_PROPERTY
Pdih
SciTegic.value.DoubleValue
7.544

@<SCITEGIC>MOL_PROPERTY
Idih
SciTegic.value.DoubleValue
0.001

@<SCITEGIC>MOL_PROPERTY
Tether
SciTegic.value.DoubleValue
0.000

@<TRIPOS>MOLECULE
guest-8_confgen4.mol2 : confsearch ligand conformer 297
          25          24           1
SMALL
USER_CHARGES
 
@<TRIPOS>ATOM
       1    C1      17.713325   18.500033   25.951629 C.2        1 MOL1         0.6168
       2    O1      17.962505   19.456360   26.659166 O.co2      1 MOL1        -0.6703
       3    O2      16.658434   18.356936   25.364827 O.co2      1 MOL1        -0.6703
       4    C2      18.757498   17.390012   25.847695 C.3        1 MOL1        -0.1963
       5    H1      18.303808   16.498582   26.296021 H          1 MOL1         0.0750
       6    H2      19.619674   17.651237   26.473143 H          1 MOL1         0.0750
       7    C3      19.222322   17.048602   24.403757 C.3        1 MOL1        -0.1860
       8    H3      19.642898   16.033999   24.415582 H          1 MOL1         0.0752
       9    H4      18.355127   17.007481   23.730069 H          1 MOL1         0.0752
      10    C4      20.300922   17.997489   23.823955 C.3        1 MOL1        -0.1858
      11    H5      20.662454   17.556061   22.886962 H          1 MOL1         0.0752
      12    H6      21.164380   18.033302   24.501975 H          1 MOL1         0.0752
      13    C5      19.794522   19.434560   23.550516 C.3        1 MOL1        -0.1858
      14    H7      18.894125   19.400326   22.922119 H          1 MOL1         0.0752
      15    H8      19.495912   19.898762   24.498243 H          1 MOL1         0.0752
      16    C6      20.855244   20.348837   22.891470 C.3        1 MOL1        -0.1858
      17    H9      21.767012   20.356389   23.504209 H          1 MOL1         0.0752
      18    H10     20.472479   21.378590   22.892890 H          1 MOL1         0.0752
      19    C7      21.203427   19.949384   21.439353 C.3        1 MOL1        -0.1834
      20    H11     21.665524   18.954003   21.419028 H          1 MOL1         0.0752
      21    H12     20.283718   19.888340   20.841359 H          1 MOL1         0.0752
      22    C8      22.169017   20.961925   20.790899 C.3        1 MOL1        -0.2849
      23    H13     23.109394   21.023428   21.354171 H          1 MOL1         0.0764
      24    H14     22.408992   20.663316   19.762165 H          1 MOL1         0.0764
      25    H15     21.723184   21.964640   20.757152 H          1 MOL1         0.0764
@<TRIPOS>BOND
    1     1     2    1
    2     1     3    2
    3     1     4    1
    4     4     5    1
    5     4     6    1
    6     4     7    1
    7     7     8    1
    8     7     9    1
    9     7    10    1
   10    10    11    1
   11    10    12    1
   12    10    13    1
   13    13    14    1
   14    13    15    1
   15    13    16    1
   16    16    17    1
   17    16    18    1
   18    16    19    1
   19    19    20    1
   20    19    21    1
   21    19    22    1
   22    22    23    1
   23    22    24    1
   24    22    25    1
@<TRIPOS>SUBSTRUCTURE
       1 MOL1            1 RESIDUE      1      MOL     
@<SCITEGIC>MOL_PROPERTY
VConf Rank
SciTegic.value.IntegerValue
297

@<SCITEGIC>MOL_PROPERTY
Conf_Id
SciTegic.value.IntegerValue
114

@<SCITEGIC>MOL_PROPERTY
Delta U+W
SciTegic.value.DoubleValue
2.758

@<SCITEGIC>MOL_PROPERTY
U+W
SciTegic.value.DoubleValue
-48.871

@<SCITEGIC>MOL_PROPERTY
Grad RMS
SciTegic.value.DoubleValue
0.000000

@<SCITEGIC>MOL_PROPERTY
U
SciTegic.value.DoubleValue
11.422

@<SCITEGIC>MOL_PROPERTY
W
SciTegic.value.DoubleValue
-60.293

@<SCITEGIC>MOL_PROPERTY
W(PB)
SciTegic.value.DoubleValue
-62.719

@<SCITEGIC>MOL_PROPERTY
W(SA)
SciTegic.value.DoubleValue
2.425

@<SCITEGIC>MOL_PROPERTY
Valence
SciTegic.value.DoubleValue
10.135

@<SCITEGIC>MOL_PROPERTY
Coulomb
SciTegic.value.DoubleValue
0.369

@<SCITEGIC>MOL_PROPERTY
VdW
SciTegic.value.DoubleValue
0.918

@<SCITEGIC>MOL_PROPERTY
VdW6
SciTegic.value.DoubleValue
-10.482

@<SCITEGIC>MOL_PROPERTY
VdW12
SciTegic.value.DoubleValue
11.400

@<SCITEGIC>MOL_PROPERTY
Bond
SciTegic.value.DoubleValue
0.245

@<SCITEGIC>MOL_PROPERTY
Angle
SciTegic.value.DoubleValue
3.539

@<SCITEGIC>MOL_PROPERTY
Pdih
SciTegic.value.DoubleValue
6.346

@<SCITEGIC>MOL_PROPERTY
Idih
SciTegic.value.DoubleValue
0.006

@<SCITEGIC>MOL_PROPERTY
Tether
SciTegic.value.DoubleValue
0.000

@<TRIPOS>MOLECULE
guest-8_confgen4.mol2 : confsearch ligand conformer 298
          25          24           1
SMALL
USER_CHARGES
 
@<TRIPOS>ATOM
       1    C1      18.506356   21.119354   20.638134 C.2        1 MOL1         0.6168
       2    O1      18.427427   20.372801   19.682366 O.co2      1 MOL1        -0.6703
       3    O2      17.540591   21.599828   21.198081 O.co2      1 MOL1        -0.6703
       4    C2      19.894155   21.491679   21.152270 C.3        1 MOL1        -0.1963
       5    H1      19.901686   22.574725   21.322366 H          1 MOL1         0.0750
       6    H2      20.626306   21.289608   20.361133 H          1 MOL1         0.0750
       7    C3      20.298773   20.759211   22.457932 C.3        1 MOL1        -0.1860
       8    H3      21.245455   21.179062   22.823677 H          1 MOL1         0.0752
       9    H4      19.542455   20.962274   23.227396 H          1 MOL1         0.0752
      10    C4      20.461071   19.233600   22.254402 C.3        1 MOL1        -0.1858
      11    H5      21.150666   19.058063   21.417450 H          1 MOL1         0.0752
      12    H6      19.499343   18.791310   21.959853 H          1 MOL1         0.0752
      13    C5      21.006858   18.497141   23.501170 C.3        1 MOL1        -0.1858
      14    H7      21.224040   17.460541   23.213982 H          1 MOL1         0.0752
      15    H8      21.963880   18.943745   23.803125 H          1 MOL1         0.0752
      16    C6      20.025561   18.503222   24.699319 C.3        1 MOL1        -0.1858
      17    H9      19.067498   18.059787   24.395735 H          1 MOL1         0.0752
      18    H10     19.810897   19.539165   24.990531 H          1 MOL1         0.0752
      19    C7      20.568878   17.760197   25.942363 C.3        1 MOL1        -0.1834
      20    H11     21.533050   18.193690   26.241936 H          1 MOL1         0.0752
      21    H12     19.879535   17.928543   26.781235 H          1 MOL1         0.0752
      22    C8      20.725890   16.238777   25.728972 C.3        1 MOL1        -0.2849
      23    H13     21.020547   15.748661   26.665917 H          1 MOL1         0.0764
      24    H14     19.781621   15.789248   25.395216 H          1 MOL1         0.0764
      25    H15     21.497275   16.015285   24.981694 H          1 MOL1         0.0764
@<TRIPOS>BOND
    1     1     2    1
    2     1     3    2
    3     1     4    1
    4     4     5    1
    5     4     6    1
    6     4     7    1
    7     7     8    1
    8     7     9    1
    9     7    10    1
   10    10    11    1
   11    10    12    1
   12    10    13    1
   13    13    14    1
   14    13    15    1
   15    13    16    1
   16    16    17    1
   17    16    18    1
   18    16    19    1
   19    19    20    1
   20    19    21    1
   21    19    22    1
   22    22    23    1
   23    22    24    1
   24    22    25    1
@<TRIPOS>SUBSTRUCTURE
       1 MOL1            1 RESIDUE      1      MOL     
@<SCITEGIC>MOL_PROPERTY
VConf Rank
SciTegic.value.IntegerValue
298

@<SCITEGIC>MOL_PROPERTY
Conf_Id
SciTegic.value.IntegerValue
87

@<SCITEGIC>MOL_PROPERTY
Delta U+W
SciTegic.value.DoubleValue
1.453

@<SCITEGIC>MOL_PROPERTY
U+W
SciTegic.value.DoubleValue
-50.176

@<SCITEGIC>MOL_PROPERTY
Grad RMS
SciTegic.value.DoubleValue
0.000000

@<SCITEGIC>MOL_PROPERTY
U
SciTegic.value.DoubleValue
9.763

@<SCITEGIC>MOL_PROPERTY
W
SciTegic.value.DoubleValue
-59.940

@<SCITEGIC>MOL_PROPERTY
W(PB)
SciTegic.value.DoubleValue
-62.392

@<SCITEGIC>MOL_PROPERTY
W(SA)
SciTegic.value.DoubleValue
2.452

@<SCITEGIC>MOL_PROPERTY
Valence
SciTegic.value.DoubleValue
8.883

@<SCITEGIC>MOL_PROPERTY
Coulomb
SciTegic.value.DoubleValue
-0.122

@<SCITEGIC>MOL_PROPERTY
VdW
SciTegic.value.DoubleValue
1.003

@<SCITEGIC>MOL_PROPERTY
VdW6
SciTegic.value.DoubleValue
-9.782

@<SCITEGIC>MOL_PROPERTY
VdW12
SciTegic.value.DoubleValue
10.785

@<SCITEGIC>MOL_PROPERTY
Bond
SciTegic.value.DoubleValue
0.212

@<SCITEGIC>MOL_PROPERTY
Angle
SciTegic.value.DoubleValue
2.940

@<SCITEGIC>MOL_PROPERTY
Pdih
SciTegic.value.DoubleValue
5.730

@<SCITEGIC>MOL_PROPERTY
Idih
SciTegic.value.DoubleValue
0.001

@<SCITEGIC>MOL_PROPERTY
Tether
SciTegic.value.DoubleValue
0.000

@<TRIPOS>MOLECULE
guest-8_confgen4.mol2 : confsearch ligand conformer 299
          25          24           1
SMALL
USER_CHARGES
 
@<TRIPOS>ATOM
       1    C1      16.887689   16.850478   24.061406 C.2        1 MOL1         0.6168
       2    O1      17.210372   15.791681   23.559900 O.co2      1 MOL1        -0.6703
       3    O2      16.172271   16.941917   25.039445 O.co2      1 MOL1        -0.6703
       4    C2      17.425058   18.134792   23.440166 C.3        1 MOL1        -0.1963
       5    H1      16.671092   18.919600   23.574677 H          1 MOL1         0.0750
       6    H2      17.534807   17.971507   22.361339 H          1 MOL1         0.0750
       7    C3      18.775989   18.579560   24.052633 C.3        1 MOL1        -0.1860
       8    H3      18.652856   18.730947   25.133864 H          1 MOL1         0.0752
       9    H4      19.507723   17.771075   23.923391 H          1 MOL1         0.0752
      10    C4      19.301359   19.879258   23.400406 C.3        1 MOL1        -0.1858
      11    H5      18.528425   20.655872   23.478291 H          1 MOL1         0.0752
      12    H6      19.462926   19.717259   22.326600 H          1 MOL1         0.0752
      13    C5      20.599552   20.415931   24.053870 C.3        1 MOL1        -0.1858
      14    H7      20.870774   21.366047   23.575230 H          1 MOL1         0.0752
      15    H8      20.391892   20.661511   25.104126 H          1 MOL1         0.0752
      16    C6      21.814867   19.452522   24.002145 C.3        1 MOL1        -0.1858
      17    H9      21.605142   18.569483   24.619820 H          1 MOL1         0.0752
      18    H10     22.673797   19.947477   24.475166 H          1 MOL1         0.0752
      19    C7      22.227119   18.986549   22.584031 C.3        1 MOL1        -0.1834
      20    H11     23.075164   18.294204   22.675584 H          1 MOL1         0.0752
      21    H12     21.413173   18.410521   22.124122 H          1 MOL1         0.0752
      22    C8      22.633303   20.149853   21.653558 C.3        1 MOL1        -0.2849
      23    H13     23.435897   20.749567   22.102023 H          1 MOL1         0.0764
      24    H14     22.995357   19.764327   20.691781 H          1 MOL1         0.0764
      25    H15     21.782403   20.811434   21.448074 H          1 MOL1         0.0764
@<TRIPOS>BOND
    1     1     2    1
    2     1     3    2
    3     1     4    1
    4     4     5    1
    5     4     6    1
    6     4     7    1
    7     7     8    1
    8     7     9    1
    9     7    10    1
   10    10    11    1
   11    10    12    1
   12    10    13    1
   13    13    14    1
   14    13    15    1
   15    13    16    1
   16    16    17    1
   17    16    18    1
   18    16    19    1
   19    19    20    1
   20    19    21    1
   21    19    22    1
   22    22    23    1
   23    22    24    1
   24    22    25    1
@<TRIPOS>SUBSTRUCTURE
       1 MOL1            1 RESIDUE      1      MOL     
@<SCITEGIC>MOL_PROPERTY
VConf Rank
SciTegic.value.IntegerValue
299

@<SCITEGIC>MOL_PROPERTY
Conf_Id
SciTegic.value.IntegerValue
29

@<SCITEGIC>MOL_PROPERTY
Delta U+W
SciTegic.value.DoubleValue
0.850

@<SCITEGIC>MOL_PROPERTY
U+W
SciTegic.value.DoubleValue
-50.780

@<SCITEGIC>MOL_PROPERTY
Grad RMS
SciTegic.value.DoubleValue
0.000000

@<SCITEGIC>MOL_PROPERTY
U
SciTegic.value.DoubleValue
8.646

@<SCITEGIC>MOL_PROPERTY
W
SciTegic.value.DoubleValue
-59.426

@<SCITEGIC>MOL_PROPERTY
W(PB)
SciTegic.value.DoubleValue
-61.868

@<SCITEGIC>MOL_PROPERTY
W(SA)
SciTegic.value.DoubleValue
2.442

@<SCITEGIC>MOL_PROPERTY
Valence
SciTegic.value.DoubleValue
8.924

@<SCITEGIC>MOL_PROPERTY
Coulomb
SciTegic.value.DoubleValue
-1.171

@<SCITEGIC>MOL_PROPERTY
VdW
SciTegic.value.DoubleValue
0.894

@<SCITEGIC>MOL_PROPERTY
VdW6
SciTegic.value.DoubleValue
-10.223

@<SCITEGIC>MOL_PROPERTY
VdW12
SciTegic.value.DoubleValue
11.117

@<SCITEGIC>MOL_PROPERTY
Bond
SciTegic.value.DoubleValue
0.231

@<SCITEGIC>MOL_PROPERTY
Angle
SciTegic.value.DoubleValue
3.232

@<SCITEGIC>MOL_PROPERTY
Pdih
SciTegic.value.DoubleValue
5.461

@<SCITEGIC>MOL_PROPERTY
Idih
SciTegic.value.DoubleValue
0.001

@<SCITEGIC>MOL_PROPERTY
Tether
SciTegic.value.DoubleValue
0.000

@<TRIPOS>MOLECULE
guest-8_confgen4.mol2 : confsearch ligand conformer 300
          25          24           1
SMALL
USER_CHARGES
 
@<TRIPOS>ATOM
       1    C1      20.860405   18.499315   27.141709 C.2        1 MOL1         0.6168
       2    O1      21.412725   19.533561   27.461027 O.co2      1 MOL1        -0.6703
       3    O2      21.136466   17.414675   27.615087 O.co2      1 MOL1        -0.6703
       4    C2      19.773839   18.563246   26.074255 C.3        1 MOL1        -0.1963
       5    H1      19.266599   19.531539   26.161943 H          1 MOL1         0.0750
       6    H2      19.032005   17.786852   26.296465 H          1 MOL1         0.0750
       7    C3      20.328235   18.379286   24.640114 C.3        1 MOL1        -0.1860
       8    H3      21.081933   19.154578   24.448683 H          1 MOL1         0.0752
       9    H4      20.840306   17.409767   24.569704 H          1 MOL1         0.0752
      10    C4      19.207518   18.455703   23.577668 C.3        1 MOL1        -0.1858
      11    H5      18.721406   19.439209   23.620283 H          1 MOL1         0.0752
      12    H6      18.429717   17.720609   23.825225 H          1 MOL1         0.0752
      13    C5      19.703403   18.174651   22.137028 C.3        1 MOL1        -0.1858
      14    H7      20.099548   17.151156   22.092309 H          1 MOL1         0.0752
      15    H8      18.842011   18.189198   21.456459 H          1 MOL1         0.0752
      16    C6      20.789140   19.148831   21.607904 C.3        1 MOL1        -0.1858
      17    H9      21.043908   18.862707   20.578479 H          1 MOL1         0.0752
      18    H10     21.711114   19.015639   22.188843 H          1 MOL1         0.0752
      19    C7      20.396532   20.646716   21.626119 C.3        1 MOL1        -0.1834
      20    H11     20.223057   20.979290   22.658174 H          1 MOL1         0.0752
      21    H12     21.246494   21.236104   21.255863 H          1 MOL1         0.0752
      22    C8      19.157535   20.963317   20.760851 C.3        1 MOL1        -0.2849
      23    H13     18.258297   20.477230   21.159645 H          1 MOL1         0.0764
      24    H14     18.969933   22.044551   20.739218 H          1 MOL1         0.0764
      25    H15     19.303293   20.623920   19.727169 H          1 MOL1         0.0764
@<TRIPOS>BOND
    1     1     2    1
    2     1     3    2
    3     1     4    1
    4     4     5    1
    5     4     6    1
    6     4     7    1
    7     7     8    1
    8     7     9    1
    9     7    10    1
   10    10    11    1
   11    10    12    1
   12    10    13    1
   13    13    14    1
   14    13    15    1
   15    13    16    1
   16    16    17    1
   17    16    18    1
   18    16    19    1
   19    19    20    1
   20    19    21    1
   21    19    22    1
   22    22    23    1
   23    22    24    1
   24    22    25    1
@<TRIPOS>SUBSTRUCTURE
       1 MOL1            1 RESIDUE      1      MOL     
@<SCITEGIC>MOL_PROPERTY
VConf Rank
SciTegic.value.IntegerValue
300

@<SCITEGIC>MOL_PROPERTY
Conf_Id
SciTegic.value.IntegerValue
30

@<SCITEGIC>MOL_PROPERTY
Delta U+W
SciTegic.value.DoubleValue
0.843

@<SCITEGIC>MOL_PROPERTY
U+W
SciTegic.value.DoubleValue
-50.787

@<SCITEGIC>MOL_PROPERTY
Grad RMS
SciTegic.value.DoubleValue
0.000000

@<SCITEGIC>MOL_PROPERTY
U
SciTegic.value.DoubleValue
8.647

@<SCITEGIC>MOL_PROPERTY
W
SciTegic.value.DoubleValue
-59.434

@<SCITEGIC>MOL_PROPERTY
W(PB)
SciTegic.value.DoubleValue
-61.861

@<SCITEGIC>MOL_PROPERTY
W(SA)
SciTegic.value.DoubleValue
2.428

@<SCITEGIC>MOL_PROPERTY
Valence
SciTegic.value.DoubleValue
8.924

@<SCITEGIC>MOL_PROPERTY
Coulomb
SciTegic.value.DoubleValue
-1.170

@<SCITEGIC>MOL_PROPERTY
VdW
SciTegic.value.DoubleValue
0.894

@<SCITEGIC>MOL_PROPERTY
VdW6
SciTegic.value.DoubleValue
-10.224

@<SCITEGIC>MOL_PROPERTY
VdW12
SciTegic.value.DoubleValue
11.118

@<SCITEGIC>MOL_PROPERTY
Bond
SciTegic.value.DoubleValue
0.231

@<SCITEGIC>MOL_PROPERTY
Angle
SciTegic.value.DoubleValue
3.232

@<SCITEGIC>MOL_PROPERTY
Pdih
SciTegic.value.DoubleValue
5.460

@<SCITEGIC>MOL_PROPERTY
Idih
SciTegic.value.DoubleValue
0.000

@<SCITEGIC>MOL_PROPERTY
Tether
SciTegic.value.DoubleValue
0.000

@<TRIPOS>MOLECULE
guest-8_confgen4.mol2 : confsearch ligand conformer 301
          25          24           1
SMALL
USER_CHARGES
 
@<TRIPOS>ATOM
       1    C1      22.092851   19.706544   18.914394 C.2        1 MOL1         0.6168
       2    O1      21.134483   20.287358   18.442389 O.co2      1 MOL1        -0.6703
       3    O2      23.104769   19.473867   18.283521 O.co2      1 MOL1        -0.6703
       4    C2      22.052693   19.233794   20.368455 C.3        1 MOL1        -0.1963
       5    H1      22.903882   19.692689   20.884983 H          1 MOL1         0.0750
       6    H2      22.224993   18.151108   20.365036 H          1 MOL1         0.0750
       7    C3      20.740542   19.553853   21.132810 C.3        1 MOL1        -0.1860
       8    H3      20.570776   20.639509   21.126816 H          1 MOL1         0.0752
       9    H4      19.891272   19.096491   20.606440 H          1 MOL1         0.0752
      10    C4      20.785095   19.042997   22.589411 C.3        1 MOL1        -0.1858
      11    H5      21.634874   19.501493   23.113619 H          1 MOL1         0.0752
      12    H6      20.954923   17.957510   22.592916 H          1 MOL1         0.0752
      13    C5      19.478887   19.362450   23.347868 C.3        1 MOL1        -0.1858
      14    H7      19.308815   20.447885   23.344555 H          1 MOL1         0.0752
      15    H8      18.628927   18.904039   22.823912 H          1 MOL1         0.0752
      16    C6      19.522775   18.851939   24.804359 C.3        1 MOL1        -0.1858
      17    H9      20.372643   19.310270   25.328525 H          1 MOL1         0.0752
      18    H10     19.692736   17.766492   24.807908 H          1 MOL1         0.0752
      19    C7      18.217212   19.171233   25.562592 C.3        1 MOL1        -0.1834
      20    H11     18.044828   20.256485   25.562754 H          1 MOL1         0.0752
      21    H12     17.364925   18.712717   25.042150 H          1 MOL1         0.0752
      22    C8      18.264983   18.659894   27.016502 C.3        1 MOL1        -0.2849
      23    H13     19.090135   19.126740   27.570195 H          1 MOL1         0.0764
      24    H14     17.329436   18.895278   27.540366 H          1 MOL1         0.0764
      25    H15     18.405094   17.571356   27.045677 H          1 MOL1         0.0764
@<TRIPOS>BOND
    1     1     2    1
    2     1     3    2
    3     1     4    1
    4     4     5    1
    5     4     6    1
    6     4     7    1
    7     7     8    1
    8     7     9    1
    9     7    10    1
   10    10    11    1
   11    10    12    1
   12    10    13    1
   13    13    14    1
   14    13    15    1
   15    13    16    1
   16    16    17    1
   17    16    18    1
   18    16    19    1
   19    19    20    1
   20    19    21    1
   21    19    22    1
   22    22    23    1
   23    22    24    1
   24    22    25    1
@<TRIPOS>SUBSTRUCTURE
       1 MOL1            1 RESIDUE      1      MOL     
@<SCITEGIC>MOL_PROPERTY
VConf Rank
SciTegic.value.IntegerValue
301

@<SCITEGIC>MOL_PROPERTY
Conf_Id
SciTegic.value.IntegerValue
0

@<SCITEGIC>MOL_PROPERTY
Delta U+W
SciTegic.value.DoubleValue
0.000

@<SCITEGIC>MOL_PROPERTY
U+W
SciTegic.value.DoubleValue
-51.629

@<SCITEGIC>MOL_PROPERTY
Grad RMS
SciTegic.value.DoubleValue
0.000000

@<SCITEGIC>MOL_PROPERTY
U
SciTegic.value.DoubleValue
6.586

@<SCITEGIC>MOL_PROPERTY
W
SciTegic.value.DoubleValue
-58.216

@<SCITEGIC>MOL_PROPERTY
W(PB)
SciTegic.value.DoubleValue
-60.757

@<SCITEGIC>MOL_PROPERTY
W(SA)
SciTegic.value.DoubleValue
2.541

@<SCITEGIC>MOL_PROPERTY
Valence
SciTegic.value.DoubleValue
8.027

@<SCITEGIC>MOL_PROPERTY
Coulomb
SciTegic.value.DoubleValue
-2.892

@<SCITEGIC>MOL_PROPERTY
VdW
SciTegic.value.DoubleValue
1.451

@<SCITEGIC>MOL_PROPERTY
VdW6
SciTegic.value.DoubleValue
-7.931

@<SCITEGIC>MOL_PROPERTY
VdW12
SciTegic.value.DoubleValue
9.383

@<SCITEGIC>MOL_PROPERTY
Bond
SciTegic.value.DoubleValue
0.149

@<SCITEGIC>MOL_PROPERTY
Angle
SciTegic.value.DoubleValue
2.726

@<SCITEGIC>MOL_PROPERTY
Pdih
SciTegic.value.DoubleValue
5.152

@<SCITEGIC>MOL_PROPERTY
Idih
SciTegic.value.DoubleValue
0.000

@<SCITEGIC>MOL_PROPERTY
Tether
SciTegic.value.DoubleValue
0.000

@<TRIPOS>MOLECULE
guest-8_confgen4.mol2 : confsearch ligand conformer 302
          25          24           1
SMALL
USER_CHARGES
 
@<TRIPOS>ATOM
       1    C1      24.107919   19.971812   25.431938 C.2        1 MOL1         0.6168
       2    O1      24.016833   19.895325   26.641265 O.co2      1 MOL1        -0.6703
       3    O2      25.112588   19.682514   24.812610 O.co2      1 MOL1        -0.6703
       4    C2      22.886293   20.434565   24.646080 C.3        1 MOL1        -0.1963
       5    H1      23.236852   20.975392   23.758826 H          1 MOL1         0.0750
       6    H2      22.334164   21.151362   25.265726 H          1 MOL1         0.0750
       7    C3      21.961361   19.264847   24.228607 C.3        1 MOL1        -0.1860
       8    H3      22.532568   18.549900   23.620195 H          1 MOL1         0.0752
       9    H4      21.630035   18.725777   25.127061 H          1 MOL1         0.0752
      10    C4      20.732463   19.758709   23.434924 C.3        1 MOL1        -0.1858
      11    H5      21.067071   20.298064   22.538089 H          1 MOL1         0.0752
      12    H6      20.164411   20.474191   24.045319 H          1 MOL1         0.0752
      13    C5      19.812200   18.590512   23.020318 C.3        1 MOL1        -0.1858
      14    H7      20.380008   17.874944   22.409859 H          1 MOL1         0.0752
      15    H8      19.477470   18.051043   23.916998 H          1 MOL1         0.0752
      16    C6      18.583051   19.083621   22.226646 C.3        1 MOL1        -0.1858
      17    H9      18.917447   19.623055   21.329826 H          1 MOL1         0.0752
      18    H10     18.015015   19.799212   22.836858 H          1 MOL1         0.0752
      19    C7      17.663034   17.916073   21.812204 C.3        1 MOL1        -0.1834
      20    H11     18.227395   17.199021   21.199978 H          1 MOL1         0.0752
      21    H12     17.324947   17.375197   22.706989 H          1 MOL1         0.0752
      22    C8      16.436909   18.412558   21.019915 C.3        1 MOL1        -0.2849
      23    H13     15.794191   17.569949   20.733537 H          1 MOL1         0.0764
      24    H14     15.836276   19.108018   21.620725 H          1 MOL1         0.0764
      25    H15     16.745521   18.930512   20.102376 H          1 MOL1         0.0764
@<TRIPOS>BOND
    1     1     2    1
    2     1     3    2
    3     1     4    1
    4     4     5    1
    5     4     6    1
    6     4     7    1
    7     7     8    1
    8     7     9    1
    9     7    10    1
   10    10    11    1
   11    10    12    1
   12    10    13    1
   13    13    14    1
   14    13    15    1
   15    13    16    1
   16    16    17    1
   17    16    18    1
   18    16    19    1
   19    19    20    1
   20    19    21    1
   21    19    22    1
   22    22    23    1
   23    22    24    1
   24    22    25    1
@<TRIPOS>SUBSTRUCTURE
       1 MOL1            1 RESIDUE      1      MOL     
@<SCITEGIC>MOL_PROPERTY
VConf Rank
SciTegic.value.IntegerValue
302

@<SCITEGIC>MOL_PROPERTY
Conf_Id
SciTegic.value.IntegerValue
27

@<SCITEGIC>MOL_PROPERTY
Delta U+W
SciTegic.value.DoubleValue
-1.297

@<SCITEGIC>MOL_PROPERTY
U+W
SciTegic.value.DoubleValue
-52.926

@<SCITEGIC>MOL_PROPERTY
Grad RMS
SciTegic.value.DoubleValue
0.000000

@<SCITEGIC>MOL_PROPERTY
U
SciTegic.value.DoubleValue
5.617

@<SCITEGIC>MOL_PROPERTY
W
SciTegic.value.DoubleValue
-58.543

@<SCITEGIC>MOL_PROPERTY
W(PB)
SciTegic.value.DoubleValue
-61.065

@<SCITEGIC>MOL_PROPERTY
W(SA)
SciTegic.value.DoubleValue
2.522

@<SCITEGIC>MOL_PROPERTY
Valence
SciTegic.value.DoubleValue
7.531

@<SCITEGIC>MOL_PROPERTY
Coulomb
SciTegic.value.DoubleValue
-2.818

@<SCITEGIC>MOL_PROPERTY
VdW
SciTegic.value.DoubleValue
0.904

@<SCITEGIC>MOL_PROPERTY
VdW6
SciTegic.value.DoubleValue
-7.640

@<SCITEGIC>MOL_PROPERTY
VdW12
SciTegic.value.DoubleValue
8.544

@<SCITEGIC>MOL_PROPERTY
Bond
SciTegic.value.DoubleValue
0.115

@<SCITEGIC>MOL_PROPERTY
Angle
SciTegic.value.DoubleValue
2.271

@<SCITEGIC>MOL_PROPERTY
Pdih
SciTegic.value.DoubleValue
5.144

@<SCITEGIC>MOL_PROPERTY
Idih
SciTegic.value.DoubleValue
0.001

@<SCITEGIC>MOL_PROPERTY
Tether
SciTegic.value.DoubleValue
0.000

@<TRIPOS>MOLECULE
guest-8_confgen4.mol2 : confsearch ligand conformer 303
          25          24           1
SMALL
USER_CHARGES
 
@<TRIPOS>ATOM
       1    C1      16.403206   19.975753   22.428304 C.2        1 MOL1         0.6168
       2    O1      16.292147   20.787837   21.530941 O.co2      1 MOL1        -0.6703
       3    O2      16.052967   18.815904   22.333193 O.co2      1 MOL1        -0.6703
       4    C2      17.000114   20.444765   23.752197 C.3        1 MOL1        -0.1963
       5    H1      16.720752   19.729364   24.535143 H          1 MOL1         0.0750
       6    H2      16.522346   21.397836   24.007892 H          1 MOL1         0.0750
       7    C3      18.539557   20.629107   23.719391 C.3        1 MOL1        -0.1860
       8    H3      18.805475   21.326482   22.912776 H          1 MOL1         0.0752
       9    H4      18.862775   21.095556   24.659872 H          1 MOL1         0.0752
      10    C4      19.293942   19.294303   23.527114 C.3        1 MOL1        -0.1858
      11    H5      18.988776   18.829765   22.579221 H          1 MOL1         0.0752
      12    H6      19.014512   18.596124   24.328043 H          1 MOL1         0.0752
      13    C5      20.824474   19.497034   23.529503 C.3        1 MOL1        -0.1858
      14    H7      21.102925   20.195304   22.728271 H          1 MOL1         0.0752
      15    H8      21.132322   19.958703   24.477727 H          1 MOL1         0.0752
      16    C6      21.578900   18.163813   23.336570 C.3        1 MOL1        -0.1858
      17    H9      21.271086   17.701967   22.388373 H          1 MOL1         0.0752
      18    H10     21.300317   17.465262   24.137507 H          1 MOL1         0.0752
      19    C7      23.108764   18.366005   23.338365 C.3        1 MOL1        -0.1834
      20    H11     23.391262   19.062912   22.537117 H          1 MOL1         0.0752
      21    H12     23.420527   18.826122   24.286297 H          1 MOL1         0.0752
      22    C8      23.858323   17.032406   23.145280 C.3        1 MOL1        -0.2849
      23    H13     23.588851   16.565235   22.188968 H          1 MOL1         0.0764
      24    H14     24.944015   17.194695   23.149099 H          1 MOL1         0.0764
      25    H15     23.618309   16.326620   23.951291 H          1 MOL1         0.0764
@<TRIPOS>BOND
    1     1     2    1
    2     1     3    2
    3     1     4    1
    4     4     5    1
    5     4     6    1
    6     4     7    1
    7     7     8    1
    8     7     9    1
    9     7    10    1
   10    10    11    1
   11    10    12    1
   12    10    13    1
   13    13    14    1
   14    13    15    1
   15    13    16    1
   16    16    17    1
   17    16    18    1
   18    16    19    1
   19    19    20    1
   20    19    21    1
   21    19    22    1
   22    22    23    1
   23    22    24    1
   24    22    25    1
@<TRIPOS>SUBSTRUCTURE
       1 MOL1            1 RESIDUE      1      MOL     
@<SCITEGIC>MOL_PROPERTY
VConf Rank
SciTegic.value.IntegerValue
303

@<SCITEGIC>MOL_PROPERTY
Conf_Id
SciTegic.value.IntegerValue
37

@<SCITEGIC>MOL_PROPERTY
Delta U+W
SciTegic.value.DoubleValue
-0.230

@<SCITEGIC>MOL_PROPERTY
U+W
SciTegic.value.DoubleValue
-51.860

@<SCITEGIC>MOL_PROPERTY
Grad RMS
SciTegic.value.DoubleValue
0.000000

@<SCITEGIC>MOL_PROPERTY
U
SciTegic.value.DoubleValue
7.816

@<SCITEGIC>MOL_PROPERTY
W
SciTegic.value.DoubleValue
-59.675

@<SCITEGIC>MOL_PROPERTY
W(PB)
SciTegic.value.DoubleValue
-62.180

@<SCITEGIC>MOL_PROPERTY
W(SA)
SciTegic.value.DoubleValue
2.505

@<SCITEGIC>MOL_PROPERTY
Valence
SciTegic.value.DoubleValue
7.785

@<SCITEGIC>MOL_PROPERTY
Coulomb
SciTegic.value.DoubleValue
-0.713

@<SCITEGIC>MOL_PROPERTY
VdW
SciTegic.value.DoubleValue
0.744

@<SCITEGIC>MOL_PROPERTY
VdW6
SciTegic.value.DoubleValue
-8.514

@<SCITEGIC>MOL_PROPERTY
VdW12
SciTegic.value.DoubleValue
9.259

@<SCITEGIC>MOL_PROPERTY
Bond
SciTegic.value.DoubleValue
0.136

@<SCITEGIC>MOL_PROPERTY
Angle
SciTegic.value.DoubleValue
2.433

@<SCITEGIC>MOL_PROPERTY
Pdih
SciTegic.value.DoubleValue
5.216

@<SCITEGIC>MOL_PROPERTY
Idih
SciTegic.value.DoubleValue
0.000

@<SCITEGIC>MOL_PROPERTY
Tether
SciTegic.value.DoubleValue
0.000

@<TRIPOS>MOLECULE
guest-8_confgen4.mol2 : confsearch ligand conformer 304
          25          24           1
SMALL
USER_CHARGES
 
@<TRIPOS>ATOM
       1    C1      17.745655   19.505000   26.675623 C.2        1 MOL1         0.6168
       2    O1      18.398081   19.495466   27.700964 O.co2      1 MOL1        -0.6703
       3    O2      17.003229   18.602450   26.342198 O.co2      1 MOL1        -0.6703
       4    C2      17.853853   20.725799   25.766278 C.3        1 MOL1        -0.1963
       5    H1      17.782552   21.615831   26.402472 H          1 MOL1         0.0750
       6    H2      16.984411   20.742674   25.097973 H          1 MOL1         0.0750
       7    C3      19.165401   20.782586   24.940709 C.3        1 MOL1        -0.1860
       8    H3      19.220799   21.751301   24.425859 H          1 MOL1         0.0752
       9    H4      20.026508   20.736812   25.621938 H          1 MOL1         0.0752
      10    C4      19.261377   19.645602   23.898681 C.3        1 MOL1        -0.1858
      11    H5      18.391750   19.687516   23.228594 H          1 MOL1         0.0752
      12    H6      19.224122   18.672590   24.407878 H          1 MOL1         0.0752
      13    C5      20.558896   19.739981   23.067316 C.3        1 MOL1        -0.1858
      14    H7      20.596935   20.711053   22.554864 H          1 MOL1         0.0752
      15    H8      21.427914   19.697862   23.738227 H          1 MOL1         0.0752
      16    C6      20.655821   18.603802   22.026374 C.3        1 MOL1        -0.1858
      17    H9      19.786736   18.645562   21.355532 H          1 MOL1         0.0752
      18    H10     20.617661   17.632611   22.538681 H          1 MOL1         0.0752
      19    C7      21.952877   18.697358   21.195558 C.3        1 MOL1        -0.1834
      20    H11     21.993574   19.666999   20.680175 H          1 MOL1         0.0752
      21    H12     22.824472   18.653932   21.863330 H          1 MOL1         0.0752
      22    C8      22.045780   17.561066   20.157380 C.3        1 MOL1        -0.2849
      23    H13     21.201883   17.599716   19.456140 H          1 MOL1         0.0764
      24    H14     22.973409   17.642932   19.576103 H          1 MOL1         0.0764
      25    H15     22.038960   16.579014   20.648223 H          1 MOL1         0.0764
@<TRIPOS>BOND
    1     1     2    1
    2     1     3    2
    3     1     4    1
    4     4     5    1
    5     4     6    1
    6     4     7    1
    7     7     8    1
    8     7     9    1
    9     7    10    1
   10    10    11    1
   11    10    12    1
   12    10    13    1
   13    13    14    1
   14    13    15    1
   15    13    16    1
   16    16    17    1
   17    16    18    1
   18    16    19    1
   19    19    20    1
   20    19    21    1
   21    19    22    1
   22    22    23    1
   23    22    24    1
   24    22    25    1
@<TRIPOS>SUBSTRUCTURE
       1 MOL1            1 RESIDUE      1      MOL     
@<SCITEGIC>MOL_PROPERTY
VConf Rank
SciTegic.value.IntegerValue
304

@<SCITEGIC>MOL_PROPERTY
Conf_Id
SciTegic.value.IntegerValue
54

@<SCITEGIC>MOL_PROPERTY
Delta U+W
SciTegic.value.DoubleValue
-0.224

@<SCITEGIC>MOL_PROPERTY
U+W
SciTegic.value.DoubleValue
-51.854

@<SCITEGIC>MOL_PROPERTY
Grad RMS
SciTegic.value.DoubleValue
0.000000

@<SCITEGIC>MOL_PROPERTY
U
SciTegic.value.DoubleValue
7.816

@<SCITEGIC>MOL_PROPERTY
W
SciTegic.value.DoubleValue
-59.670

@<SCITEGIC>MOL_PROPERTY
W(PB)
SciTegic.value.DoubleValue
-62.157

@<SCITEGIC>MOL_PROPERTY
W(SA)
SciTegic.value.DoubleValue
2.487

@<SCITEGIC>MOL_PROPERTY
Valence
SciTegic.value.DoubleValue
7.785

@<SCITEGIC>MOL_PROPERTY
Coulomb
SciTegic.value.DoubleValue
-0.713

@<SCITEGIC>MOL_PROPERTY
VdW
SciTegic.value.DoubleValue
0.744

@<SCITEGIC>MOL_PROPERTY
VdW6
SciTegic.value.DoubleValue
-8.515

@<SCITEGIC>MOL_PROPERTY
VdW12
SciTegic.value.DoubleValue
9.259

@<SCITEGIC>MOL_PROPERTY
Bond
SciTegic.value.DoubleValue
0.136

@<SCITEGIC>MOL_PROPERTY
Angle
SciTegic.value.DoubleValue
2.433

@<SCITEGIC>MOL_PROPERTY
Pdih
SciTegic.value.DoubleValue
5.215

@<SCITEGIC>MOL_PROPERTY
Idih
SciTegic.value.DoubleValue
0.000

@<SCITEGIC>MOL_PROPERTY
Tether
SciTegic.value.DoubleValue
0.000

@<TRIPOS>MOLECULE
guest-8_confgen4.mol2 : confsearch ligand conformer 305
          25          24           1
SMALL
USER_CHARGES
 
@<TRIPOS>ATOM
       1    C1      16.348865   17.796752   22.717002 C.2        1 MOL1         0.6168
       2    O1      16.229799   17.729588   21.509375 O.co2      1 MOL1        -0.6703
       3    O2      16.060192   16.889788   23.472775 O.co2      1 MOL1        -0.6703
       4    C2      16.871916   19.097032   23.321050 C.3        1 MOL1        -0.1963
       5    H1      16.220001   19.350600   24.165254 H          1 MOL1         0.0750
       6    H2      16.758522   19.898105   22.580609 H          1 MOL1         0.0750
       7    C3      18.342765   19.021700   23.807460 C.3        1 MOL1        -0.1860
       8    H3      18.572150   19.940942   24.360796 H          1 MOL1         0.0752
       9    H4      18.449060   18.189100   24.516598 H          1 MOL1         0.0752
      10    C4      19.345708   18.849109   22.641154 C.3        1 MOL1        -0.1858
      11    H5      19.270530   19.705163   21.956832 H          1 MOL1         0.0752
      12    H6      19.067307   17.961520   22.056641 H          1 MOL1         0.0752
      13    C5      20.812803   18.682820   23.104764 C.3        1 MOL1        -0.1858
      14    H7      20.884066   17.838427   23.803691 H          1 MOL1         0.0752
      15    H8      21.415568   18.412784   22.228451 H          1 MOL1         0.0752
      16    C6      21.402668   19.956119   23.760204 C.3        1 MOL1        -0.1858
      17    H9      20.806002   20.224042   24.641159 H          1 MOL1         0.0752
      18    H10     21.326502   20.801294   23.062713 H          1 MOL1         0.0752
      19    C7      22.872515   19.789640   24.212220 C.3        1 MOL1        -0.1834
      20    H11     23.166664   20.679861   24.785133 H          1 MOL1         0.0752
      21    H12     22.954921   18.937146   24.900525 H          1 MOL1         0.0752
      22    C8      23.859754   19.608525   23.038553 C.3        1 MOL1        -0.2849
      23    H13     23.683108   18.665514   22.506641 H          1 MOL1         0.0764
      24    H14     23.770163   20.432641   22.318888 H          1 MOL1         0.0764
      25    H15     24.893820   19.592525   23.406461 H          1 MOL1         0.0764
@<TRIPOS>BOND
    1     1     2    1
    2     1     3    2
    3     1     4    1
    4     4     5    1
    5     4     6    1
    6     4     7    1
    7     7     8    1
    8     7     9    1
    9     7    10    1
   10    10    11    1
   11    10    12    1
   12    10    13    1
   13    13    14    1
   14    13    15    1
   15    13    16    1
   16    16    17    1
   17    16    18    1
   18    16    19    1
   19    19    20    1
   20    19    21    1
   21    19    22    1
   22    22    23    1
   23    22    24    1
   24    22    25    1
@<TRIPOS>SUBSTRUCTURE
       1 MOL1            1 RESIDUE      1      MOL     
@<SCITEGIC>MOL_PROPERTY
VConf Rank
SciTegic.value.IntegerValue
305

@<SCITEGIC>MOL_PROPERTY
Conf_Id
SciTegic.value.IntegerValue
101

@<SCITEGIC>MOL_PROPERTY
Delta U+W
SciTegic.value.DoubleValue
1.534

@<SCITEGIC>MOL_PROPERTY
U+W
SciTegic.value.DoubleValue
-50.095

@<SCITEGIC>MOL_PROPERTY
Grad RMS
SciTegic.value.DoubleValue
0.000000

@<SCITEGIC>MOL_PROPERTY
U
SciTegic.value.DoubleValue
9.416

@<SCITEGIC>MOL_PROPERTY
W
SciTegic.value.DoubleValue
-59.512

@<SCITEGIC>MOL_PROPERTY
W(PB)
SciTegic.value.DoubleValue
-61.988

@<SCITEGIC>MOL_PROPERTY
W(SA)
SciTegic.value.DoubleValue
2.476

@<SCITEGIC>MOL_PROPERTY
Valence
SciTegic.value.DoubleValue
8.939

@<SCITEGIC>MOL_PROPERTY
Coulomb
SciTegic.value.DoubleValue
-0.615

@<SCITEGIC>MOL_PROPERTY
VdW
SciTegic.value.DoubleValue
1.092

@<SCITEGIC>MOL_PROPERTY
VdW6
SciTegic.value.DoubleValue
-9.710

@<SCITEGIC>MOL_PROPERTY
VdW12
SciTegic.value.DoubleValue
10.802

@<SCITEGIC>MOL_PROPERTY
Bond
SciTegic.value.DoubleValue
0.216

@<SCITEGIC>MOL_PROPERTY
Angle
SciTegic.value.DoubleValue
2.979

@<SCITEGIC>MOL_PROPERTY
Pdih
SciTegic.value.DoubleValue
5.743

@<SCITEGIC>MOL_PROPERTY
Idih
SciTegic.value.DoubleValue
0.000

@<SCITEGIC>MOL_PROPERTY
Tether
SciTegic.value.DoubleValue
0.000

@<TRIPOS>MOLECULE
guest-8_confgen4.mol2 : confsearch ligand conformer 306
          25          24           1
SMALL
USER_CHARGES
 
@<TRIPOS>ATOM
       1    C1      17.552968   16.259626   21.691227 C.2        1 MOL1         0.6168
       2    O1      16.608139   16.830429   21.183074 O.co2      1 MOL1        -0.6703
       3    O2      17.880063   15.122314   21.414994 O.co2      1 MOL1        -0.6703
       4    C2      18.387843   17.020060   22.715381 C.3        1 MOL1        -0.1963
       5    H1      18.778778   16.296057   23.440177 H          1 MOL1         0.0750
       6    H2      17.715364   17.693602   23.258036 H          1 MOL1         0.0750
       7    C3      19.553646   17.812501   22.068470 C.3        1 MOL1        -0.1860
       8    H3      20.148529   17.122531   21.454074 H          1 MOL1         0.0752
       9    H4      19.148181   18.567925   21.381278 H          1 MOL1         0.0752
      10    C4      20.490202   18.490315   23.097129 C.3        1 MOL1        -0.1858
      11    H5      21.351620   18.898295   22.553070 H          1 MOL1         0.0752
      12    H6      20.886609   17.734788   23.788943 H          1 MOL1         0.0752
      13    C5      19.806240   19.625656   23.897816 C.3        1 MOL1        -0.1858
      14    H7      19.410757   20.381113   23.206518 H          1 MOL1         0.0752
      15    H8      18.939509   19.222101   24.435998 H          1 MOL1         0.0752
      16    C6      20.738307   20.296891   24.938513 C.3        1 MOL1        -0.1858
      17    H9      21.053857   19.542310   25.671802 H          1 MOL1         0.0752
      18    H10     20.157394   21.040507   25.500870 H          1 MOL1         0.0752
      19    C7      21.998588   20.985978   24.358590 C.3        1 MOL1        -0.1834
      20    H11     22.574170   21.416520   25.189483 H          1 MOL1         0.0752
      21    H12     22.656199   20.242537   23.889351 H          1 MOL1         0.0752
      22    C8      21.673628   22.106530   23.347301 C.3        1 MOL1        -0.2849
      23    H13     20.996749   22.849729   23.788285 H          1 MOL1         0.0764
      24    H14     22.591163   22.624362   23.039490 H          1 MOL1         0.0764
      25    H15     21.200802   21.702446   22.443292 H          1 MOL1         0.0764
@<TRIPOS>BOND
    1     1     2    1
    2     1     3    2
    3     1     4    1
    4     4     5    1
    5     4     6    1
    6     4     7    1
    7     7     8    1
    8     7     9    1
    9     7    10    1
   10    10    11    1
   11    10    12    1
   12    10    13    1
   13    13    14    1
   14    13    15    1
   15    13    16    1
   16    16    17    1
   17    16    18    1
   18    16    19    1
   19    19    20    1
   20    19    21    1
   21    19    22    1
   22    22    23    1
   23    22    24    1
   24    22    25    1
@<TRIPOS>SUBSTRUCTURE
       1 MOL1            1 RESIDUE      1      MOL     
@<SCITEGIC>MOL_PROPERTY
VConf Rank
SciTegic.value.IntegerValue
306

@<SCITEGIC>MOL_PROPERTY
Conf_Id
SciTegic.value.IntegerValue
75

@<SCITEGIC>MOL_PROPERTY
Delta U+W
SciTegic.value.DoubleValue
1.014

@<SCITEGIC>MOL_PROPERTY
U+W
SciTegic.value.DoubleValue
-50.615

@<SCITEGIC>MOL_PROPERTY
Grad RMS
SciTegic.value.DoubleValue
0.000000

@<SCITEGIC>MOL_PROPERTY
U
SciTegic.value.DoubleValue
8.474

@<SCITEGIC>MOL_PROPERTY
W
SciTegic.value.DoubleValue
-59.089

@<SCITEGIC>MOL_PROPERTY
W(PB)
SciTegic.value.DoubleValue
-61.530

@<SCITEGIC>MOL_PROPERTY
W(SA)
SciTegic.value.DoubleValue
2.441

@<SCITEGIC>MOL_PROPERTY
Valence
SciTegic.value.DoubleValue
9.080

@<SCITEGIC>MOL_PROPERTY
Coulomb
SciTegic.value.DoubleValue
-1.772

@<SCITEGIC>MOL_PROPERTY
VdW
SciTegic.value.DoubleValue
1.165

@<SCITEGIC>MOL_PROPERTY
VdW6
SciTegic.value.DoubleValue
-9.830

@<SCITEGIC>MOL_PROPERTY
VdW12
SciTegic.value.DoubleValue
10.996

@<SCITEGIC>MOL_PROPERTY
Bond
SciTegic.value.DoubleValue
0.240

@<SCITEGIC>MOL_PROPERTY
Angle
SciTegic.value.DoubleValue
3.225

@<SCITEGIC>MOL_PROPERTY
Pdih
SciTegic.value.DoubleValue
5.615

@<SCITEGIC>MOL_PROPERTY
Idih
SciTegic.value.DoubleValue
0.001

@<SCITEGIC>MOL_PROPERTY
Tether
SciTegic.value.DoubleValue
0.000

@<TRIPOS>MOLECULE
guest-8_confgen4.mol2 : confsearch ligand conformer 307
          25          24           1
SMALL
USER_CHARGES
 
@<TRIPOS>ATOM
       1    C1      21.619468   19.016498   19.335226 C.2        1 MOL1         0.6168
       2    O1      22.320988   19.993062   19.159601 O.co2      1 MOL1        -0.6703
       3    O2      21.751615   17.973954   18.725055 O.co2      1 MOL1        -0.6703
       4    C2      20.526515   19.096580   20.395000 C.3        1 MOL1        -0.1963
       5    H1      19.689694   18.466928   20.069686 H          1 MOL1         0.0750
       6    H2      20.160680   20.129814   20.429617 H          1 MOL1         0.0750
       7    C3      21.014404   18.655090   21.796831 C.3        1 MOL1        -0.1860
       8    H3      21.389319   17.623589   21.742612 H          1 MOL1         0.0752
       9    H4      21.860386   19.286571   22.101923 H          1 MOL1         0.0752
      10    C4      19.890728   18.746648   22.851876 C.3        1 MOL1        -0.1858
      11    H5      19.047276   18.114402   22.542576 H          1 MOL1         0.0752
      12    H6      19.514175   19.775634   22.891999 H          1 MOL1         0.0752
      13    C5      20.381362   18.298968   24.248871 C.3        1 MOL1        -0.1858
      14    H7      20.719856   17.256473   24.174436 H          1 MOL1         0.0752
      15    H8      21.259713   18.885076   24.551850 H          1 MOL1         0.0752
      16    C6      19.284678   18.382365   25.341004 C.3        1 MOL1        -0.1858
      17    H9      19.423358   17.537291   26.029108 H          1 MOL1         0.0752
      18    H10     18.290650   18.243241   24.894473 H          1 MOL1         0.0752
      19    C7      19.311204   19.679920   26.186315 C.3        1 MOL1        -0.1834
      20    H11     18.551265   19.597253   26.975511 H          1 MOL1         0.0752
      21    H12     20.278919   19.765081   26.699650 H          1 MOL1         0.0752
      22    C8      19.045868   20.966957   25.377919 C.3        1 MOL1        -0.2849
      23    H13     18.115978   20.885075   24.800371 H          1 MOL1         0.0764
      24    H14     18.952661   21.829875   26.049811 H          1 MOL1         0.0764
      25    H15     19.870420   21.175703   24.684979 H          1 MOL1         0.0764
@<TRIPOS>BOND
    1     1     2    1
    2     1     3    2
    3     1     4    1
    4     4     5    1
    5     4     6    1
    6     4     7    1
    7     7     8    1
    8     7     9    1
    9     7    10    1
   10    10    11    1
   11    10    12    1
   12    10    13    1
   13    13    14    1
   14    13    15    1
   15    13    16    1
   16    16    17    1
   17    16    18    1
   18    16    19    1
   19    19    20    1
   20    19    21    1
   21    19    22    1
   22    22    23    1
   23    22    24    1
   24    22    25    1
@<TRIPOS>SUBSTRUCTURE
       1 MOL1            1 RESIDUE      1      MOL     
@<SCITEGIC>MOL_PROPERTY
VConf Rank
SciTegic.value.IntegerValue
307

@<SCITEGIC>MOL_PROPERTY
Conf_Id
SciTegic.value.IntegerValue
125

@<SCITEGIC>MOL_PROPERTY
Delta U+W
SciTegic.value.DoubleValue
2.314

@<SCITEGIC>MOL_PROPERTY
U+W
SciTegic.value.DoubleValue
-49.315

@<SCITEGIC>MOL_PROPERTY
Grad RMS
SciTegic.value.DoubleValue
0.000000

@<SCITEGIC>MOL_PROPERTY
U
SciTegic.value.DoubleValue
9.740

@<SCITEGIC>MOL_PROPERTY
W
SciTegic.value.DoubleValue
-59.054

@<SCITEGIC>MOL_PROPERTY
W(PB)
SciTegic.value.DoubleValue
-61.488

@<SCITEGIC>MOL_PROPERTY
W(SA)
SciTegic.value.DoubleValue
2.433

@<SCITEGIC>MOL_PROPERTY
Valence
SciTegic.value.DoubleValue
10.506

@<SCITEGIC>MOL_PROPERTY
Coulomb
SciTegic.value.DoubleValue
-1.761

@<SCITEGIC>MOL_PROPERTY
VdW
SciTegic.value.DoubleValue
0.994

@<SCITEGIC>MOL_PROPERTY
VdW6
SciTegic.value.DoubleValue
-9.209

@<SCITEGIC>MOL_PROPERTY
VdW12
SciTegic.value.DoubleValue
10.203

@<SCITEGIC>MOL_PROPERTY
Bond
SciTegic.value.DoubleValue
0.193

@<SCITEGIC>MOL_PROPERTY
Angle
SciTegic.value.DoubleValue
2.979

@<SCITEGIC>MOL_PROPERTY
Pdih
SciTegic.value.DoubleValue
7.334

@<SCITEGIC>MOL_PROPERTY
Idih
SciTegic.value.DoubleValue
0.001

@<SCITEGIC>MOL_PROPERTY
Tether
SciTegic.value.DoubleValue
0.000

@<TRIPOS>MOLECULE
guest-8_confgen4.mol2 : confsearch ligand conformer 308
          25          24           1
SMALL
USER_CHARGES
 
@<TRIPOS>ATOM
       1    C1      23.791120   20.856386   22.870868 C.2        1 MOL1         0.6168
       2    O1      23.576252   22.035125   22.668138 O.co2      1 MOL1        -0.6703
       3    O2      24.892816   20.349676   22.791788 O.co2      1 MOL1        -0.6703
       4    C2      22.609533   19.958675   23.220131 C.3        1 MOL1        -0.1963
       5    H1      21.894606   20.558133   23.794804 H          1 MOL1         0.0750
       6    H2      22.971520   19.161579   23.880401 H          1 MOL1         0.0750
       7    C3      21.929406   19.348282   21.967098 C.3        1 MOL1        -0.1860
       8    H3      21.529768   20.154898   21.337028 H          1 MOL1         0.0752
       9    H4      22.693075   18.835118   21.366334 H          1 MOL1         0.0752
      10    C4      20.804033   18.340956   22.303225 C.3        1 MOL1        -0.1858
      11    H5      21.208882   17.530809   22.925101 H          1 MOL1         0.0752
      12    H6      20.463754   17.874834   21.368424 H          1 MOL1         0.0752
      13    C5      19.592250   18.987055   23.014093 C.3        1 MOL1        -0.1858
      14    H7      19.908838   19.396036   23.981117 H          1 MOL1         0.0752
      15    H8      19.220342   19.828369   22.413727 H          1 MOL1         0.0752
      16    C6      18.451434   17.966843   23.235245 C.3        1 MOL1        -0.1858
      17    H9      18.806969   17.147284   23.874625 H          1 MOL1         0.0752
      18    H10     18.183410   17.514908   22.270485 H          1 MOL1         0.0752
      19    C7      17.179110   18.591193   23.854274 C.3        1 MOL1        -0.1834
      20    H11     16.817573   19.407963   23.214365 H          1 MOL1         0.0752
      21    H12     16.384686   17.832274   23.866864 H          1 MOL1         0.0752
      22    C8      17.390694   19.112647   25.292294 C.3        1 MOL1        -0.2849
      23    H13     18.092633   19.955562   25.313833 H          1 MOL1         0.0764
      24    H14     16.440713   19.461057   25.717783 H          1 MOL1         0.0764
      25    H15     17.782535   18.320750   25.943806 H          1 MOL1         0.0764
@<TRIPOS>BOND
    1     1     2    1
    2     1     3    2
    3     1     4    1
    4     4     5    1
    5     4     6    1
    6     4     7    1
    7     7     8    1
    8     7     9    1
    9     7    10    1
   10    10    11    1
   11    10    12    1
   12    10    13    1
   13    13    14    1
   14    13    15    1
   15    13    16    1
   16    16    17    1
   17    16    18    1
   18    16    19    1
   19    19    20    1
   20    19    21    1
   21    19    22    1
   22    22    23    1
   23    22    24    1
   24    22    25    1
@<TRIPOS>SUBSTRUCTURE
       1 MOL1            1 RESIDUE      1      MOL     
@<SCITEGIC>MOL_PROPERTY
VConf Rank
SciTegic.value.IntegerValue
308

@<SCITEGIC>MOL_PROPERTY
Conf_Id
SciTegic.value.IntegerValue
4

@<SCITEGIC>MOL_PROPERTY
Delta U+W
SciTegic.value.DoubleValue
0.189

@<SCITEGIC>MOL_PROPERTY
U+W
SciTegic.value.DoubleValue
-51.441

@<SCITEGIC>MOL_PROPERTY
Grad RMS
SciTegic.value.DoubleValue
0.000000

@<SCITEGIC>MOL_PROPERTY
U
SciTegic.value.DoubleValue
7.701

@<SCITEGIC>MOL_PROPERTY
W
SciTegic.value.DoubleValue
-59.141

@<SCITEGIC>MOL_PROPERTY
W(PB)
SciTegic.value.DoubleValue
-61.609

@<SCITEGIC>MOL_PROPERTY
W(SA)
SciTegic.value.DoubleValue
2.467

@<SCITEGIC>MOL_PROPERTY
Valence
SciTegic.value.DoubleValue
8.550

@<SCITEGIC>MOL_PROPERTY
Coulomb
SciTegic.value.DoubleValue
-1.988

@<SCITEGIC>MOL_PROPERTY
VdW
SciTegic.value.DoubleValue
1.139

@<SCITEGIC>MOL_PROPERTY
VdW6
SciTegic.value.DoubleValue
-8.988

@<SCITEGIC>MOL_PROPERTY
VdW12
SciTegic.value.DoubleValue
10.127

@<SCITEGIC>MOL_PROPERTY
Bond
SciTegic.value.DoubleValue
0.191

@<SCITEGIC>MOL_PROPERTY
Angle
SciTegic.value.DoubleValue
2.738

@<SCITEGIC>MOL_PROPERTY
Pdih
SciTegic.value.DoubleValue
5.621

@<SCITEGIC>MOL_PROPERTY
Idih
SciTegic.value.DoubleValue
0.001

@<SCITEGIC>MOL_PROPERTY
Tether
SciTegic.value.DoubleValue
0.000

@<TRIPOS>MOLECULE
guest-8_confgen4.mol2 : confsearch ligand conformer 309
          25          24           1
SMALL
USER_CHARGES
 
@<TRIPOS>ATOM
       1    C1      23.576729   20.490041   24.893267 C.2        1 MOL1         0.6168
       2    O1      23.339912   20.715910   26.063564 O.co2      1 MOL1        -0.6703
       3    O2      24.693676   20.516336   24.415273 O.co2      1 MOL1        -0.6703
       4    C2      22.410981   20.130736   23.978963 C.3        1 MOL1        -0.1963
       5    H1      22.643541   20.496367   22.971696 H          1 MOL1         0.0750
       6    H2      21.530816   20.680957   24.330087 H          1 MOL1         0.0750
       7    C3      22.125215   18.606842   23.942578 C.3        1 MOL1        -0.1860
       8    H3      23.053070   18.080433   23.679087 H          1 MOL1         0.0752
       9    H4      21.847766   18.261515   24.948113 H          1 MOL1         0.0752
      10    C4      21.024795   18.207987   22.930576 C.3        1 MOL1        -0.1858
      11    H5      20.973117   17.111472   22.887054 H          1 MOL1         0.0752
      12    H6      21.309755   18.545888   21.924797 H          1 MOL1         0.0752
      13    C5      19.627483   18.764212   23.290196 C.3        1 MOL1        -0.1858
      14    H7      19.366505   18.466411   24.314778 H          1 MOL1         0.0752
      15    H8      19.651951   19.860383   23.269309 H          1 MOL1         0.0752
      16    C6      18.542999   18.254763   22.312670 C.3        1 MOL1        -0.1858
      17    H9      18.567602   17.156678   22.291467 H          1 MOL1         0.0752
      18    H10     18.776635   18.590907   21.293205 H          1 MOL1         0.0752
      19    C7      17.112846   18.705702   22.691000 C.3        1 MOL1        -0.1834
      20    H11     16.397831   18.207292   22.021995 H          1 MOL1         0.0752
      21    H12     16.873816   18.366542   23.708420 H          1 MOL1         0.0752
      22    C8      16.905852   20.232663   22.590356 C.3        1 MOL1        -0.2849
      23    H13     17.169256   20.599856   21.589908 H          1 MOL1         0.0764
      24    H14     15.855856   20.490839   22.779431 H          1 MOL1         0.0764
      25    H15     17.517058   20.769451   23.326544 H          1 MOL1         0.0764
@<TRIPOS>BOND
    1     1     2    1
    2     1     3    2
    3     1     4    1
    4     4     5    1
    5     4     6    1
    6     4     7    1
    7     7     8    1
    8     7     9    1
    9     7    10    1
   10    10    11    1
   11    10    12    1
   12    10    13    1
   13    13    14    1
   14    13    15    1
   15    13    16    1
   16    16    17    1
   17    16    18    1
   18    16    19    1
   19    19    20    1
   20    19    21    1
   21    19    22    1
   22    22    23    1
   23    22    24    1
   24    22    25    1
@<TRIPOS>SUBSTRUCTURE
       1 MOL1            1 RESIDUE      1      MOL     
@<SCITEGIC>MOL_PROPERTY
VConf Rank
SciTegic.value.IntegerValue
309

@<SCITEGIC>MOL_PROPERTY
Conf_Id
SciTegic.value.IntegerValue
17

@<SCITEGIC>MOL_PROPERTY
Delta U+W
SciTegic.value.DoubleValue
0.219

@<SCITEGIC>MOL_PROPERTY
U+W
SciTegic.value.DoubleValue
-51.411

@<SCITEGIC>MOL_PROPERTY
Grad RMS
SciTegic.value.DoubleValue
0.000000

@<SCITEGIC>MOL_PROPERTY
U
SciTegic.value.DoubleValue
7.701

@<SCITEGIC>MOL_PROPERTY
W
SciTegic.value.DoubleValue
-59.111

@<SCITEGIC>MOL_PROPERTY
W(PB)
SciTegic.value.DoubleValue
-61.599

@<SCITEGIC>MOL_PROPERTY
W(SA)
SciTegic.value.DoubleValue
2.488

@<SCITEGIC>MOL_PROPERTY
Valence
SciTegic.value.DoubleValue
8.550

@<SCITEGIC>MOL_PROPERTY
Coulomb
SciTegic.value.DoubleValue
-1.988

@<SCITEGIC>MOL_PROPERTY
VdW
SciTegic.value.DoubleValue
1.139

@<SCITEGIC>MOL_PROPERTY
VdW6
SciTegic.value.DoubleValue
-8.988

@<SCITEGIC>MOL_PROPERTY
VdW12
SciTegic.value.DoubleValue
10.127

@<SCITEGIC>MOL_PROPERTY
Bond
SciTegic.value.DoubleValue
0.191

@<SCITEGIC>MOL_PROPERTY
Angle
SciTegic.value.DoubleValue
2.738

@<SCITEGIC>MOL_PROPERTY
Pdih
SciTegic.value.DoubleValue
5.621

@<SCITEGIC>MOL_PROPERTY
Idih
SciTegic.value.DoubleValue
0.001

@<SCITEGIC>MOL_PROPERTY
Tether
SciTegic.value.DoubleValue
0.000

@<TRIPOS>MOLECULE
guest-8_confgen4.mol2 : confsearch ligand conformer 310
          25          24           1
SMALL
USER_CHARGES
 
@<TRIPOS>ATOM
       1    C1      18.330997   22.725994   23.654374 C.2        1 MOL1         0.6168
       2    O1      17.584678   22.904584   22.711944 O.co2      1 MOL1        -0.6703
       3    O2      19.325763   23.393052   23.860651 O.co2      1 MOL1        -0.6703
       4    C2      17.991714   21.616061   24.645266 C.3        1 MOL1        -0.1963
       5    H1      16.929772   21.363890   24.538204 H          1 MOL1         0.0750
       6    H2      18.120367   22.025781   25.654009 H          1 MOL1         0.0750
       7    C3      18.864111   20.343680   24.487568 C.3        1 MOL1        -0.1860
       8    H3      19.921697   20.624340   24.579275 H          1 MOL1         0.0752
       9    H4      18.644694   19.655764   25.315151 H          1 MOL1         0.0752
      10    C4      18.617272   19.619813   23.142266 C.3        1 MOL1        -0.1858
      11    H5      18.901276   20.275866   22.307846 H          1 MOL1         0.0752
      12    H6      17.541153   19.428241   23.032195 H          1 MOL1         0.0752
      13    C5      19.370970   18.274252   23.019274 C.3        1 MOL1        -0.1858
      14    H7      19.081890   17.613230   23.847726 H          1 MOL1         0.0752
      15    H8      19.044625   17.776205   22.096069 H          1 MOL1         0.0752
      16    C6      20.909059   18.430428   22.988878 C.3        1 MOL1        -0.1858
      17    H9      21.261167   18.858086   23.936537 H          1 MOL1         0.0752
      18    H10     21.190780   19.134975   22.194434 H          1 MOL1         0.0752
      19    C7      21.615006   17.078556   22.752597 C.3        1 MOL1        -0.1834
      20    H11     21.333785   16.370837   23.544750 H          1 MOL1         0.0752
      21    H12     21.276446   16.644490   21.801604 H          1 MOL1         0.0752
      22    C8      23.148773   17.235359   22.726255 C.3        1 MOL1        -0.2849
      23    H13     23.518876   17.637980   23.678254 H          1 MOL1         0.0764
      24    H14     23.634057   16.265355   22.556997 H          1 MOL1         0.0764
      25    H15     23.460274   17.915114   21.922339 H          1 MOL1         0.0764
@<TRIPOS>BOND
    1     1     2    1
    2     1     3    2
    3     1     4    1
    4     4     5    1
    5     4     6    1
    6     4     7    1
    7     7     8    1
    8     7     9    1
    9     7    10    1
   10    10    11    1
   11    10    12    1
   12    10    13    1
   13    13    14    1
   14    13    15    1
   15    13    16    1
   16    16    17    1
   17    16    18    1
   18    16    19    1
   19    19    20    1
   20    19    21    1
   21    19    22    1
   22    22    23    1
   23    22    24    1
   24    22    25    1
@<TRIPOS>SUBSTRUCTURE
       1 MOL1            1 RESIDUE      1      MOL     
@<SCITEGIC>MOL_PROPERTY
VConf Rank
SciTegic.value.IntegerValue
310

@<SCITEGIC>MOL_PROPERTY
Conf_Id
SciTegic.value.IntegerValue
142

@<SCITEGIC>MOL_PROPERTY
Delta U+W
SciTegic.value.DoubleValue
0.593

@<SCITEGIC>MOL_PROPERTY
U+W
SciTegic.value.DoubleValue
-51.037

@<SCITEGIC>MOL_PROPERTY
Grad RMS
SciTegic.value.DoubleValue
0.000000

@<SCITEGIC>MOL_PROPERTY
U
SciTegic.value.DoubleValue
8.903

@<SCITEGIC>MOL_PROPERTY
W
SciTegic.value.DoubleValue
-59.940

@<SCITEGIC>MOL_PROPERTY
W(PB)
SciTegic.value.DoubleValue
-62.418

@<SCITEGIC>MOL_PROPERTY
W(SA)
SciTegic.value.DoubleValue
2.478

@<SCITEGIC>MOL_PROPERTY
Valence
SciTegic.value.DoubleValue
8.305

@<SCITEGIC>MOL_PROPERTY
Coulomb
SciTegic.value.DoubleValue
-0.223

@<SCITEGIC>MOL_PROPERTY
VdW
SciTegic.value.DoubleValue
0.821

@<SCITEGIC>MOL_PROPERTY
VdW6
SciTegic.value.DoubleValue
-9.236

@<SCITEGIC>MOL_PROPERTY
VdW12
SciTegic.value.DoubleValue
10.057

@<SCITEGIC>MOL_PROPERTY
Bond
SciTegic.value.DoubleValue
0.173

@<SCITEGIC>MOL_PROPERTY
Angle
SciTegic.value.DoubleValue
2.663

@<SCITEGIC>MOL_PROPERTY
Pdih
SciTegic.value.DoubleValue
5.469

@<SCITEGIC>MOL_PROPERTY
Idih
SciTegic.value.DoubleValue
0.001

@<SCITEGIC>MOL_PROPERTY
Tether
SciTegic.value.DoubleValue
0.000

@<TRIPOS>MOLECULE
guest-8_confgen4.mol2 : confsearch ligand conformer 311
          25          24           1
SMALL
USER_CHARGES
 
@<TRIPOS>ATOM
       1    C1      18.558188   19.962490   20.428987 C.2        1 MOL1         0.6168
       2    O1      18.740276   20.599328   19.409753 O.co2      1 MOL1        -0.6703
       3    O2      18.051473   18.858015   20.449787 O.co2      1 MOL1        -0.6703
       4    C2      18.963639   20.598526   21.755638 C.3        1 MOL1        -0.1963
       5    H1      18.491188   20.040213   22.571956 H          1 MOL1         0.0750
       6    H2      18.533567   21.606496   21.779188 H          1 MOL1         0.0750
       7    C3      20.498893   20.689130   21.972248 C.3        1 MOL1        -0.1860
       8    H3      20.930426   21.311440   21.176203 H          1 MOL1         0.0752
       9    H4      20.700891   21.220198   22.911402 H          1 MOL1         0.0752
      10    C4      21.226725   19.319881   21.979976 C.3        1 MOL1        -0.1858
      11    H5      22.300808   19.492359   22.132270 H          1 MOL1         0.0752
      12    H6      21.133338   18.859786   20.986659 H          1 MOL1         0.0752
      13    C5      20.725285   18.309645   23.042195 C.3        1 MOL1        -0.1858
      14    H7      19.680781   18.039483   22.836821 H          1 MOL1         0.0752
      15    H8      21.304119   17.382127   22.936395 H          1 MOL1         0.0752
      16    C6      20.858845   18.822483   24.494719 C.3        1 MOL1        -0.1858
      17    H9      20.227730   19.709385   24.636858 H          1 MOL1         0.0752
      18    H10     21.896142   19.132485   24.680699 H          1 MOL1         0.0752
      19    C7      20.450738   17.743885   25.520151 C.3        1 MOL1        -0.1834
      20    H11     19.414095   17.430436   25.334149 H          1 MOL1         0.0752
      21    H12     21.081492   16.853246   25.392534 H          1 MOL1         0.0752
      22    C8      20.578665   18.258841   26.967959 C.3        1 MOL1        -0.2849
      23    H13     19.932918   19.131281   27.132960 H          1 MOL1         0.0764
      24    H14     20.284886   17.479607   27.683167 H          1 MOL1         0.0764
      25    H15     21.613233   18.550996   27.190820 H          1 MOL1         0.0764
@<TRIPOS>BOND
    1     1     2    1
    2     1     3    2
    3     1     4    1
    4     4     5    1
    5     4     6    1
    6     4     7    1
    7     7     8    1
    8     7     9    1
    9     7    10    1
   10    10    11    1
   11    10    12    1
   12    10    13    1
   13    13    14    1
   14    13    15    1
   15    13    16    1
   16    16    17    1
   17    16    18    1
   18    16    19    1
   19    19    20    1
   20    19    21    1
   21    19    22    1
   22    22    23    1
   23    22    24    1
   24    22    25    1
@<TRIPOS>SUBSTRUCTURE
       1 MOL1            1 RESIDUE      1      MOL     
@<SCITEGIC>MOL_PROPERTY
VConf Rank
SciTegic.value.IntegerValue
311

@<SCITEGIC>MOL_PROPERTY
Conf_Id
SciTegic.value.IntegerValue
135

@<SCITEGIC>MOL_PROPERTY
Delta U+W
SciTegic.value.DoubleValue
1.314

@<SCITEGIC>MOL_PROPERTY
U+W
SciTegic.value.DoubleValue
-50.316

@<SCITEGIC>MOL_PROPERTY
Grad RMS
SciTegic.value.DoubleValue
0.000000

@<SCITEGIC>MOL_PROPERTY
U
SciTegic.value.DoubleValue
9.773

@<SCITEGIC>MOL_PROPERTY
W
SciTegic.value.DoubleValue
-60.088

@<SCITEGIC>MOL_PROPERTY
W(PB)
SciTegic.value.DoubleValue
-62.535

@<SCITEGIC>MOL_PROPERTY
W(SA)
SciTegic.value.DoubleValue
2.447

@<SCITEGIC>MOL_PROPERTY
Valence
SciTegic.value.DoubleValue
8.741

@<SCITEGIC>MOL_PROPERTY
Coulomb
SciTegic.value.DoubleValue
0.479

@<SCITEGIC>MOL_PROPERTY
VdW
SciTegic.value.DoubleValue
0.552

@<SCITEGIC>MOL_PROPERTY
VdW6
SciTegic.value.DoubleValue
-10.627

@<SCITEGIC>MOL_PROPERTY
VdW12
SciTegic.value.DoubleValue
11.179

@<SCITEGIC>MOL_PROPERTY
Bond
SciTegic.value.DoubleValue
0.227

@<SCITEGIC>MOL_PROPERTY
Angle
SciTegic.value.DoubleValue
3.155

@<SCITEGIC>MOL_PROPERTY
Pdih
SciTegic.value.DoubleValue
5.358

@<SCITEGIC>MOL_PROPERTY
Idih
SciTegic.value.DoubleValue
0.001

@<SCITEGIC>MOL_PROPERTY
Tether
SciTegic.value.DoubleValue
0.000

@<TRIPOS>MOLECULE
guest-8_confgen4.mol2 : confsearch ligand conformer 312
          25          24           1
SMALL
USER_CHARGES
 
@<TRIPOS>ATOM
       1    C1      19.061830   19.340063   19.175094 C.2        1 MOL1         0.6168
       2    O1      19.308920   20.406867   18.648201 O.co2      1 MOL1        -0.6703
       3    O2      18.895214   18.306903   18.557364 O.co2      1 MOL1        -0.6703
       4    C2      18.978691   19.290427   20.696542 C.3        1 MOL1        -0.1963
       5    H1      18.253988   18.515010   20.972010 H          1 MOL1         0.0750
       6    H2      18.574816   20.249664   21.038478 H          1 MOL1         0.0750
       7    C3      20.349661   19.002225   21.362282 C.3        1 MOL1        -0.1860
       8    H3      20.766150   18.085228   20.922849 H          1 MOL1         0.0752
       9    H4      21.054264   19.809577   21.119386 H          1 MOL1         0.0752
      10    C4      20.269331   18.820943   22.897084 C.3        1 MOL1        -0.1858
      11    H5      21.248808   18.470508   23.246098 H          1 MOL1         0.0752
      12    H6      19.545720   18.030618   23.138643 H          1 MOL1         0.0752
      13    C5      19.900859   20.119871   23.653046 C.3        1 MOL1        -0.1858
      14    H7      20.661780   20.886313   23.452648 H          1 MOL1         0.0752
      15    H8      18.954681   20.515544   23.263605 H          1 MOL1         0.0752
      16    C6      19.742650   19.940294   25.184121 C.3        1 MOL1        -0.1858
      17    H9      18.919380   19.245053   25.398069 H          1 MOL1         0.0752
      18    H10     19.430218   20.908246   25.599246 H          1 MOL1         0.0752
      19    C7      21.028957   19.492473   25.922410 C.3        1 MOL1        -0.1834
      20    H11     21.919947   19.814754   25.366077 H          1 MOL1         0.0752
      21    H12     21.073759   20.005071   26.893254 H          1 MOL1         0.0752
      22    C8      21.081043   17.970459   26.183225 C.3        1 MOL1        -0.2849
      23    H13     21.048760   17.395179   25.250954 H          1 MOL1         0.0764
      24    H14     22.005431   17.702630   26.711035 H          1 MOL1         0.0764
      25    H15     20.234861   17.652459   26.806067 H          1 MOL1         0.0764
@<TRIPOS>BOND
    1     1     2    1
    2     1     3    2
    3     1     4    1
    4     4     5    1
    5     4     6    1
    6     4     7    1
    7     7     8    1
    8     7     9    1
    9     7    10    1
   10    10    11    1
   11    10    12    1
   12    10    13    1
   13    13    14    1
   14    13    15    1
   15    13    16    1
   16    16    17    1
   17    16    18    1
   18    16    19    1
   19    19    20    1
   20    19    21    1
   21    19    22    1
   22    22    23    1
   23    22    24    1
   24    22    25    1
@<TRIPOS>SUBSTRUCTURE
       1 MOL1            1 RESIDUE      1      MOL     
@<SCITEGIC>MOL_PROPERTY
VConf Rank
SciTegic.value.IntegerValue
312

@<SCITEGIC>MOL_PROPERTY
Conf_Id
SciTegic.value.IntegerValue
19

@<SCITEGIC>MOL_PROPERTY
Delta U+W
SciTegic.value.DoubleValue
3.222

@<SCITEGIC>MOL_PROPERTY
U+W
SciTegic.value.DoubleValue
-48.407

@<SCITEGIC>MOL_PROPERTY
Grad RMS
SciTegic.value.DoubleValue
0.000000

@<SCITEGIC>MOL_PROPERTY
U
SciTegic.value.DoubleValue
10.617

@<SCITEGIC>MOL_PROPERTY
W
SciTegic.value.DoubleValue
-59.025

@<SCITEGIC>MOL_PROPERTY
W(PB)
SciTegic.value.DoubleValue
-61.462

@<SCITEGIC>MOL_PROPERTY
W(SA)
SciTegic.value.DoubleValue
2.437

@<SCITEGIC>MOL_PROPERTY
Valence
SciTegic.value.DoubleValue
11.188

@<SCITEGIC>MOL_PROPERTY
Coulomb
SciTegic.value.DoubleValue
-1.778

@<SCITEGIC>MOL_PROPERTY
VdW
SciTegic.value.DoubleValue
1.208

@<SCITEGIC>MOL_PROPERTY
VdW6
SciTegic.value.DoubleValue
-9.786

@<SCITEGIC>MOL_PROPERTY
VdW12
SciTegic.value.DoubleValue
10.993

@<SCITEGIC>MOL_PROPERTY
Bond
SciTegic.value.DoubleValue
0.241

@<SCITEGIC>MOL_PROPERTY
Angle
SciTegic.value.DoubleValue
3.294

@<SCITEGIC>MOL_PROPERTY
Pdih
SciTegic.value.DoubleValue
7.653

@<SCITEGIC>MOL_PROPERTY
Idih
SciTegic.value.DoubleValue
0.001

@<SCITEGIC>MOL_PROPERTY
Tether
SciTegic.value.DoubleValue
0.000

@<TRIPOS>MOLECULE
guest-8_confgen4.mol2 : confsearch ligand conformer 313
          25          24           1
SMALL
USER_CHARGES
 
@<TRIPOS>ATOM
       1    C1      17.527165   20.456159   26.353441 C.2        1 MOL1         0.6168
       2    O1      17.963984   21.389468   26.997541 O.co2      1 MOL1        -0.6703
       3    O2      16.652407   19.713366   26.753224 O.co2      1 MOL1        -0.6703
       4    C2      18.125814   20.188052   24.977243 C.3        1 MOL1        -0.1963
       5    H1      18.404335   21.154212   24.542349 H          1 MOL1         0.0750
       6    H2      17.340750   19.759431   24.342968 H          1 MOL1         0.0750
       7    C3      19.349200   19.236088   25.031274 C.3        1 MOL1        -0.1860
       8    H3      20.147986   19.696107   25.629276 H          1 MOL1         0.0752
       9    H4      19.055663   18.318764   25.560235 H          1 MOL1         0.0752
      10    C4      19.896209   18.847405   23.636769 C.3        1 MOL1        -0.1858
      11    H5      19.089913   18.410833   23.031895 H          1 MOL1         0.0752
      12    H6      20.647657   18.060341   23.777642 H          1 MOL1         0.0752
      13    C5      20.542458   20.029964   22.876256 C.3        1 MOL1        -0.1858
      14    H7      19.818920   20.849980   22.789401 H          1 MOL1         0.0752
      15    H8      21.385125   20.422471   23.461446 H          1 MOL1         0.0752
      16    C6      21.028696   19.676467   21.447940 C.3        1 MOL1        -0.1858
      17    H9      21.414510   20.599012   20.993044 H          1 MOL1         0.0752
      18    H10     20.176461   19.371512   20.825363 H          1 MOL1         0.0752
      19    C7      22.147134   18.606070   21.388363 C.3        1 MOL1        -0.1834
      20    H11     22.851339   18.877306   20.589721 H          1 MOL1         0.0752
      21    H12     22.728023   18.608952   22.320990 H          1 MOL1         0.0752
      22    C8      21.614028   17.186269   21.093019 C.3        1 MOL1        -0.2849
      23    H13     21.099553   17.156814   20.123725 H          1 MOL1         0.0764
      24    H14     22.441004   16.465476   21.055945 H          1 MOL1         0.0764
      25    H15     20.908312   16.847456   21.860019 H          1 MOL1         0.0764
@<TRIPOS>BOND
    1     1     2    1
    2     1     3    2
    3     1     4    1
    4     4     5    1
    5     4     6    1
    6     4     7    1
    7     7     8    1
    8     7     9    1
    9     7    10    1
   10    10    11    1
   11    10    12    1
   12    10    13    1
   13    13    14    1
   14    13    15    1
   15    13    16    1
   16    16    17    1
   17    16    18    1
   18    16    19    1
   19    19    20    1
   20    19    21    1
   21    19    22    1
   22    22    23    1
   23    22    24    1
   24    22    25    1
@<TRIPOS>SUBSTRUCTURE
       1 MOL1            1 RESIDUE      1      MOL     
@<SCITEGIC>MOL_PROPERTY
VConf Rank
SciTegic.value.IntegerValue
313

@<SCITEGIC>MOL_PROPERTY
Conf_Id
SciTegic.value.IntegerValue
20

@<SCITEGIC>MOL_PROPERTY
Delta U+W
SciTegic.value.DoubleValue
3.224

@<SCITEGIC>MOL_PROPERTY
U+W
SciTegic.value.DoubleValue
-48.406

@<SCITEGIC>MOL_PROPERTY
Grad RMS
SciTegic.value.DoubleValue
0.000000

@<SCITEGIC>MOL_PROPERTY
U
SciTegic.value.DoubleValue
10.617

@<SCITEGIC>MOL_PROPERTY
W
SciTegic.value.DoubleValue
-59.023

@<SCITEGIC>MOL_PROPERTY
W(PB)
SciTegic.value.DoubleValue
-61.467

@<SCITEGIC>MOL_PROPERTY
W(SA)
SciTegic.value.DoubleValue
2.444

@<SCITEGIC>MOL_PROPERTY
Valence
SciTegic.value.DoubleValue
11.188

@<SCITEGIC>MOL_PROPERTY
Coulomb
SciTegic.value.DoubleValue
-1.778

@<SCITEGIC>MOL_PROPERTY
VdW
SciTegic.value.DoubleValue
1.208

@<SCITEGIC>MOL_PROPERTY
VdW6
SciTegic.value.DoubleValue
-9.786

@<SCITEGIC>MOL_PROPERTY
VdW12
SciTegic.value.DoubleValue
10.993

@<SCITEGIC>MOL_PROPERTY
Bond
SciTegic.value.DoubleValue
0.241

@<SCITEGIC>MOL_PROPERTY
Angle
SciTegic.value.DoubleValue
3.294

@<SCITEGIC>MOL_PROPERTY
Pdih
SciTegic.value.DoubleValue
7.653

@<SCITEGIC>MOL_PROPERTY
Idih
SciTegic.value.DoubleValue
0.001

@<SCITEGIC>MOL_PROPERTY
Tether
SciTegic.value.DoubleValue
0.000

@<TRIPOS>MOLECULE
guest-8_confgen4.mol2 : confsearch ligand conformer 314
          25          24           1
SMALL
USER_CHARGES
 
@<TRIPOS>ATOM
       1    C1      19.823622   16.084270   23.239880 C.2        1 MOL1         0.6168
       2    O1      19.299062   15.864994   22.165450 O.co2      1 MOL1        -0.6703
       3    O2      19.248599   15.964034   24.303886 O.co2      1 MOL1        -0.6703
       4    C2      21.302214   16.467348   23.260077 C.3        1 MOL1        -0.1963
       5    H1      21.848235   15.609470   22.850964 H          1 MOL1         0.0750
       6    H2      21.627455   16.578656   24.301527 H          1 MOL1         0.0750
       7    C3      21.669649   17.737549   22.442343 C.3        1 MOL1        -0.1860
       8    H3      22.746014   17.702168   22.226438 H          1 MOL1         0.0752
       9    H4      21.165064   17.713663   21.466424 H          1 MOL1         0.0752
      10    C4      21.376312   19.078966   23.159028 C.3        1 MOL1        -0.1858
      11    H5      21.811775   19.889599   22.558837 H          1 MOL1         0.0752
      12    H6      21.892936   19.101015   24.128280 H          1 MOL1         0.0752
      13    C5      19.872063   19.367290   23.365749 C.3        1 MOL1        -0.1858
      14    H7      19.338260   19.242486   22.413634 H          1 MOL1         0.0752
      15    H8      19.446867   18.641558   24.070394 H          1 MOL1         0.0752
      16    C6      19.633152   20.792450   23.910185 C.3        1 MOL1        -0.1858
      17    H9      20.047667   21.528865   23.208163 H          1 MOL1         0.0752
      18    H10     20.171576   20.916931   24.859730 H          1 MOL1         0.0752
      19    C7      18.132192   21.077344   24.127740 C.3        1 MOL1        -0.1834
      20    H11     17.590819   20.954425   23.179444 H          1 MOL1         0.0752
      21    H12     17.714331   20.343505   24.830931 H          1 MOL1         0.0752
      22    C8      17.896744   22.500772   24.671876 C.3        1 MOL1        -0.2849
      23    H13     18.277399   23.256596   23.972445 H          1 MOL1         0.0764
      24    H14     16.824946   22.685777   24.820485 H          1 MOL1         0.0764
      25    H15     18.401859   22.640991   25.636537 H          1 MOL1         0.0764
@<TRIPOS>BOND
    1     1     2    1
    2     1     3    2
    3     1     4    1
    4     4     5    1
    5     4     6    1
    6     4     7    1
    7     7     8    1
    8     7     9    1
    9     7    10    1
   10    10    11    1
   11    10    12    1
   12    10    13    1
   13    13    14    1
   14    13    15    1
   15    13    16    1
   16    16    17    1
   17    16    18    1
   18    16    19    1
   19    19    20    1
   20    19    21    1
   21    19    22    1
   22    22    23    1
   23    22    24    1
   24    22    25    1
@<TRIPOS>SUBSTRUCTURE
       1 MOL1            1 RESIDUE      1      MOL     
@<SCITEGIC>MOL_PROPERTY
VConf Rank
SciTegic.value.IntegerValue
314

@<SCITEGIC>MOL_PROPERTY
Conf_Id
SciTegic.value.IntegerValue
24

@<SCITEGIC>MOL_PROPERTY
Delta U+W
SciTegic.value.DoubleValue
1.784

@<SCITEGIC>MOL_PROPERTY
U+W
SciTegic.value.DoubleValue
-49.846

@<SCITEGIC>MOL_PROPERTY
Grad RMS
SciTegic.value.DoubleValue
0.000000

@<SCITEGIC>MOL_PROPERTY
U
SciTegic.value.DoubleValue
10.904

@<SCITEGIC>MOL_PROPERTY
W
SciTegic.value.DoubleValue
-60.749

@<SCITEGIC>MOL_PROPERTY
W(PB)
SciTegic.value.DoubleValue
-63.220

@<SCITEGIC>MOL_PROPERTY
W(SA)
SciTegic.value.DoubleValue
2.471

@<SCITEGIC>MOL_PROPERTY
Valence
SciTegic.value.DoubleValue
9.445

@<SCITEGIC>MOL_PROPERTY
Coulomb
SciTegic.value.DoubleValue
0.780

@<SCITEGIC>MOL_PROPERTY
VdW
SciTegic.value.DoubleValue
0.679

@<SCITEGIC>MOL_PROPERTY
VdW6
SciTegic.value.DoubleValue
-10.008

@<SCITEGIC>MOL_PROPERTY
VdW12
SciTegic.value.DoubleValue
10.687

@<SCITEGIC>MOL_PROPERTY
Bond
SciTegic.value.DoubleValue
0.201

@<SCITEGIC>MOL_PROPERTY
Angle
SciTegic.value.DoubleValue
3.198

@<SCITEGIC>MOL_PROPERTY
Pdih
SciTegic.value.DoubleValue
6.039

@<SCITEGIC>MOL_PROPERTY
Idih
SciTegic.value.DoubleValue
0.006

@<SCITEGIC>MOL_PROPERTY
Tether
SciTegic.value.DoubleValue
0.000

@<TRIPOS>MOLECULE
guest-8_confgen4.mol2 : confsearch ligand conformer 315
          25          24           1
SMALL
USER_CHARGES
 
@<TRIPOS>ATOM
       1    C1      21.806318   21.506839   22.472512 C.2        1 MOL1         0.6168
       2    O1      22.895895   21.077318   22.146971 O.co2      1 MOL1        -0.6703
       3    O2      20.924247   21.768976   21.678501 O.co2      1 MOL1        -0.6703
       4    C2      21.553230   21.796107   23.950910 C.3        1 MOL1        -0.1963
       5    H1      20.549197   22.222641   24.063932 H          1 MOL1         0.0750
       6    H2      22.261864   22.582014   24.236664 H          1 MOL1         0.0750
       7    C3      21.733030   20.581608   24.904727 C.3        1 MOL1        -0.1860
       8    H3      22.649192   20.033415   24.644484 H          1 MOL1         0.0752
       9    H4      21.891228   20.968668   25.920398 H          1 MOL1         0.0752
      10    C4      20.528178   19.609449   24.952925 C.3        1 MOL1        -0.1858
      11    H5      19.618305   20.161538   25.225259 H          1 MOL1         0.0752
      12    H6      20.704145   18.886772   25.761478 H          1 MOL1         0.0752
      13    C5      20.290839   18.834222   23.637129 C.3        1 MOL1        -0.1858
      14    H7      19.983746   19.529078   22.845373 H          1 MOL1         0.0752
      15    H8      21.229843   18.367348   23.309493 H          1 MOL1         0.0752
      16    C6      19.203391   17.750171   23.801020 C.3        1 MOL1        -0.1858
      17    H9      18.266634   18.218227   24.133347 H          1 MOL1         0.0752
      18    H10     19.504098   17.043020   24.586181 H          1 MOL1         0.0752
      19    C7      18.957521   16.983212   22.484702 C.3        1 MOL1        -0.1834
      20    H11     18.654723   17.687280   21.697169 H          1 MOL1         0.0752
      21    H12     19.892648   16.513205   22.149907 H          1 MOL1         0.0752
      22    C8      17.871021   15.901801   22.651242 C.3        1 MOL1        -0.2849
      23    H13     16.915484   16.348710   22.955537 H          1 MOL1         0.0764
      24    H14     17.709375   15.367041   21.706273 H          1 MOL1         0.0764
      25    H15     18.162859   15.165642   23.411684 H          1 MOL1         0.0764
@<TRIPOS>BOND
    1     1     2    1
    2     1     3    2
    3     1     4    1
    4     4     5    1
    5     4     6    1
    6     4     7    1
    7     7     8    1
    8     7     9    1
    9     7    10    1
   10    10    11    1
   11    10    12    1
   12    10    13    1
   13    13    14    1
   14    13    15    1
   15    13    16    1
   16    16    17    1
   17    16    18    1
   18    16    19    1
   19    19    20    1
   20    19    21    1
   21    19    22    1
   22    22    23    1
   23    22    24    1
   24    22    25    1
@<TRIPOS>SUBSTRUCTURE
       1 MOL1            1 RESIDUE      1      MOL     
@<SCITEGIC>MOL_PROPERTY
VConf Rank
SciTegic.value.IntegerValue
315

@<SCITEGIC>MOL_PROPERTY
Conf_Id
SciTegic.value.IntegerValue
9

@<SCITEGIC>MOL_PROPERTY
Delta U+W
SciTegic.value.DoubleValue
1.764

@<SCITEGIC>MOL_PROPERTY
U+W
SciTegic.value.DoubleValue
-49.865

@<SCITEGIC>MOL_PROPERTY
Grad RMS
SciTegic.value.DoubleValue
0.000000

@<SCITEGIC>MOL_PROPERTY
U
SciTegic.value.DoubleValue
10.902

@<SCITEGIC>MOL_PROPERTY
W
SciTegic.value.DoubleValue
-60.768

@<SCITEGIC>MOL_PROPERTY
W(PB)
SciTegic.value.DoubleValue
-63.223

@<SCITEGIC>MOL_PROPERTY
W(SA)
SciTegic.value.DoubleValue
2.456

@<SCITEGIC>MOL_PROPERTY
Valence
SciTegic.value.DoubleValue
9.445

@<SCITEGIC>MOL_PROPERTY
Coulomb
SciTegic.value.DoubleValue
0.778

@<SCITEGIC>MOL_PROPERTY
VdW
SciTegic.value.DoubleValue
0.679

@<SCITEGIC>MOL_PROPERTY
VdW6
SciTegic.value.DoubleValue
-10.007

@<SCITEGIC>MOL_PROPERTY
VdW12
SciTegic.value.DoubleValue
10.687

@<SCITEGIC>MOL_PROPERTY
Bond
SciTegic.value.DoubleValue
0.201

@<SCITEGIC>MOL_PROPERTY
Angle
SciTegic.value.DoubleValue
3.198

@<SCITEGIC>MOL_PROPERTY
Pdih
SciTegic.value.DoubleValue
6.040

@<SCITEGIC>MOL_PROPERTY
Idih
SciTegic.value.DoubleValue
0.006

@<SCITEGIC>MOL_PROPERTY
Tether
SciTegic.value.DoubleValue
0.000

@<TRIPOS>MOLECULE
guest-8_confgen4.mol2 : confsearch ligand conformer 316
          25          24           1
SMALL
USER_CHARGES
 
@<TRIPOS>ATOM
       1    C1      19.935164   19.059235   19.706106 C.2        1 MOL1         0.6168
       2    O1      20.848078   18.257711   19.678676 O.co2      1 MOL1        -0.6703
       3    O2      19.216663   19.294189   18.754581 O.co2      1 MOL1        -0.6703
       4    C2      19.662852   19.796189   21.012422 C.3        1 MOL1        -0.1963
       5    H1      19.286246   20.795632   20.764354 H          1 MOL1         0.0750
       6    H2      20.620046   19.934155   21.524486 H          1 MOL1         0.0750
       7    C3      18.644910   19.054143   21.918408 C.3        1 MOL1        -0.1860
       8    H3      17.705883   18.951315   21.357078 H          1 MOL1         0.0752
       9    H4      18.993265   18.031795   22.120565 H          1 MOL1         0.0752
      10    C4      18.348288   19.792618   23.248431 C.3        1 MOL1        -0.1858
      11    H5      17.291532   19.629767   23.500748 H          1 MOL1         0.0752
      12    H6      18.459250   20.877438   23.115421 H          1 MOL1         0.0752
      13    C5      19.193284   19.314211   24.455854 C.3        1 MOL1        -0.1858
      14    H7      18.842337   19.841922   25.353020 H          1 MOL1         0.0752
      15    H8      18.998902   18.247544   24.628658 H          1 MOL1         0.0752
      16    C6      20.714432   19.548156   24.299165 C.3        1 MOL1        -0.1858
      17    H9      20.887499   20.583278   23.975179 H          1 MOL1         0.0752
      18    H10     21.110794   18.896413   23.509623 H          1 MOL1         0.0752
      19    C7      21.508925   19.300048   25.602529 C.3        1 MOL1        -0.1834
      20    H11     22.557818   19.581212   25.435393 H          1 MOL1         0.0752
      21    H12     21.133899   19.959599   26.397249 H          1 MOL1         0.0752
      22    C8      21.456193   17.831960   26.078199 C.3        1 MOL1        -0.2849
      23    H13     21.803168   17.151171   25.289986 H          1 MOL1         0.0764
      24    H14     22.099635   17.689129   26.955942 H          1 MOL1         0.0764
      25    H15     20.437288   17.539778   26.361632 H          1 MOL1         0.0764
@<TRIPOS>BOND
    1     1     2    1
    2     1     3    2
    3     1     4    1
    4     4     5    1
    5     4     6    1
    6     4     7    1
    7     7     8    1
    8     7     9    1
    9     7    10    1
   10    10    11    1
   11    10    12    1
   12    10    13    1
   13    13    14    1
   14    13    15    1
   15    13    16    1
   16    16    17    1
   17    16    18    1
   18    16    19    1
   19    19    20    1
   20    19    21    1
   21    19    22    1
   22    22    23    1
   23    22    24    1
   24    22    25    1
@<TRIPOS>SUBSTRUCTURE
       1 MOL1            1 RESIDUE      1      MOL     
@<SCITEGIC>MOL_PROPERTY
VConf Rank
SciTegic.value.IntegerValue
316

@<SCITEGIC>MOL_PROPERTY
Conf_Id
SciTegic.value.IntegerValue
89

@<SCITEGIC>MOL_PROPERTY
Delta U+W
SciTegic.value.DoubleValue
2.903

@<SCITEGIC>MOL_PROPERTY
U+W
SciTegic.value.DoubleValue
-48.726

@<SCITEGIC>MOL_PROPERTY
Grad RMS
SciTegic.value.DoubleValue
0.000000

@<SCITEGIC>MOL_PROPERTY
U
SciTegic.value.DoubleValue
10.996

@<SCITEGIC>MOL_PROPERTY
W
SciTegic.value.DoubleValue
-59.723

@<SCITEGIC>MOL_PROPERTY
W(PB)
SciTegic.value.DoubleValue
-62.151

@<SCITEGIC>MOL_PROPERTY
W(SA)
SciTegic.value.DoubleValue
2.428

@<SCITEGIC>MOL_PROPERTY
Valence
SciTegic.value.DoubleValue
10.985

@<SCITEGIC>MOL_PROPERTY
Coulomb
SciTegic.value.DoubleValue
-0.995

@<SCITEGIC>MOL_PROPERTY
VdW
SciTegic.value.DoubleValue
1.006

@<SCITEGIC>MOL_PROPERTY
VdW6
SciTegic.value.DoubleValue
-10.062

@<SCITEGIC>MOL_PROPERTY
VdW12
SciTegic.value.DoubleValue
11.069

@<SCITEGIC>MOL_PROPERTY
Bond
SciTegic.value.DoubleValue
0.238

@<SCITEGIC>MOL_PROPERTY
Angle
SciTegic.value.DoubleValue
3.202

@<SCITEGIC>MOL_PROPERTY
Pdih
SciTegic.value.DoubleValue
7.544

@<SCITEGIC>MOL_PROPERTY
Idih
SciTegic.value.DoubleValue
0.001

@<SCITEGIC>MOL_PROPERTY
Tether
SciTegic.value.DoubleValue
0.000

@<TRIPOS>MOLECULE
guest-8_confgen4.mol2 : confsearch ligand conformer 317
          25          24           1
SMALL
USER_CHARGES
 
@<TRIPOS>ATOM
       1    C1      18.976037   16.283397   21.675521 C.2        1 MOL1         0.6168
       2    O1      19.876911   15.510361   21.936481 O.co2      1 MOL1        -0.6703
       3    O2      17.823556   16.111303   22.021615 O.co2      1 MOL1        -0.6703
       4    C2      19.299961   17.501244   20.812290 C.3        1 MOL1        -0.1963
       5    H1      18.740902   17.373103   19.878207 H          1 MOL1         0.0750
       6    H2      20.363762   17.477776   20.546682 H          1 MOL1         0.0750
       7    C3      18.930425   18.875900   21.437866 C.3        1 MOL1        -0.1860
       8    H3      18.841346   19.605266   20.621450 H          1 MOL1         0.0752
       9    H4      17.936384   18.821556   21.903165 H          1 MOL1         0.0752
      10    C4      19.962166   19.429773   22.452099 C.3        1 MOL1        -0.1858
      11    H5      19.676870   20.463125   22.685142 H          1 MOL1         0.0752
      12    H6      20.952733   19.481665   21.980255 H          1 MOL1         0.0752
      13    C5      20.053863   18.615744   23.765618 C.3        1 MOL1        -0.1858
      14    H7      19.054806   18.509154   24.209796 H          1 MOL1         0.0752
      15    H8      20.403919   17.601525   23.538335 H          1 MOL1         0.0752
      16    C6      21.023662   19.227149   24.805353 C.3        1 MOL1        -0.1858
      17    H9      22.014013   19.363457   24.349885 H          1 MOL1         0.0752
      18    H10     21.155094   18.504169   25.622010 H          1 MOL1         0.0752
      19    C7      20.532189   20.566371   25.400650 C.3        1 MOL1        -0.1834
      20    H11     20.471384   21.331776   24.616311 H          1 MOL1         0.0752
      21    H12     19.518767   20.441616   25.806359 H          1 MOL1         0.0752
      22    C8      21.471719   21.067474   26.516120 C.3        1 MOL1        -0.2849
      23    H13     22.487583   21.226695   26.131364 H          1 MOL1         0.0764
      24    H14     21.111504   22.019819   26.926405 H          1 MOL1         0.0764
      25    H15     21.526340   20.343173   27.339374 H          1 MOL1         0.0764
@<TRIPOS>BOND
    1     1     2    1
    2     1     3    2
    3     1     4    1
    4     4     5    1
    5     4     6    1
    6     4     7    1
    7     7     8    1
    8     7     9    1
    9     7    10    1
   10    10    11    1
   11    10    12    1
   12    10    13    1
   13    13    14    1
   14    13    15    1
   15    13    16    1
   16    16    17    1
   17    16    18    1
   18    16    19    1
   19    19    20    1
   20    19    21    1
   21    19    22    1
   22    22    23    1
   23    22    24    1
   24    22    25    1
@<TRIPOS>SUBSTRUCTURE
       1 MOL1            1 RESIDUE      1      MOL     
@<SCITEGIC>MOL_PROPERTY
VConf Rank
SciTegic.value.IntegerValue
317

@<SCITEGIC>MOL_PROPERTY
Conf_Id
SciTegic.value.IntegerValue
114

@<SCITEGIC>MOL_PROPERTY
Delta U+W
SciTegic.value.DoubleValue
2.758

@<SCITEGIC>MOL_PROPERTY
U+W
SciTegic.value.DoubleValue
-48.871

@<SCITEGIC>MOL_PROPERTY
Grad RMS
SciTegic.value.DoubleValue
0.000000

@<SCITEGIC>MOL_PROPERTY
U
SciTegic.value.DoubleValue
11.422

@<SCITEGIC>MOL_PROPERTY
W
SciTegic.value.DoubleValue
-60.293

@<SCITEGIC>MOL_PROPERTY
W(PB)
SciTegic.value.DoubleValue
-62.719

@<SCITEGIC>MOL_PROPERTY
W(SA)
SciTegic.value.DoubleValue
2.425

@<SCITEGIC>MOL_PROPERTY
Valence
SciTegic.value.DoubleValue
10.135

@<SCITEGIC>MOL_PROPERTY
Coulomb
SciTegic.value.DoubleValue
0.369

@<SCITEGIC>MOL_PROPERTY
VdW
SciTegic.value.DoubleValue
0.918

@<SCITEGIC>MOL_PROPERTY
VdW6
SciTegic.value.DoubleValue
-10.482

@<SCITEGIC>MOL_PROPERTY
VdW12
SciTegic.value.DoubleValue
11.400

@<SCITEGIC>MOL_PROPERTY
Bond
SciTegic.value.DoubleValue
0.245

@<SCITEGIC>MOL_PROPERTY
Angle
SciTegic.value.DoubleValue
3.539

@<SCITEGIC>MOL_PROPERTY
Pdih
SciTegic.value.DoubleValue
6.346

@<SCITEGIC>MOL_PROPERTY
Idih
SciTegic.value.DoubleValue
0.006

@<SCITEGIC>MOL_PROPERTY
Tether
SciTegic.value.DoubleValue
0.000

@<TRIPOS>MOLECULE
guest-8_confgen4.mol2 : confsearch ligand conformer 318
          25          24           1
SMALL
USER_CHARGES
 
@<TRIPOS>ATOM
       1    C1      23.195108   20.267433   25.468535 C.2        1 MOL1         0.6168
       2    O1      24.051029   20.575379   24.662537 O.co2      1 MOL1        -0.6703
       3    O2      22.699505   21.049748   26.255591 O.co2      1 MOL1        -0.6703
       4    C2      22.730384   18.814424   25.510318 C.3        1 MOL1        -0.1963
       5    H1      22.695816   18.510854   26.563232 H          1 MOL1         0.0750
       6    H2      23.490015   18.189930   25.024783 H          1 MOL1         0.0750
       7    C3      21.343812   18.578349   24.857123 C.3        1 MOL1        -0.1860
       8    H3      21.032446   17.542167   25.045876 H          1 MOL1         0.0752
       9    H4      20.605823   19.226560   25.347552 H          1 MOL1         0.0752
      10    C4      21.356626   18.838312   23.331505 C.3        1 MOL1        -0.1858
      11    H5      22.165028   18.249179   22.877354 H          1 MOL1         0.0752
      12    H6      21.594573   19.892650   23.133889 H          1 MOL1         0.0752
      13    C5      20.027929   18.469345   22.629286 C.3        1 MOL1        -0.1858
      14    H7      20.184330   18.547977   21.545985 H          1 MOL1         0.0752
      15    H8      19.783170   17.418134   22.833181 H          1 MOL1         0.0752
      16    C6      18.840260   19.372861   23.043584 C.3        1 MOL1        -0.1858
      17    H9      19.087027   20.424276   22.842804 H          1 MOL1         0.0752
      18    H10     18.679783   19.291848   24.126057 H          1 MOL1         0.0752
      19    C7      17.514445   19.008157   22.335316 C.3        1 MOL1        -0.1834
      20    H11     17.270422   17.953661   22.524467 H          1 MOL1         0.0752
      21    H12     16.703247   19.598914   22.782758 H          1 MOL1         0.0752
      22    C8      17.537566   19.272409   20.813953 C.3        1 MOL1        -0.2849
      23    H13     16.546957   19.089330   20.377973 H          1 MOL1         0.0764
      24    H14     17.813511   20.313178   20.600016 H          1 MOL1         0.0764
      25    H15     18.251000   18.614444   20.302583 H          1 MOL1         0.0764
@<TRIPOS>BOND
    1     1     2    1
    2     1     3    2
    3     1     4    1
    4     4     5    1
    5     4     6    1
    6     4     7    1
    7     7     8    1
    8     7     9    1
    9     7    10    1
   10    10    11    1
   11    10    12    1
   12    10    13    1
   13    13    14    1
   14    13    15    1
   15    13    16    1
   16    16    17    1
   17    16    18    1
   18    16    19    1
   19    19    20    1
   20    19    21    1
   21    19    22    1
   22    22    23    1
   23    22    24    1
   24    22    25    1
@<TRIPOS>SUBSTRUCTURE
       1 MOL1            1 RESIDUE      1      MOL     
@<SCITEGIC>MOL_PROPERTY
VConf Rank
SciTegic.value.IntegerValue
318

@<SCITEGIC>MOL_PROPERTY
Conf_Id
SciTegic.value.IntegerValue
87

@<SCITEGIC>MOL_PROPERTY
Delta U+W
SciTegic.value.DoubleValue
1.453

@<SCITEGIC>MOL_PROPERTY
U+W
SciTegic.value.DoubleValue
-50.176

@<SCITEGIC>MOL_PROPERTY
Grad RMS
SciTegic.value.DoubleValue
0.000000

@<SCITEGIC>MOL_PROPERTY
U
SciTegic.value.DoubleValue
9.763

@<SCITEGIC>MOL_PROPERTY
W
SciTegic.value.DoubleValue
-59.940

@<SCITEGIC>MOL_PROPERTY
W(PB)
SciTegic.value.DoubleValue
-62.392

@<SCITEGIC>MOL_PROPERTY
W(SA)
SciTegic.value.DoubleValue
2.452

@<SCITEGIC>MOL_PROPERTY
Valence
SciTegic.value.DoubleValue
8.883

@<SCITEGIC>MOL_PROPERTY
Coulomb
SciTegic.value.DoubleValue
-0.122

@<SCITEGIC>MOL_PROPERTY
VdW
SciTegic.value.DoubleValue
1.003

@<SCITEGIC>MOL_PROPERTY
VdW6
SciTegic.value.DoubleValue
-9.782

@<SCITEGIC>MOL_PROPERTY
VdW12
SciTegic.value.DoubleValue
10.785

@<SCITEGIC>MOL_PROPERTY
Bond
SciTegic.value.DoubleValue
0.212

@<SCITEGIC>MOL_PROPERTY
Angle
SciTegic.value.DoubleValue
2.940

@<SCITEGIC>MOL_PROPERTY
Pdih
SciTegic.value.DoubleValue
5.730

@<SCITEGIC>MOL_PROPERTY
Idih
SciTegic.value.DoubleValue
0.001

@<SCITEGIC>MOL_PROPERTY
Tether
SciTegic.value.DoubleValue
0.000

@<TRIPOS>MOLECULE
guest-8_confgen4.mol2 : confsearch ligand conformer 319
          25          24           1
SMALL
USER_CHARGES
 
@<TRIPOS>ATOM
       1    C1      19.796313   15.232142   24.143657 C.2        1 MOL1         0.6168
       2    O1      20.898806   14.832029   23.825689 O.co2      1 MOL1        -0.6703
       3    O2      19.137819   14.747893   25.042897 O.co2      1 MOL1        -0.6703
       4    C2      19.214625   16.419283   23.384381 C.3        1 MOL1        -0.1963
       5    H1      18.125194   16.299660   23.348138 H          1 MOL1         0.0750
       6    H2      19.580566   16.375592   22.351543 H          1 MOL1         0.0750
       7    C3      19.582779   17.780768   24.023730 C.3        1 MOL1        -0.1860
       8    H3      19.217698   17.806681   25.059677 H          1 MOL1         0.0752
       9    H4      20.676495   17.868525   24.066962 H          1 MOL1         0.0752
      10    C4      18.986775   18.966778   23.230770 C.3        1 MOL1        -0.1858
      11    H5      17.901362   18.825436   23.138443 H          1 MOL1         0.0752
      12    H6      19.382121   18.965202   22.206512 H          1 MOL1         0.0752
      13    C5      19.244740   20.343264   23.893401 C.3        1 MOL1        -0.1858
      14    H7      18.741369   21.120529   23.303608 H          1 MOL1         0.0752
      15    H8      18.760015   20.358165   24.878941 H          1 MOL1         0.0752
      16    C6      20.738544   20.723786   24.071093 C.3        1 MOL1        -0.1858
      17    H9      21.204313   20.040175   24.792897 H          1 MOL1         0.0752
      18    H10     20.793337   21.720499   24.529407 H          1 MOL1         0.0752
      19    C7      21.577571   20.727025   22.769497 C.3        1 MOL1        -0.1834
      20    H11     22.615285   20.984164   23.022350 H          1 MOL1         0.0752
      21    H12     21.611192   19.717317   22.339157 H          1 MOL1         0.0752
      22    C8      21.060845   21.727392   21.712944 C.3        1 MOL1        -0.2849
      23    H13     21.003687   22.742094   22.127731 H          1 MOL1         0.0764
      24    H14     21.733908   21.753009   20.846308 H          1 MOL1         0.0764
      25    H15     20.063650   21.445963   21.351911 H          1 MOL1         0.0764
@<TRIPOS>BOND
    1     1     2    1
    2     1     3    2
    3     1     4    1
    4     4     5    1
    5     4     6    1
    6     4     7    1
    7     7     8    1
    8     7     9    1
    9     7    10    1
   10    10    11    1
   11    10    12    1
   12    10    13    1
   13    13    14    1
   14    13    15    1
   15    13    16    1
   16    16    17    1
   17    16    18    1
   18    16    19    1
   19    19    20    1
   20    19    21    1
   21    19    22    1
   22    22    23    1
   23    22    24    1
   24    22    25    1
@<TRIPOS>SUBSTRUCTURE
       1 MOL1            1 RESIDUE      1      MOL     
@<SCITEGIC>MOL_PROPERTY
VConf Rank
SciTegic.value.IntegerValue
319

@<SCITEGIC>MOL_PROPERTY
Conf_Id
SciTegic.value.IntegerValue
29

@<SCITEGIC>MOL_PROPERTY
Delta U+W
SciTegic.value.DoubleValue
0.850

@<SCITEGIC>MOL_PROPERTY
U+W
SciTegic.value.DoubleValue
-50.780

@<SCITEGIC>MOL_PROPERTY
Grad RMS
SciTegic.value.DoubleValue
0.000000

@<SCITEGIC>MOL_PROPERTY
U
SciTegic.value.DoubleValue
8.646

@<SCITEGIC>MOL_PROPERTY
W
SciTegic.value.DoubleValue
-59.426

@<SCITEGIC>MOL_PROPERTY
W(PB)
SciTegic.value.DoubleValue
-61.868

@<SCITEGIC>MOL_PROPERTY
W(SA)
SciTegic.value.DoubleValue
2.442

@<SCITEGIC>MOL_PROPERTY
Valence
SciTegic.value.DoubleValue
8.924

@<SCITEGIC>MOL_PROPERTY
Coulomb
SciTegic.value.DoubleValue
-1.171

@<SCITEGIC>MOL_PROPERTY
VdW
SciTegic.value.DoubleValue
0.894

@<SCITEGIC>MOL_PROPERTY
VdW6
SciTegic.value.DoubleValue
-10.223

@<SCITEGIC>MOL_PROPERTY
VdW12
SciTegic.value.DoubleValue
11.117

@<SCITEGIC>MOL_PROPERTY
Bond
SciTegic.value.DoubleValue
0.231

@<SCITEGIC>MOL_PROPERTY
Angle
SciTegic.value.DoubleValue
3.232

@<SCITEGIC>MOL_PROPERTY
Pdih
SciTegic.value.DoubleValue
5.461

@<SCITEGIC>MOL_PROPERTY
Idih
SciTegic.value.DoubleValue
0.001

@<SCITEGIC>MOL_PROPERTY
Tether
SciTegic.value.DoubleValue
0.000

@<TRIPOS>MOLECULE
guest-8_confgen4.mol2 : confsearch ligand conformer 320
          25          24           1
SMALL
USER_CHARGES
 
@<TRIPOS>ATOM
       1    C1      21.209324   18.213747   19.692301 C.2        1 MOL1         0.6168
       2    O1      20.353216   18.726210   18.998654 O.co2      1 MOL1        -0.6703
       3    O2      21.791945   17.189331   19.395883 O.co2      1 MOL1        -0.6703
       4    C2      21.558494   18.882815   21.016914 C.3        1 MOL1        -0.1963
       5    H1      21.428478   19.965043   20.896701 H          1 MOL1         0.0750
       6    H2      22.621345   18.704000   21.219042 H          1 MOL1         0.0750
       7    C3      20.695531   18.369447   22.195771 C.3        1 MOL1        -0.1860
       8    H3      19.636521   18.541116   21.961652 H          1 MOL1         0.0752
       9    H4      20.829385   17.283804   22.298751 H          1 MOL1         0.0752
      10    C4      21.064843   19.068950   23.524281 C.3        1 MOL1        -0.1858
      11    H5      20.893331   20.149738   23.435462 H          1 MOL1         0.0752
      12    H6      22.141086   18.945349   23.706062 H          1 MOL1         0.0752
      13    C5      20.296270   18.512022   24.748808 C.3        1 MOL1        -0.1858
      14    H7      20.555338   17.452393   24.877426 H          1 MOL1         0.0752
      15    H8      20.657494   19.017569   25.653971 H          1 MOL1         0.0752
      16    C6      18.751440   18.638110   24.675138 C.3        1 MOL1        -0.1858
      17    H9      18.322826   18.230610   25.600732 H          1 MOL1         0.0752
      18    H10     18.372770   17.998632   23.867090 H          1 MOL1         0.0752
      19    C7      18.216263   20.076630   24.469277 C.3        1 MOL1        -0.1834
      20    H11     18.560322   20.473330   23.504866 H          1 MOL1         0.0752
      21    H12     17.120106   20.037074   24.407811 H          1 MOL1         0.0752
      22    C8      18.615933   21.044558   25.603921 C.3        1 MOL1        -0.2849
      23    H13     19.702112   21.197186   25.633312 H          1 MOL1         0.0764
      24    H14     18.145631   22.025213   25.456066 H          1 MOL1         0.0764
      25    H15     18.295418   20.658774   26.580330 H          1 MOL1         0.0764
@<TRIPOS>BOND
    1     1     2    1
    2     1     3    2
    3     1     4    1
    4     4     5    1
    5     4     6    1
    6     4     7    1
    7     7     8    1
    8     7     9    1
    9     7    10    1
   10    10    11    1
   11    10    12    1
   12    10    13    1
   13    13    14    1
   14    13    15    1
   15    13    16    1
   16    16    17    1
   17    16    18    1
   18    16    19    1
   19    19    20    1
   20    19    21    1
   21    19    22    1
   22    22    23    1
   23    22    24    1
   24    22    25    1
@<TRIPOS>SUBSTRUCTURE
       1 MOL1            1 RESIDUE      1      MOL     
@<SCITEGIC>MOL_PROPERTY
VConf Rank
SciTegic.value.IntegerValue
320

@<SCITEGIC>MOL_PROPERTY
Conf_Id
SciTegic.value.IntegerValue
30

@<SCITEGIC>MOL_PROPERTY
Delta U+W
SciTegic.value.DoubleValue
0.843

@<SCITEGIC>MOL_PROPERTY
U+W
SciTegic.value.DoubleValue
-50.787

@<SCITEGIC>MOL_PROPERTY
Grad RMS
SciTegic.value.DoubleValue
0.000000

@<SCITEGIC>MOL_PROPERTY
U
SciTegic.value.DoubleValue
8.647

@<SCITEGIC>MOL_PROPERTY
W
SciTegic.value.DoubleValue
-59.434

@<SCITEGIC>MOL_PROPERTY
W(PB)
SciTegic.value.DoubleValue
-61.861

@<SCITEGIC>MOL_PROPERTY
W(SA)
SciTegic.value.DoubleValue
2.428

@<SCITEGIC>MOL_PROPERTY
Valence
SciTegic.value.DoubleValue
8.924

@<SCITEGIC>MOL_PROPERTY
Coulomb
SciTegic.value.DoubleValue
-1.170

@<SCITEGIC>MOL_PROPERTY
VdW
SciTegic.value.DoubleValue
0.894

@<SCITEGIC>MOL_PROPERTY
VdW6
SciTegic.value.DoubleValue
-10.224

@<SCITEGIC>MOL_PROPERTY
VdW12
SciTegic.value.DoubleValue
11.118

@<SCITEGIC>MOL_PROPERTY
Bond
SciTegic.value.DoubleValue
0.231

@<SCITEGIC>MOL_PROPERTY
Angle
SciTegic.value.DoubleValue
3.232

@<SCITEGIC>MOL_PROPERTY
Pdih
SciTegic.value.DoubleValue
5.460

@<SCITEGIC>MOL_PROPERTY
Idih
SciTegic.value.DoubleValue
0.000

@<SCITEGIC>MOL_PROPERTY
Tether
SciTegic.value.DoubleValue
0.000

@<TRIPOS>MOLECULE
guest-8_confgen4.mol2 : confsearch ligand conformer 321
          25          24           1
SMALL
USER_CHARGES
 
@<TRIPOS>ATOM
       1    C1      23.790901   16.445359   24.049471 C.2        1 MOL1         0.6168
       2    O1      23.918828   16.096558   22.891639 O.co2      1 MOL1        -0.6703
       3    O2      24.520294   16.062518   24.942520 O.co2      1 MOL1        -0.6703
       4    C2      22.667771   17.410902   24.431183 C.3        1 MOL1        -0.1963
       5    H1      23.133436   18.283113   24.904797 H          1 MOL1         0.0750
       6    H2      22.058270   16.916969   25.196980 H          1 MOL1         0.0750
       7    C3      21.763238   17.871738   23.257358 C.3        1 MOL1        -0.1860
       8    H3      22.381154   18.359953   22.490983 H          1 MOL1         0.0752
       9    H4      21.304964   16.992585   22.783457 H          1 MOL1         0.0752
      10    C4      20.658811   18.842064   23.729963 C.3        1 MOL1        -0.1858
      11    H5      21.119272   19.720107   24.203410 H          1 MOL1         0.0752
      12    H6      20.042398   18.351878   24.496050 H          1 MOL1         0.0752
      13    C5      19.760254   19.299204   22.560730 C.3        1 MOL1        -0.1858
      14    H7      20.376399   19.789462   21.794495 H          1 MOL1         0.0752
      15    H8      19.299615   18.421365   22.087112 H          1 MOL1         0.0752
      16    C6      18.655760   20.269440   23.032587 C.3        1 MOL1        -0.1858
      17    H9      19.116184   21.147390   23.506198 H          1 MOL1         0.0752
      18    H10     18.039419   19.779344   23.798762 H          1 MOL1         0.0752
      19    C7      17.757563   20.726478   21.863947 C.3        1 MOL1        -0.1834
      20    H11     18.370466   21.218950   21.096282 H          1 MOL1         0.0752
      21    H12     17.293703   19.850921   21.388846 H          1 MOL1         0.0752
      22    C8      16.655998   21.695144   22.339178 C.3        1 MOL1        -0.2849
      23    H13     17.092724   22.595585   22.790702 H          1 MOL1         0.0764
      24    H14     16.027284   22.009707   21.496054 H          1 MOL1         0.0764
      25    H15     16.007845   21.217259   23.085449 H          1 MOL1         0.0764
@<TRIPOS>BOND
    1     1     2    1
    2     1     3    2
    3     1     4    1
    4     4     5    1
    5     4     6    1
    6     4     7    1
    7     7     8    1
    8     7     9    1
    9     7    10    1
   10    10    11    1
   11    10    12    1
   12    10    13    1
   13    13    14    1
   14    13    15    1
   15    13    16    1
   16    16    17    1
   17    16    18    1
   18    16    19    1
   19    19    20    1
   20    19    21    1
   21    19    22    1
   22    22    23    1
   23    22    24    1
   24    22    25    1
@<TRIPOS>SUBSTRUCTURE
       1 MOL1            1 RESIDUE      1      MOL     
@<SCITEGIC>MOL_PROPERTY
VConf Rank
SciTegic.value.IntegerValue
321

@<SCITEGIC>MOL_PROPERTY
Conf_Id
SciTegic.value.IntegerValue
0

@<SCITEGIC>MOL_PROPERTY
Delta U+W
SciTegic.value.DoubleValue
0.000

@<SCITEGIC>MOL_PROPERTY
U+W
SciTegic.value.DoubleValue
-51.629

@<SCITEGIC>MOL_PROPERTY
Grad RMS
SciTegic.value.DoubleValue
0.000000

@<SCITEGIC>MOL_PROPERTY
U
SciTegic.value.DoubleValue
6.586

@<SCITEGIC>MOL_PROPERTY
W
SciTegic.value.DoubleValue
-58.216

@<SCITEGIC>MOL_PROPERTY
W(PB)
SciTegic.value.DoubleValue
-60.757

@<SCITEGIC>MOL_PROPERTY
W(SA)
SciTegic.value.DoubleValue
2.541

@<SCITEGIC>MOL_PROPERTY
Valence
SciTegic.value.DoubleValue
8.027

@<SCITEGIC>MOL_PROPERTY
Coulomb
SciTegic.value.DoubleValue
-2.892

@<SCITEGIC>MOL_PROPERTY
VdW
SciTegic.value.DoubleValue
1.451

@<SCITEGIC>MOL_PROPERTY
VdW6
SciTegic.value.DoubleValue
-7.931

@<SCITEGIC>MOL_PROPERTY
VdW12
SciTegic.value.DoubleValue
9.383

@<SCITEGIC>MOL_PROPERTY
Bond
SciTegic.value.DoubleValue
0.149

@<SCITEGIC>MOL_PROPERTY
Angle
SciTegic.value.DoubleValue
2.726

@<SCITEGIC>MOL_PROPERTY
Pdih
SciTegic.value.DoubleValue
5.152

@<SCITEGIC>MOL_PROPERTY
Idih
SciTegic.value.DoubleValue
0.000

@<SCITEGIC>MOL_PROPERTY
Tether
SciTegic.value.DoubleValue
0.000

@<TRIPOS>MOLECULE
guest-8_confgen4.mol2 : confsearch ligand conformer 322
          25          24           1
SMALL
USER_CHARGES
 
@<TRIPOS>ATOM
       1    C1      17.187319   22.773137   23.457499 C.2        1 MOL1         0.6168
       2    O1      17.732043   23.846583   23.623656 O.co2      1 MOL1        -0.6703
       3    O2      16.147232   22.633400   22.844869 O.co2      1 MOL1        -0.6703
       4    C2      17.858096   21.529513   24.029807 C.3        1 MOL1        -0.1963
       5    H1      17.072739   20.816947   24.309217 H          1 MOL1         0.0750
       6    H2      18.378296   21.816726   24.951494 H          1 MOL1         0.0750
       7    C3      18.849605   20.871238   23.039046 C.3        1 MOL1        -0.1860
       8    H3      18.316049   20.601774   22.116929 H          1 MOL1         0.0752
       9    H4      19.621482   21.601592   22.759076 H          1 MOL1         0.0752
      10    C4      19.515414   19.615076   23.641355 C.3        1 MOL1        -0.1858
      11    H5      18.741133   18.887492   23.921162 H          1 MOL1         0.0752
      12    H6      20.046744   19.887572   24.563643 H          1 MOL1         0.0752
      13    C5      20.503404   18.961169   22.651532 C.3        1 MOL1        -0.1858
      14    H7      19.972291   18.688523   21.729205 H          1 MOL1         0.0752
      15    H8      21.277766   19.688571   22.371615 H          1 MOL1         0.0752
      16    C6      21.169647   17.704975   23.253178 C.3        1 MOL1        -0.1858
      17    H9      20.395539   16.977315   23.533111 H          1 MOL1         0.0752
      18    H10     21.700866   17.977302   24.175533 H          1 MOL1         0.0752
      19    C7      22.157299   17.051264   22.263952 C.3        1 MOL1        -0.1834
      20    H11     21.629012   16.775743   21.340649 H          1 MOL1         0.0752
      21    H12     22.934340   17.775705   21.983091 H          1 MOL1         0.0752
      22    C8      22.820431   15.797276   22.868411 C.3        1 MOL1        -0.2849
      23    H13     23.518977   15.345623   22.152080 H          1 MOL1         0.0764
      24    H14     23.382727   16.049568   23.777019 H          1 MOL1         0.0764
      25    H15     22.067573   15.042088   23.129739 H          1 MOL1         0.0764
@<TRIPOS>BOND
    1     1     2    1
    2     1     3    2
    3     1     4    1
    4     4     5    1
    5     4     6    1
    6     4     7    1
    7     7     8    1
    8     7     9    1
    9     7    10    1
   10    10    11    1
   11    10    12    1
   12    10    13    1
   13    13    14    1
   14    13    15    1
   15    13    16    1
   16    16    17    1
   17    16    18    1
   18    16    19    1
   19    19    20    1
   20    19    21    1
   21    19    22    1
   22    22    23    1
   23    22    24    1
   24    22    25    1
@<TRIPOS>SUBSTRUCTURE
       1 MOL1            1 RESIDUE      1      MOL     
@<SCITEGIC>MOL_PROPERTY
VConf Rank
SciTegic.value.IntegerValue
322

@<SCITEGIC>MOL_PROPERTY
Conf_Id
SciTegic.value.IntegerValue
27

@<SCITEGIC>MOL_PROPERTY
Delta U+W
SciTegic.value.DoubleValue
-1.297

@<SCITEGIC>MOL_PROPERTY
U+W
SciTegic.value.DoubleValue
-52.926

@<SCITEGIC>MOL_PROPERTY
Grad RMS
SciTegic.value.DoubleValue
0.000000

@<SCITEGIC>MOL_PROPERTY
U
SciTegic.value.DoubleValue
5.617

@<SCITEGIC>MOL_PROPERTY
W
SciTegic.value.DoubleValue
-58.543

@<SCITEGIC>MOL_PROPERTY
W(PB)
SciTegic.value.DoubleValue
-61.065

@<SCITEGIC>MOL_PROPERTY
W(SA)
SciTegic.value.DoubleValue
2.522

@<SCITEGIC>MOL_PROPERTY
Valence
SciTegic.value.DoubleValue
7.531

@<SCITEGIC>MOL_PROPERTY
Coulomb
SciTegic.value.DoubleValue
-2.818

@<SCITEGIC>MOL_PROPERTY
VdW
SciTegic.value.DoubleValue
0.904

@<SCITEGIC>MOL_PROPERTY
VdW6
SciTegic.value.DoubleValue
-7.640

@<SCITEGIC>MOL_PROPERTY
VdW12
SciTegic.value.DoubleValue
8.544

@<SCITEGIC>MOL_PROPERTY
Bond
SciTegic.value.DoubleValue
0.115

@<SCITEGIC>MOL_PROPERTY
Angle
SciTegic.value.DoubleValue
2.271

@<SCITEGIC>MOL_PROPERTY
Pdih
SciTegic.value.DoubleValue
5.144

@<SCITEGIC>MOL_PROPERTY
Idih
SciTegic.value.DoubleValue
0.001

@<SCITEGIC>MOL_PROPERTY
Tether
SciTegic.value.DoubleValue
0.000

@<TRIPOS>MOLECULE
guest-8_confgen4.mol2 : confsearch ligand conformer 323
          25          24           1
SMALL
USER_CHARGES
 
@<TRIPOS>ATOM
       1    C1      18.923352   22.094382   20.993187 C.2        1 MOL1         0.6168
       2    O1      19.006404   21.854546   19.804634 O.co2      1 MOL1        -0.6703
       3    O2      17.867761   22.228558   21.580287 O.co2      1 MOL1        -0.6703
       4    C2      20.217379   22.251984   21.786673 C.3        1 MOL1        -0.1963
       5    H1      19.994628   22.789191   22.716532 H          1 MOL1         0.0750
       6    H2      20.884970   22.894721   21.200844 H          1 MOL1         0.0750
       7    C3      20.931747   20.911707   22.100167 C.3        1 MOL1        -0.1860
       8    H3      21.123066   20.373051   21.161594 H          1 MOL1         0.0752
       9    H4      21.912003   21.126299   22.546929 H          1 MOL1         0.0752
      10    C4      20.118868   20.015697   23.061501 C.3        1 MOL1        -0.1858
      11    H5      19.143019   19.782029   22.613683 H          1 MOL1         0.0752
      12    H6      19.918674   20.563372   23.992628 H          1 MOL1         0.0752
      13    C5      20.862515   18.701904   23.384872 C.3        1 MOL1        -0.1858
      14    H7      21.062236   18.154950   22.453185 H          1 MOL1         0.0752
      15    H8      21.837426   18.933072   23.835591 H          1 MOL1         0.0752
      16    C6      20.050486   17.805719   24.344728 C.3        1 MOL1        -0.1858
      17    H9      19.075470   17.574514   23.894154 H          1 MOL1         0.0752
      18    H10     19.850344   18.352617   25.276354 H          1 MOL1         0.0752
      19    C7      20.793152   16.492168   24.667839 C.3        1 MOL1        -0.1834
      20    H11     20.993404   15.941524   23.738230 H          1 MOL1         0.0752
      21    H12     21.768253   16.719609   25.120529 H          1 MOL1         0.0752
      22    C8      19.978880   15.600123   25.626391 C.3        1 MOL1        -0.2849
      23    H13     19.010298   15.330992   25.185014 H          1 MOL1         0.0764
      24    H14     20.521385   14.671201   25.845191 H          1 MOL1         0.0764
      25    H15     19.790924   16.114944   26.577720 H          1 MOL1         0.0764
@<TRIPOS>BOND
    1     1     2    1
    2     1     3    2
    3     1     4    1
    4     4     5    1
    5     4     6    1
    6     4     7    1
    7     7     8    1
    8     7     9    1
    9     7    10    1
   10    10    11    1
   11    10    12    1
   12    10    13    1
   13    13    14    1
   14    13    15    1
   15    13    16    1
   16    16    17    1
   17    16    18    1
   18    16    19    1
   19    19    20    1
   20    19    21    1
   21    19    22    1
   22    22    23    1
   23    22    24    1
   24    22    25    1
@<TRIPOS>SUBSTRUCTURE
       1 MOL1            1 RESIDUE      1      MOL     
@<SCITEGIC>MOL_PROPERTY
VConf Rank
SciTegic.value.IntegerValue
323

@<SCITEGIC>MOL_PROPERTY
Conf_Id
SciTegic.value.IntegerValue
37

@<SCITEGIC>MOL_PROPERTY
Delta U+W
SciTegic.value.DoubleValue
-0.230

@<SCITEGIC>MOL_PROPERTY
U+W
SciTegic.value.DoubleValue
-51.860

@<SCITEGIC>MOL_PROPERTY
Grad RMS
SciTegic.value.DoubleValue
0.000000

@<SCITEGIC>MOL_PROPERTY
U
SciTegic.value.DoubleValue
7.816

@<SCITEGIC>MOL_PROPERTY
W
SciTegic.value.DoubleValue
-59.675

@<SCITEGIC>MOL_PROPERTY
W(PB)
SciTegic.value.DoubleValue
-62.180

@<SCITEGIC>MOL_PROPERTY
W(SA)
SciTegic.value.DoubleValue
2.505

@<SCITEGIC>MOL_PROPERTY
Valence
SciTegic.value.DoubleValue
7.785

@<SCITEGIC>MOL_PROPERTY
Coulomb
SciTegic.value.DoubleValue
-0.713

@<SCITEGIC>MOL_PROPERTY
VdW
SciTegic.value.DoubleValue
0.744

@<SCITEGIC>MOL_PROPERTY
VdW6
SciTegic.value.DoubleValue
-8.514

@<SCITEGIC>MOL_PROPERTY
VdW12
SciTegic.value.DoubleValue
9.259

@<SCITEGIC>MOL_PROPERTY
Bond
SciTegic.value.DoubleValue
0.136

@<SCITEGIC>MOL_PROPERTY
Angle
SciTegic.value.DoubleValue
2.433

@<SCITEGIC>MOL_PROPERTY
Pdih
SciTegic.value.DoubleValue
5.216

@<SCITEGIC>MOL_PROPERTY
Idih
SciTegic.value.DoubleValue
0.000

@<SCITEGIC>MOL_PROPERTY
Tether
SciTegic.value.DoubleValue
0.000

@<TRIPOS>MOLECULE
guest-8_confgen4.mol2 : confsearch ligand conformer 324
          25          24           1
SMALL
USER_CHARGES
 
@<TRIPOS>ATOM
       1    C1      18.476664   17.887005   26.775224 C.2        1 MOL1         0.6168
       2    O1      18.482398   16.673207   26.836341 O.co2      1 MOL1        -0.6703
       3    O2      17.461529   18.553333   26.725507 O.co2      1 MOL1        -0.6703
       4    C2      19.818981   18.613054   26.777567 C.3        1 MOL1        -0.1963
       5    H1      20.433446   18.163579   27.566483 H          1 MOL1         0.0750
       6    H2      19.650942   19.658631   27.062836 H          1 MOL1         0.0750
       7    C3      20.576702   18.541467   25.426390 C.3        1 MOL1        -0.1860
       8    H3      21.581330   18.965597   25.558241 H          1 MOL1         0.0752
       9    H4      20.712727   17.489055   25.140733 H          1 MOL1         0.0752
      10    C4      19.847564   19.300787   24.295214 C.3        1 MOL1        -0.1858
      11    H5      19.702152   20.348805   24.591080 H          1 MOL1         0.0752
      12    H6      18.847540   18.870761   24.145373 H          1 MOL1         0.0752
      13    C5      20.634607   19.243288   22.968230 C.3        1 MOL1        -0.1858
      14    H7      21.633977   19.675464   23.114922 H          1 MOL1         0.0752
      15    H8      20.779405   18.194935   22.673140 H          1 MOL1         0.0752
      16    C6      19.906302   20.001203   21.837305 C.3        1 MOL1        -0.1858
      17    H9      19.761141   21.049525   22.132315 H          1 MOL1         0.0752
      18    H10     18.906813   19.569211   21.690569 H          1 MOL1         0.0752
      19    C7      20.692303   19.943490   20.510566 C.3        1 MOL1        -0.1834
      20    H11     21.692127   20.376498   20.653159 H          1 MOL1         0.0752
      21    H12     20.837683   18.896190   20.211384 H          1 MOL1         0.0752
      22    C8      19.961672   20.701436   19.383934 C.3        1 MOL1        -0.2849
      23    H13     19.830746   21.760156   19.643483 H          1 MOL1         0.0764
      24    H14     20.534078   20.650107   18.448627 H          1 MOL1         0.0764
      25    H15     18.969827   20.268730   19.198444 H          1 MOL1         0.0764
@<TRIPOS>BOND
    1     1     2    1
    2     1     3    2
    3     1     4    1
    4     4     5    1
    5     4     6    1
    6     4     7    1
    7     7     8    1
    8     7     9    1
    9     7    10    1
   10    10    11    1
   11    10    12    1
   12    10    13    1
   13    13    14    1
   14    13    15    1
   15    13    16    1
   16    16    17    1
   17    16    18    1
   18    16    19    1
   19    19    20    1
   20    19    21    1
   21    19    22    1
   22    22    23    1
   23    22    24    1
   24    22    25    1
@<TRIPOS>SUBSTRUCTURE
       1 MOL1            1 RESIDUE      1      MOL     
@<SCITEGIC>MOL_PROPERTY
VConf Rank
SciTegic.value.IntegerValue
324

@<SCITEGIC>MOL_PROPERTY
Conf_Id
SciTegic.value.IntegerValue
54

@<SCITEGIC>MOL_PROPERTY
Delta U+W
SciTegic.value.DoubleValue
-0.224

@<SCITEGIC>MOL_PROPERTY
U+W
SciTegic.value.DoubleValue
-51.854

@<SCITEGIC>MOL_PROPERTY
Grad RMS
SciTegic.value.DoubleValue
0.000000

@<SCITEGIC>MOL_PROPERTY
U
SciTegic.value.DoubleValue
7.816

@<SCITEGIC>MOL_PROPERTY
W
SciTegic.value.DoubleValue
-59.670

@<SCITEGIC>MOL_PROPERTY
W(PB)
SciTegic.value.DoubleValue
-62.157

@<SCITEGIC>MOL_PROPERTY
W(SA)
SciTegic.value.DoubleValue
2.487

@<SCITEGIC>MOL_PROPERTY
Valence
SciTegic.value.DoubleValue
7.785

@<SCITEGIC>MOL_PROPERTY
Coulomb
SciTegic.value.DoubleValue
-0.713

@<SCITEGIC>MOL_PROPERTY
VdW
SciTegic.value.DoubleValue
0.744

@<SCITEGIC>MOL_PROPERTY
VdW6
SciTegic.value.DoubleValue
-8.515

@<SCITEGIC>MOL_PROPERTY
VdW12
SciTegic.value.DoubleValue
9.259

@<SCITEGIC>MOL_PROPERTY
Bond
SciTegic.value.DoubleValue
0.136

@<SCITEGIC>MOL_PROPERTY
Angle
SciTegic.value.DoubleValue
2.433

@<SCITEGIC>MOL_PROPERTY
Pdih
SciTegic.value.DoubleValue
5.215

@<SCITEGIC>MOL_PROPERTY
Idih
SciTegic.value.DoubleValue
0.000

@<SCITEGIC>MOL_PROPERTY
Tether
SciTegic.value.DoubleValue
0.000

@<TRIPOS>MOLECULE
guest-8_confgen4.mol2 : confsearch ligand conformer 325
          25          24           1
SMALL
USER_CHARGES
 
@<TRIPOS>ATOM
       1    C1      22.312557   17.371030   26.255401 C.2        1 MOL1         0.6168
       2    O1      21.593952   16.495015   26.695008 O.co2      1 MOL1        -0.6703
       3    O2      23.466360   17.189133   25.919600 O.co2      1 MOL1        -0.6703
       4    C2      21.742589   18.781638   26.134964 C.3        1 MOL1        -0.1963
       5    H1      22.488143   19.471605   26.547352 H          1 MOL1         0.0750
       6    H2      20.853739   18.856274   26.773091 H          1 MOL1         0.0750
       7    C3      21.396012   19.201849   24.682734 C.3        1 MOL1        -0.1860
       8    H3      21.146555   20.270293   24.681451 H          1 MOL1         0.0752
       9    H4      22.284736   19.082326   24.047689 H          1 MOL1         0.0752
      10    C4      20.217447   18.388790   24.094625 C.3        1 MOL1        -0.1858
      11    H5      19.317265   18.545319   24.704502 H          1 MOL1         0.0752
      12    H6      20.452176   17.317547   24.160342 H          1 MOL1         0.0752
      13    C5      19.907863   18.726738   22.616483 C.3        1 MOL1        -0.1858
      14    H7      20.813315   18.588200   22.010233 H          1 MOL1         0.0752
      15    H8      19.173751   17.998147   22.249871 H          1 MOL1         0.0752
      16    C6      19.354984   20.158981   22.411946 C.3        1 MOL1        -0.1858
      17    H9      20.090428   20.889769   22.771035 H          1 MOL1         0.0752
      18    H10     18.452452   20.298570   23.022329 H          1 MOL1         0.0752
      19    C7      19.036351   20.489240   20.934824 C.3        1 MOL1        -0.1834
      20    H11     18.784673   21.556152   20.859971 H          1 MOL1         0.0752
      21    H12     19.933719   20.338725   20.318889 H          1 MOL1         0.0752
      22    C8      17.865207   19.663412   20.359179 C.3        1 MOL1        -0.2849
      23    H13     18.116627   18.597319   20.298850 H          1 MOL1         0.0764
      24    H14     16.965968   19.771297   20.979534 H          1 MOL1         0.0764
      25    H15     17.618501   20.003368   19.345044 H          1 MOL1         0.0764
@<TRIPOS>BOND
    1     1     2    1
    2     1     3    2
    3     1     4    1
    4     4     5    1
    5     4     6    1
    6     4     7    1
    7     7     8    1
    8     7     9    1
    9     7    10    1
   10    10    11    1
   11    10    12    1
   12    10    13    1
   13    13    14    1
   14    13    15    1
   15    13    16    1
   16    16    17    1
   17    16    18    1
   18    16    19    1
   19    19    20    1
   20    19    21    1
   21    19    22    1
   22    22    23    1
   23    22    24    1
   24    22    25    1
@<TRIPOS>SUBSTRUCTURE
       1 MOL1            1 RESIDUE      1      MOL     
@<SCITEGIC>MOL_PROPERTY
VConf Rank
SciTegic.value.IntegerValue
325

@<SCITEGIC>MOL_PROPERTY
Conf_Id
SciTegic.value.IntegerValue
101

@<SCITEGIC>MOL_PROPERTY
Delta U+W
SciTegic.value.DoubleValue
1.534

@<SCITEGIC>MOL_PROPERTY
U+W
SciTegic.value.DoubleValue
-50.095

@<SCITEGIC>MOL_PROPERTY
Grad RMS
SciTegic.value.DoubleValue
0.000000

@<SCITEGIC>MOL_PROPERTY
U
SciTegic.value.DoubleValue
9.416

@<SCITEGIC>MOL_PROPERTY
W
SciTegic.value.DoubleValue
-59.512

@<SCITEGIC>MOL_PROPERTY
W(PB)
SciTegic.value.DoubleValue
-61.988

@<SCITEGIC>MOL_PROPERTY
W(SA)
SciTegic.value.DoubleValue
2.476

@<SCITEGIC>MOL_PROPERTY
Valence
SciTegic.value.DoubleValue
8.939

@<SCITEGIC>MOL_PROPERTY
Coulomb
SciTegic.value.DoubleValue
-0.615

@<SCITEGIC>MOL_PROPERTY
VdW
SciTegic.value.DoubleValue
1.092

@<SCITEGIC>MOL_PROPERTY
VdW6
SciTegic.value.DoubleValue
-9.710

@<SCITEGIC>MOL_PROPERTY
VdW12
SciTegic.value.DoubleValue
10.802

@<SCITEGIC>MOL_PROPERTY
Bond
SciTegic.value.DoubleValue
0.216

@<SCITEGIC>MOL_PROPERTY
Angle
SciTegic.value.DoubleValue
2.979

@<SCITEGIC>MOL_PROPERTY
Pdih
SciTegic.value.DoubleValue
5.743

@<SCITEGIC>MOL_PROPERTY
Idih
SciTegic.value.DoubleValue
0.000

@<SCITEGIC>MOL_PROPERTY
Tether
SciTegic.value.DoubleValue
0.000

@<TRIPOS>MOLECULE
guest-8_confgen4.mol2 : confsearch ligand conformer 326
          25          24           1
SMALL
USER_CHARGES
 
@<TRIPOS>ATOM
       1    C1      17.033060   21.059514   25.444159 C.2        1 MOL1         0.6168
       2    O1      17.544146   21.934986   26.114291 O.co2      1 MOL1        -0.6703
       3    O2      15.851891   21.032568   25.159748 O.co2      1 MOL1        -0.6703
       4    C2      17.927172   19.945360   24.911813 C.3        1 MOL1        -0.1963
       5    H1      17.327531   19.029550   24.848091 H          1 MOL1         0.0750
       6    H2      18.714420   19.768397   25.652951 H          1 MOL1         0.0750
       7    C3      18.541709   20.280095   23.527670 C.3        1 MOL1        -0.1860
       8    H3      17.728862   20.547140   22.838182 H          1 MOL1         0.0752
       9    H4      19.179544   21.170604   23.614053 H          1 MOL1         0.0752
      10    C4      19.351067   19.115144   22.909176 C.3        1 MOL1        -0.1858
      11    H5      19.618845   19.396630   21.882749 H          1 MOL1         0.0752
      12    H6      18.714339   18.223341   22.832817 H          1 MOL1         0.0752
      13    C5      20.638682   18.772980   23.698400 C.3        1 MOL1        -0.1858
      14    H7      21.275395   19.663984   23.774060 H          1 MOL1         0.0752
      15    H8      20.374437   18.499412   24.727503 H          1 MOL1         0.0752
      16    C6      21.443903   17.597318   23.088651 C.3        1 MOL1        -0.1858
      17    H9      20.818915   16.694047   23.101678 H          1 MOL1         0.0752
      18    H10     22.299651   17.382263   23.742958 H          1 MOL1         0.0752
      19    C7      21.964711   17.822352   21.647270 C.3        1 MOL1        -0.1834
      20    H11     22.511173   16.923726   21.329630 H          1 MOL1         0.0752
      21    H12     21.122421   17.925243   20.950633 H          1 MOL1         0.0752
      22    C8      22.900505   19.043588   21.517603 C.3        1 MOL1        -0.2849
      23    H13     23.738356   18.973366   22.223331 H          1 MOL1         0.0764
      24    H14     23.315880   19.103498   20.503384 H          1 MOL1         0.0764
      25    H15     22.362690   19.980019   21.712359 H          1 MOL1         0.0764
@<TRIPOS>BOND
    1     1     2    1
    2     1     3    2
    3     1     4    1
    4     4     5    1
    5     4     6    1
    6     4     7    1
    7     7     8    1
    8     7     9    1
    9     7    10    1
   10    10    11    1
   11    10    12    1
   12    10    13    1
   13    13    14    1
   14    13    15    1
   15    13    16    1
   16    16    17    1
   17    16    18    1
   18    16    19    1
   19    19    20    1
   20    19    21    1
   21    19    22    1
   22    22    23    1
   23    22    24    1
   24    22    25    1
@<TRIPOS>SUBSTRUCTURE
       1 MOL1            1 RESIDUE      1      MOL     
@<SCITEGIC>MOL_PROPERTY
VConf Rank
SciTegic.value.IntegerValue
326

@<SCITEGIC>MOL_PROPERTY
Conf_Id
SciTegic.value.IntegerValue
75

@<SCITEGIC>MOL_PROPERTY
Delta U+W
SciTegic.value.DoubleValue
1.014

@<SCITEGIC>MOL_PROPERTY
U+W
SciTegic.value.DoubleValue
-50.615

@<SCITEGIC>MOL_PROPERTY
Grad RMS
SciTegic.value.DoubleValue
0.000000

@<SCITEGIC>MOL_PROPERTY
U
SciTegic.value.DoubleValue
8.474

@<SCITEGIC>MOL_PROPERTY
W
SciTegic.value.DoubleValue
-59.089

@<SCITEGIC>MOL_PROPERTY
W(PB)
SciTegic.value.DoubleValue
-61.530

@<SCITEGIC>MOL_PROPERTY
W(SA)
SciTegic.value.DoubleValue
2.441

@<SCITEGIC>MOL_PROPERTY
Valence
SciTegic.value.DoubleValue
9.080

@<SCITEGIC>MOL_PROPERTY
Coulomb
SciTegic.value.DoubleValue
-1.772

@<SCITEGIC>MOL_PROPERTY
VdW
SciTegic.value.DoubleValue
1.165

@<SCITEGIC>MOL_PROPERTY
VdW6
SciTegic.value.DoubleValue
-9.830

@<SCITEGIC>MOL_PROPERTY
VdW12
SciTegic.value.DoubleValue
10.996

@<SCITEGIC>MOL_PROPERTY
Bond
SciTegic.value.DoubleValue
0.240

@<SCITEGIC>MOL_PROPERTY
Angle
SciTegic.value.DoubleValue
3.225

@<SCITEGIC>MOL_PROPERTY
Pdih
SciTegic.value.DoubleValue
5.615

@<SCITEGIC>MOL_PROPERTY
Idih
SciTegic.value.DoubleValue
0.001

@<SCITEGIC>MOL_PROPERTY
Tether
SciTegic.value.DoubleValue
0.000

@<TRIPOS>MOLECULE
guest-8_confgen4.mol2 : confsearch ligand conformer 327
          25          24           1
SMALL
USER_CHARGES
 
@<TRIPOS>ATOM
       1    C1      21.844323   18.360284   19.513697 C.2        1 MOL1         0.6168
       2    O1      22.628862   17.442352   19.649901 O.co2      1 MOL1        -0.6703
       3    O2      21.293236   18.624847   18.463469 O.co2      1 MOL1        -0.6703
       4    C2      21.516960   19.214310   20.733350 C.3        1 MOL1        -0.1963
       5    H1      21.311920   20.235186   20.389355 H          1 MOL1         0.0750
       6    H2      22.410459   19.259054   21.367593 H          1 MOL1         0.0750
       7    C3      20.313679   18.671013   21.542685 C.3        1 MOL1        -0.1860
       8    H3      19.430723   18.620090   20.890543 H          1 MOL1         0.0752
       9    H4      20.529662   17.643946   21.868293 H          1 MOL1         0.0752
      10    C4      20.003406   19.551527   22.772554 C.3        1 MOL1        -0.1858
      11    H5      19.788653   20.577044   22.442389 H          1 MOL1         0.0752
      12    H6      20.892189   19.606815   23.412258 H          1 MOL1         0.0752
      13    C5      18.797187   19.008125   23.574106 C.3        1 MOL1        -0.1858
      14    H7      17.922115   18.997827   22.909984 H          1 MOL1         0.0752
      15    H8      18.971565   17.963751   23.866842 H          1 MOL1         0.0752
      16    C6      18.455656   19.859927   24.823192 C.3        1 MOL1        -0.1858
      17    H9      17.363554   19.868869   24.941946 H          1 MOL1         0.0752
      18    H10     18.746599   20.906896   24.661809 H          1 MOL1         0.0752
      19    C7      19.063550   19.337134   26.148355 C.3        1 MOL1        -0.1834
      20    H11     18.693539   19.962854   26.972211 H          1 MOL1         0.0752
      21    H12     18.696295   18.320624   26.346012 H          1 MOL1         0.0752
      22    C8      20.606053   19.339163   26.180805 C.3        1 MOL1        -0.2849
      23    H13     21.004531   20.328471   25.921101 H          1 MOL1         0.0764
      24    H14     20.969208   19.080099   27.183680 H          1 MOL1         0.0764
      25    H15     21.017256   18.601837   25.480170 H          1 MOL1         0.0764
@<TRIPOS>BOND
    1     1     2    1
    2     1     3    2
    3     1     4    1
    4     4     5    1
    5     4     6    1
    6     4     7    1
    7     7     8    1
    8     7     9    1
    9     7    10    1
   10    10    11    1
   11    10    12    1
   12    10    13    1
   13    13    14    1
   14    13    15    1
   15    13    16    1
   16    16    17    1
   17    16    18    1
   18    16    19    1
   19    19    20    1
   20    19    21    1
   21    19    22    1
   22    22    23    1
   23    22    24    1
   24    22    25    1
@<TRIPOS>SUBSTRUCTURE
       1 MOL1            1 RESIDUE      1      MOL     
@<SCITEGIC>MOL_PROPERTY
VConf Rank
SciTegic.value.IntegerValue
327

@<SCITEGIC>MOL_PROPERTY
Conf_Id
SciTegic.value.IntegerValue
125

@<SCITEGIC>MOL_PROPERTY
Delta U+W
SciTegic.value.DoubleValue
2.314

@<SCITEGIC>MOL_PROPERTY
U+W
SciTegic.value.DoubleValue
-49.315

@<SCITEGIC>MOL_PROPERTY
Grad RMS
SciTegic.value.DoubleValue
0.000000

@<SCITEGIC>MOL_PROPERTY
U
SciTegic.value.DoubleValue
9.740

@<SCITEGIC>MOL_PROPERTY
W
SciTegic.value.DoubleValue
-59.054

@<SCITEGIC>MOL_PROPERTY
W(PB)
SciTegic.value.DoubleValue
-61.488

@<SCITEGIC>MOL_PROPERTY
W(SA)
SciTegic.value.DoubleValue
2.433

@<SCITEGIC>MOL_PROPERTY
Valence
SciTegic.value.DoubleValue
10.506

@<SCITEGIC>MOL_PROPERTY
Coulomb
SciTegic.value.DoubleValue
-1.761

@<SCITEGIC>MOL_PROPERTY
VdW
SciTegic.value.DoubleValue
0.994

@<SCITEGIC>MOL_PROPERTY
VdW6
SciTegic.value.DoubleValue
-9.209

@<SCITEGIC>MOL_PROPERTY
VdW12
SciTegic.value.DoubleValue
10.203

@<SCITEGIC>MOL_PROPERTY
Bond
SciTegic.value.DoubleValue
0.193

@<SCITEGIC>MOL_PROPERTY
Angle
SciTegic.value.DoubleValue
2.979

@<SCITEGIC>MOL_PROPERTY
Pdih
SciTegic.value.DoubleValue
7.334

@<SCITEGIC>MOL_PROPERTY
Idih
SciTegic.value.DoubleValue
0.001

@<SCITEGIC>MOL_PROPERTY
Tether
SciTegic.value.DoubleValue
0.000

@<TRIPOS>MOLECULE
guest-8_confgen4.mol2 : confsearch ligand conformer 328
          25          24           1
SMALL
USER_CHARGES
 
@<TRIPOS>ATOM
       1    C1      16.212029   19.936597   24.264258 C.2        1 MOL1         0.6168
       2    O1      15.923980   20.938862   23.640411 O.co2      1 MOL1        -0.6703
       3    O2      15.486118   19.430113   25.096886 O.co2      1 MOL1        -0.6703
       4    C2      17.569343   19.292553   24.005559 C.3        1 MOL1        -0.1963
       5    H1      17.815379   19.447718   22.949099 H          1 MOL1         0.0750
       6    H2      17.468233   18.211881   24.161382 H          1 MOL1         0.0750
       7    C3      18.686957   19.862622   24.917261 C.3        1 MOL1        -0.1860
       8    H3      18.810715   20.936144   24.718353 H          1 MOL1         0.0752
       9    H4      18.365684   19.776437   25.964544 H          1 MOL1         0.0752
      10    C4      20.045837   19.140663   24.754869 C.3        1 MOL1        -0.1858
      11    H5      19.920732   18.069366   24.963777 H          1 MOL1         0.0752
      12    H6      20.738050   19.526895   25.515511 H          1 MOL1         0.0752
      13    C5      20.678660   19.327947   23.356421 C.3        1 MOL1        -0.1858
      14    H7      20.025720   18.884075   22.595321 H          1 MOL1         0.0752
      15    H8      20.756887   20.399857   23.129592 H          1 MOL1         0.0752
      16    C6      22.080058   18.679473   23.274126 C.3        1 MOL1        -0.1858
      17    H9      21.998694   17.598822   23.454295 H          1 MOL1         0.0752
      18    H10     22.708881   19.082673   24.079642 H          1 MOL1         0.0752
      19    C7      22.794066   18.926580   21.924701 C.3        1 MOL1        -0.1834
      20    H11     22.882013   20.006788   21.743809 H          1 MOL1         0.0752
      21    H12     23.819936   18.539064   21.992874 H          1 MOL1         0.0752
      22    C8      22.088047   18.255042   20.726720 C.3        1 MOL1        -0.2849
      23    H13     21.099339   18.694945   20.546083 H          1 MOL1         0.0764
      24    H14     22.680294   18.382879   19.811408 H          1 MOL1         0.0764
      25    H15     21.960301   17.178415   20.898951 H          1 MOL1         0.0764
@<TRIPOS>BOND
    1     1     2    1
    2     1     3    2
    3     1     4    1
    4     4     5    1
    5     4     6    1
    6     4     7    1
    7     7     8    1
    8     7     9    1
    9     7    10    1
   10    10    11    1
   11    10    12    1
   12    10    13    1
   13    13    14    1
   14    13    15    1
   15    13    16    1
   16    16    17    1
   17    16    18    1
   18    16    19    1
   19    19    20    1
   20    19    21    1
   21    19    22    1
   22    22    23    1
   23    22    24    1
   24    22    25    1
@<TRIPOS>SUBSTRUCTURE
       1 MOL1            1 RESIDUE      1      MOL     
@<SCITEGIC>MOL_PROPERTY
VConf Rank
SciTegic.value.IntegerValue
328

@<SCITEGIC>MOL_PROPERTY
Conf_Id
SciTegic.value.IntegerValue
4

@<SCITEGIC>MOL_PROPERTY
Delta U+W
SciTegic.value.DoubleValue
0.189

@<SCITEGIC>MOL_PROPERTY
U+W
SciTegic.value.DoubleValue
-51.441

@<SCITEGIC>MOL_PROPERTY
Grad RMS
SciTegic.value.DoubleValue
0.000000

@<SCITEGIC>MOL_PROPERTY
U
SciTegic.value.DoubleValue
7.701

@<SCITEGIC>MOL_PROPERTY
W
SciTegic.value.DoubleValue
-59.141

@<SCITEGIC>MOL_PROPERTY
W(PB)
SciTegic.value.DoubleValue
-61.609

@<SCITEGIC>MOL_PROPERTY
W(SA)
SciTegic.value.DoubleValue
2.467

@<SCITEGIC>MOL_PROPERTY
Valence
SciTegic.value.DoubleValue
8.550

@<SCITEGIC>MOL_PROPERTY
Coulomb
SciTegic.value.DoubleValue
-1.988

@<SCITEGIC>MOL_PROPERTY
VdW
SciTegic.value.DoubleValue
1.139

@<SCITEGIC>MOL_PROPERTY
VdW6
SciTegic.value.DoubleValue
-8.988

@<SCITEGIC>MOL_PROPERTY
VdW12
SciTegic.value.DoubleValue
10.127

@<SCITEGIC>MOL_PROPERTY
Bond
SciTegic.value.DoubleValue
0.191

@<SCITEGIC>MOL_PROPERTY
Angle
SciTegic.value.DoubleValue
2.738

@<SCITEGIC>MOL_PROPERTY
Pdih
SciTegic.value.DoubleValue
5.621

@<SCITEGIC>MOL_PROPERTY
Idih
SciTegic.value.DoubleValue
0.001

@<SCITEGIC>MOL_PROPERTY
Tether
SciTegic.value.DoubleValue
0.000

@<TRIPOS>MOLECULE
guest-8_confgen4.mol2 : confsearch ligand conformer 329
          25          24           1
SMALL
USER_CHARGES
 
@<TRIPOS>ATOM
       1    C1      17.209343   21.014641   20.957006 C.2        1 MOL1         0.6168
       2    O1      17.192075   20.375923   19.923354 O.co2      1 MOL1        -0.6703
       3    O2      16.412449   21.894114   21.218210 O.co2      1 MOL1        -0.6703
       4    C2      18.275233   20.678212   21.993691 C.3        1 MOL1        -0.1963
       5    H1      18.525945   21.598449   22.534675 H          1 MOL1         0.0750
       6    H2      19.175317   20.361601   21.454870 H          1 MOL1         0.0750
       7    C3      17.818243   19.579890   22.988723 C.3        1 MOL1        -0.1860
       8    H3      16.864986   19.887896   23.440254 H          1 MOL1         0.0752
       9    H4      17.615229   18.649592   22.440398 H          1 MOL1         0.0752
      10    C4      18.837606   19.307924   24.120575 C.3        1 MOL1        -0.1858
      11    H5      18.383929   18.609343   24.836866 H          1 MOL1         0.0752
      12    H6      19.030915   20.237650   24.673036 H          1 MOL1         0.0752
      13    C5      20.173565   18.714908   23.615856 C.3        1 MOL1        -0.1858
      14    H7      19.973517   17.812851   23.021855 H          1 MOL1         0.0752
      15    H8      20.667689   19.434872   22.952442 H          1 MOL1         0.0752
      16    C6      21.118686   18.361966   24.787769 C.3        1 MOL1        -0.1858
      17    H9      20.593921   17.690514   25.481035 H          1 MOL1         0.0752
      18    H10     21.358152   19.270911   25.356420 H          1 MOL1         0.0752
      19    C7      22.428267   17.674197   24.336340 C.3        1 MOL1        -0.1834
      20    H11     22.982668   17.352156   25.228616 H          1 MOL1         0.0752
      21    H12     22.192504   16.761613   23.771615 H          1 MOL1         0.0752
      22    C8      23.339218   18.588792   23.488832 C.3        1 MOL1        -0.2849
      23    H13     23.562812   19.522627   24.020872 H          1 MOL1         0.0764
      24    H14     24.291211   18.087311   23.271758 H          1 MOL1         0.0764
      25    H15     22.871583   18.842233   22.529263 H          1 MOL1         0.0764
@<TRIPOS>BOND
    1     1     2    1
    2     1     3    2
    3     1     4    1
    4     4     5    1
    5     4     6    1
    6     4     7    1
    7     7     8    1
    8     7     9    1
    9     7    10    1
   10    10    11    1
   11    10    12    1
   12    10    13    1
   13    13    14    1
   14    13    15    1
   15    13    16    1
   16    16    17    1
   17    16    18    1
   18    16    19    1
   19    19    20    1
   20    19    21    1
   21    19    22    1
   22    22    23    1
   23    22    24    1
   24    22    25    1
@<TRIPOS>SUBSTRUCTURE
       1 MOL1            1 RESIDUE      1      MOL     
@<SCITEGIC>MOL_PROPERTY
VConf Rank
SciTegic.value.IntegerValue
329

@<SCITEGIC>MOL_PROPERTY
Conf_Id
SciTegic.value.IntegerValue
17

@<SCITEGIC>MOL_PROPERTY
Delta U+W
SciTegic.value.DoubleValue
0.219

@<SCITEGIC>MOL_PROPERTY
U+W
SciTegic.value.DoubleValue
-51.411

@<SCITEGIC>MOL_PROPERTY
Grad RMS
SciTegic.value.DoubleValue
0.000000

@<SCITEGIC>MOL_PROPERTY
U
SciTegic.value.DoubleValue
7.701

@<SCITEGIC>MOL_PROPERTY
W
SciTegic.value.DoubleValue
-59.111

@<SCITEGIC>MOL_PROPERTY
W(PB)
SciTegic.value.DoubleValue
-61.599

@<SCITEGIC>MOL_PROPERTY
W(SA)
SciTegic.value.DoubleValue
2.488

@<SCITEGIC>MOL_PROPERTY
Valence
SciTegic.value.DoubleValue
8.550

@<SCITEGIC>MOL_PROPERTY
Coulomb
SciTegic.value.DoubleValue
-1.988

@<SCITEGIC>MOL_PROPERTY
VdW
SciTegic.value.DoubleValue
1.139

@<SCITEGIC>MOL_PROPERTY
VdW6
SciTegic.value.DoubleValue
-8.988

@<SCITEGIC>MOL_PROPERTY
VdW12
SciTegic.value.DoubleValue
10.127

@<SCITEGIC>MOL_PROPERTY
Bond
SciTegic.value.DoubleValue
0.191

@<SCITEGIC>MOL_PROPERTY
Angle
SciTegic.value.DoubleValue
2.738

@<SCITEGIC>MOL_PROPERTY
Pdih
SciTegic.value.DoubleValue
5.621

@<SCITEGIC>MOL_PROPERTY
Idih
SciTegic.value.DoubleValue
0.001

@<SCITEGIC>MOL_PROPERTY
Tether
SciTegic.value.DoubleValue
0.000

@<TRIPOS>MOLECULE
guest-8_confgen4.mol2 : confsearch ligand conformer 330
          25          24           1
SMALL
USER_CHARGES
 
@<TRIPOS>ATOM
       1    C1      19.362373   16.569596   20.881029 C.2        1 MOL1         0.6168
       2    O1      20.323589   15.828405   20.819704 O.co2      1 MOL1        -0.6703
       3    O2      18.983018   17.257554   19.953732 O.co2      1 MOL1        -0.6703
       4    C2      18.575370   16.626626   22.187285 C.3        1 MOL1        -0.1963
       5    H1      18.801025   15.726277   22.771430 H          1 MOL1         0.0750
       6    H2      17.510341   16.580065   21.931299 H          1 MOL1         0.0750
       7    C3      18.850172   17.897589   23.032291 C.3        1 MOL1        -0.1860
       8    H3      18.635802   18.784056   22.420827 H          1 MOL1         0.0752
       9    H4      18.152658   17.919943   23.880371 H          1 MOL1         0.0752
      10    C4      20.302561   17.952469   23.563618 C.3        1 MOL1        -0.1858
      11    H5      21.006467   18.001939   22.721365 H          1 MOL1         0.0752
      12    H6      20.523362   17.017384   24.096262 H          1 MOL1         0.0752
      13    C5      20.563195   19.137822   24.523164 C.3        1 MOL1        -0.1858
      14    H7      19.866302   19.085501   25.370780 H          1 MOL1         0.0752
      15    H8      21.572337   19.029289   24.943537 H          1 MOL1         0.0752
      16    C6      20.450028   20.520087   23.839374 C.3        1 MOL1        -0.1858
      17    H9      19.425133   20.677216   23.479057 H          1 MOL1         0.0752
      18    H10     21.107552   20.549343   22.959771 H          1 MOL1         0.0752
      19    C7      20.827025   21.665431   24.802601 C.3        1 MOL1        -0.1834
      20    H11     20.172188   21.637819   25.684579 H          1 MOL1         0.0752
      21    H12     21.855094   21.523311   25.163572 H          1 MOL1         0.0752
      22    C8      20.710106   23.043351   24.120406 C.3        1 MOL1        -0.2849
      23    H13     19.683214   23.226107   23.777660 H          1 MOL1         0.0764
      24    H14     20.981995   23.845303   24.818980 H          1 MOL1         0.0764
      25    H15     21.378295   23.109448   23.251766 H          1 MOL1         0.0764
@<TRIPOS>BOND
    1     1     2    1
    2     1     3    2
    3     1     4    1
    4     4     5    1
    5     4     6    1
    6     4     7    1
    7     7     8    1
    8     7     9    1
    9     7    10    1
   10    10    11    1
   11    10    12    1
   12    10    13    1
   13    13    14    1
   14    13    15    1
   15    13    16    1
   16    16    17    1
   17    16    18    1
   18    16    19    1
   19    19    20    1
   20    19    21    1
   21    19    22    1
   22    22    23    1
   23    22    24    1
   24    22    25    1
@<TRIPOS>SUBSTRUCTURE
       1 MOL1            1 RESIDUE      1      MOL     
@<SCITEGIC>MOL_PROPERTY
VConf Rank
SciTegic.value.IntegerValue
330

@<SCITEGIC>MOL_PROPERTY
Conf_Id
SciTegic.value.IntegerValue
142

@<SCITEGIC>MOL_PROPERTY
Delta U+W
SciTegic.value.DoubleValue
0.593

@<SCITEGIC>MOL_PROPERTY
U+W
SciTegic.value.DoubleValue
-51.037

@<SCITEGIC>MOL_PROPERTY
Grad RMS
SciTegic.value.DoubleValue
0.000000

@<SCITEGIC>MOL_PROPERTY
U
SciTegic.value.DoubleValue
8.903

@<SCITEGIC>MOL_PROPERTY
W
SciTegic.value.DoubleValue
-59.940

@<SCITEGIC>MOL_PROPERTY
W(PB)
SciTegic.value.DoubleValue
-62.418

@<SCITEGIC>MOL_PROPERTY
W(SA)
SciTegic.value.DoubleValue
2.478

@<SCITEGIC>MOL_PROPERTY
Valence
SciTegic.value.DoubleValue
8.305

@<SCITEGIC>MOL_PROPERTY
Coulomb
SciTegic.value.DoubleValue
-0.223

@<SCITEGIC>MOL_PROPERTY
VdW
SciTegic.value.DoubleValue
0.821

@<SCITEGIC>MOL_PROPERTY
VdW6
SciTegic.value.DoubleValue
-9.236

@<SCITEGIC>MOL_PROPERTY
VdW12
SciTegic.value.DoubleValue
10.057

@<SCITEGIC>MOL_PROPERTY
Bond
SciTegic.value.DoubleValue
0.173

@<SCITEGIC>MOL_PROPERTY
Angle
SciTegic.value.DoubleValue
2.663

@<SCITEGIC>MOL_PROPERTY
Pdih
SciTegic.value.DoubleValue
5.469

@<SCITEGIC>MOL_PROPERTY
Idih
SciTegic.value.DoubleValue
0.001

@<SCITEGIC>MOL_PROPERTY
Tether
SciTegic.value.DoubleValue
0.000

@<TRIPOS>MOLECULE
guest-8_confgen4.mol2 : confsearch ligand conformer 331
          25          24           1
SMALL
USER_CHARGES
 
@<TRIPOS>ATOM
       1    C1      22.285935   21.058869   25.582343 C.2        1 MOL1         0.6168
       2    O1      22.680643   21.028896   26.731632 O.co2      1 MOL1        -0.6703
       3    O2      22.993970   21.341394   24.635811 O.co2      1 MOL1        -0.6703
       4    C2      20.814340   20.751527   25.319877 C.3        1 MOL1        -0.1963
       5    H1      20.560479   21.086512   24.307633 H          1 MOL1         0.0750
       6    H2      20.224469   21.367965   26.008045 H          1 MOL1         0.0750
       7    C3      20.434438   19.258005   25.512746 C.3        1 MOL1        -0.1860
       8    H3      20.637452   18.975043   26.554809 H          1 MOL1         0.0752
       9    H4      19.351952   19.139475   25.374819 H          1 MOL1         0.0752
      10    C4      21.190067   18.278789   24.577437 C.3        1 MOL1        -0.1858
      11    H5      20.857174   17.255013   24.795751 H          1 MOL1         0.0752
      12    H6      22.260939   18.305888   24.821537 H          1 MOL1         0.0752
      13    C5      21.021347   18.548580   23.061167 C.3        1 MOL1        -0.1858
      14    H7      21.452558   19.525742   22.805502 H          1 MOL1         0.0752
      15    H8      21.611871   17.803864   22.510521 H          1 MOL1         0.0752
      16    C6      19.553247   18.480914   22.580780 C.3        1 MOL1        -0.1858
      17    H9      18.964174   19.268136   23.069020 H          1 MOL1         0.0752
      18    H10     19.113716   17.519017   22.877833 H          1 MOL1         0.0752
      19    C7      19.445749   18.646838   21.050306 C.3        1 MOL1        -0.1834
      20    H11     19.887333   19.607427   20.750726 H          1 MOL1         0.0752
      21    H12     20.025720   17.858887   20.550167 H          1 MOL1         0.0752
      22    C8      17.980632   18.585224   20.573516 C.3        1 MOL1        -0.2849
      23    H13     17.383874   19.383430   21.034074 H          1 MOL1         0.0764
      24    H14     17.923002   18.704694   19.483818 H          1 MOL1         0.0764
      25    H15     17.523261   17.621633   20.833622 H          1 MOL1         0.0764
@<TRIPOS>BOND
    1     1     2    1
    2     1     3    2
    3     1     4    1
    4     4     5    1
    5     4     6    1
    6     4     7    1
    7     7     8    1
    8     7     9    1
    9     7    10    1
   10    10    11    1
   11    10    12    1
   12    10    13    1
   13    13    14    1
   14    13    15    1
   15    13    16    1
   16    16    17    1
   17    16    18    1
   18    16    19    1
   19    19    20    1
   20    19    21    1
   21    19    22    1
   22    22    23    1
   23    22    24    1
   24    22    25    1
@<TRIPOS>SUBSTRUCTURE
       1 MOL1            1 RESIDUE      1      MOL     
@<SCITEGIC>MOL_PROPERTY
VConf Rank
SciTegic.value.IntegerValue
331

@<SCITEGIC>MOL_PROPERTY
Conf_Id
SciTegic.value.IntegerValue
135

@<SCITEGIC>MOL_PROPERTY
Delta U+W
SciTegic.value.DoubleValue
1.314

@<SCITEGIC>MOL_PROPERTY
U+W
SciTegic.value.DoubleValue
-50.316

@<SCITEGIC>MOL_PROPERTY
Grad RMS
SciTegic.value.DoubleValue
0.000000

@<SCITEGIC>MOL_PROPERTY
U
SciTegic.value.DoubleValue
9.773

@<SCITEGIC>MOL_PROPERTY
W
SciTegic.value.DoubleValue
-60.088

@<SCITEGIC>MOL_PROPERTY
W(PB)
SciTegic.value.DoubleValue
-62.535

@<SCITEGIC>MOL_PROPERTY
W(SA)
SciTegic.value.DoubleValue
2.447

@<SCITEGIC>MOL_PROPERTY
Valence
SciTegic.value.DoubleValue
8.741

@<SCITEGIC>MOL_PROPERTY
Coulomb
SciTegic.value.DoubleValue
0.479

@<SCITEGIC>MOL_PROPERTY
VdW
SciTegic.value.DoubleValue
0.552

@<SCITEGIC>MOL_PROPERTY
VdW6
SciTegic.value.DoubleValue
-10.627

@<SCITEGIC>MOL_PROPERTY
VdW12
SciTegic.value.DoubleValue
11.179

@<SCITEGIC>MOL_PROPERTY
Bond
SciTegic.value.DoubleValue
0.227

@<SCITEGIC>MOL_PROPERTY
Angle
SciTegic.value.DoubleValue
3.155

@<SCITEGIC>MOL_PROPERTY
Pdih
SciTegic.value.DoubleValue
5.358

@<SCITEGIC>MOL_PROPERTY
Idih
SciTegic.value.DoubleValue
0.001

@<SCITEGIC>MOL_PROPERTY
Tether
SciTegic.value.DoubleValue
0.000

@<TRIPOS>MOLECULE
guest-8_confgen4.mol2 : confsearch ligand conformer 332
          25          24           1
SMALL
USER_CHARGES
 
@<TRIPOS>ATOM
       1    C1      21.562016   18.425356   19.385821 C.2        1 MOL1         0.6168
       2    O1      21.863426   17.262252   19.203934 O.co2      1 MOL1        -0.6703
       3    O2      21.339637   19.211577   18.486280 O.co2      1 MOL1        -0.6703
       4    C2      21.433533   18.919855   20.822185 C.3        1 MOL1        -0.1963
       5    H1      21.714881   19.979456   20.843089 H          1 MOL1         0.0750
       6    H2      22.167278   18.376239   21.427389 H          1 MOL1         0.0750
       7    C3      20.003601   18.734578   21.393844 C.3        1 MOL1        -0.1860
       8    H3      19.288400   19.209969   20.708325 H          1 MOL1         0.0752
       9    H4      19.750106   17.665631   21.413211 H          1 MOL1         0.0752
      10    C4      19.814298   19.343635   22.803861 C.3        1 MOL1        -0.1858
      11    H5      18.745533   19.299872   23.048431 H          1 MOL1         0.0752
      12    H6      20.092291   20.406200   22.787979 H          1 MOL1         0.0752
      13    C5      20.613335   18.607719   23.905873 C.3        1 MOL1        -0.1858
      14    H7      20.286769   17.560064   23.954542 H          1 MOL1         0.0752
      15    H8      21.676626   18.587031   23.636689 H          1 MOL1         0.0752
      16    C6      20.494877   19.249098   25.311600 C.3        1 MOL1        -0.1858
      17    H9      20.906273   20.267635   25.296045 H          1 MOL1         0.0752
      18    H10     21.141848   18.677173   25.990719 H          1 MOL1         0.0752
      19    C7      19.063258   19.257439   25.903715 C.3        1 MOL1        -0.1834
      20    H11     18.471444   18.433026   25.482603 H          1 MOL1         0.0752
      21    H12     19.128220   19.065517   26.983644 H          1 MOL1         0.0752
      22    C8      18.329852   20.602166   25.701005 C.3        1 MOL1        -0.2849
      23    H13     18.222087   20.852427   24.639462 H          1 MOL1         0.0764
      24    H14     17.324628   20.561405   26.139947 H          1 MOL1         0.0764
      25    H15     18.875496   21.421058   26.187595 H          1 MOL1         0.0764
@<TRIPOS>BOND
    1     1     2    1
    2     1     3    2
    3     1     4    1
    4     4     5    1
    5     4     6    1
    6     4     7    1
    7     7     8    1
    8     7     9    1
    9     7    10    1
   10    10    11    1
   11    10    12    1
   12    10    13    1
   13    13    14    1
   14    13    15    1
   15    13    16    1
   16    16    17    1
   17    16    18    1
   18    16    19    1
   19    19    20    1
   20    19    21    1
   21    19    22    1
   22    22    23    1
   23    22    24    1
   24    22    25    1
@<TRIPOS>SUBSTRUCTURE
       1 MOL1            1 RESIDUE      1      MOL     
@<SCITEGIC>MOL_PROPERTY
VConf Rank
SciTegic.value.IntegerValue
332

@<SCITEGIC>MOL_PROPERTY
Conf_Id
SciTegic.value.IntegerValue
19

@<SCITEGIC>MOL_PROPERTY
Delta U+W
SciTegic.value.DoubleValue
3.222

@<SCITEGIC>MOL_PROPERTY
U+W
SciTegic.value.DoubleValue
-48.407

@<SCITEGIC>MOL_PROPERTY
Grad RMS
SciTegic.value.DoubleValue
0.000000

@<SCITEGIC>MOL_PROPERTY
U
SciTegic.value.DoubleValue
10.617

@<SCITEGIC>MOL_PROPERTY
W
SciTegic.value.DoubleValue
-59.025

@<SCITEGIC>MOL_PROPERTY
W(PB)
SciTegic.value.DoubleValue
-61.462

@<SCITEGIC>MOL_PROPERTY
W(SA)
SciTegic.value.DoubleValue
2.437

@<SCITEGIC>MOL_PROPERTY
Valence
SciTegic.value.DoubleValue
11.188

@<SCITEGIC>MOL_PROPERTY
Coulomb
SciTegic.value.DoubleValue
-1.778

@<SCITEGIC>MOL_PROPERTY
VdW
SciTegic.value.DoubleValue
1.208

@<SCITEGIC>MOL_PROPERTY
VdW6
SciTegic.value.DoubleValue
-9.786

@<SCITEGIC>MOL_PROPERTY
VdW12
SciTegic.value.DoubleValue
10.993

@<SCITEGIC>MOL_PROPERTY
Bond
SciTegic.value.DoubleValue
0.241

@<SCITEGIC>MOL_PROPERTY
Angle
SciTegic.value.DoubleValue
3.294

@<SCITEGIC>MOL_PROPERTY
Pdih
SciTegic.value.DoubleValue
7.653

@<SCITEGIC>MOL_PROPERTY
Idih
SciTegic.value.DoubleValue
0.001

@<SCITEGIC>MOL_PROPERTY
Tether
SciTegic.value.DoubleValue
0.000

@<TRIPOS>MOLECULE
guest-8_confgen4.mol2 : confsearch ligand conformer 333
          25          24           1
SMALL
USER_CHARGES
 
@<TRIPOS>ATOM
       1    C1      23.136674   22.072141   23.740746 C.2        1 MOL1         0.6168
       2    O1      23.407942   22.302199   24.902739 O.co2      1 MOL1        -0.6703
       3    O2      23.411005   22.821744   22.824445 O.co2      1 MOL1        -0.6703
       4    C2      22.390267   20.782827   23.417128 C.3        1 MOL1        -0.1963
       5    H1      22.720394   20.019979   24.130747 H          1 MOL1         0.0750
       6    H2      22.701210   20.451685   22.419127 H          1 MOL1         0.0750
       7    C3      20.849478   20.953667   23.468236 C.3        1 MOL1        -0.1860
       8    H3      20.543795   21.238640   24.484421 H          1 MOL1         0.0752
       9    H4      20.568354   21.790723   22.814208 H          1 MOL1         0.0752
      10    C4      20.069425   19.694446   23.020108 C.3        1 MOL1        -0.1858
      11    H5      20.394708   19.396601   22.014097 H          1 MOL1         0.0752
      12    H6      19.009043   19.965622   22.942372 H          1 MOL1         0.0752
      13    C5      20.213545   18.500641   23.994030 C.3        1 MOL1        -0.1858
      14    H7      21.276123   18.264839   24.131151 H          1 MOL1         0.0752
      15    H8      19.831199   18.788827   24.982643 H          1 MOL1         0.0752
      16    C6      19.500206   17.207827   23.523653 C.3        1 MOL1        -0.1858
      17    H9      19.717383   16.423918   24.262025 H          1 MOL1         0.0752
      18    H10     19.940180   16.857778   22.579834 H          1 MOL1         0.0752
      19    C7      17.961638   17.327385   23.386844 C.3        1 MOL1        -0.1834
      20    H11     17.504678   16.385292   23.719933 H          1 MOL1         0.0752
      21    H12     17.578230   18.106825   24.059678 H          1 MOL1         0.0752
      22    C8      17.499733   17.595730   21.937051 C.3        1 MOL1        -0.2849
      23    H13     17.811540   16.780459   21.271325 H          1 MOL1         0.0764
      24    H14     16.405483   17.667673   21.889651 H          1 MOL1         0.0764
      25    H15     17.914414   18.530504   21.542898 H          1 MOL1         0.0764
@<TRIPOS>BOND
    1     1     2    1
    2     1     3    2
    3     1     4    1
    4     4     5    1
    5     4     6    1
    6     4     7    1
    7     7     8    1
    8     7     9    1
    9     7    10    1
   10    10    11    1
   11    10    12    1
   12    10    13    1
   13    13    14    1
   14    13    15    1
   15    13    16    1
   16    16    17    1
   17    16    18    1
   18    16    19    1
   19    19    20    1
   20    19    21    1
   21    19    22    1
   22    22    23    1
   23    22    24    1
   24    22    25    1
@<TRIPOS>SUBSTRUCTURE
       1 MOL1            1 RESIDUE      1      MOL     
@<SCITEGIC>MOL_PROPERTY
VConf Rank
SciTegic.value.IntegerValue
333

@<SCITEGIC>MOL_PROPERTY
Conf_Id
SciTegic.value.IntegerValue
20

@<SCITEGIC>MOL_PROPERTY
Delta U+W
SciTegic.value.DoubleValue
3.224

@<SCITEGIC>MOL_PROPERTY
U+W
SciTegic.value.DoubleValue
-48.406

@<SCITEGIC>MOL_PROPERTY
Grad RMS
SciTegic.value.DoubleValue
0.000000

@<SCITEGIC>MOL_PROPERTY
U
SciTegic.value.DoubleValue
10.617

@<SCITEGIC>MOL_PROPERTY
W
SciTegic.value.DoubleValue
-59.023

@<SCITEGIC>MOL_PROPERTY
W(PB)
SciTegic.value.DoubleValue
-61.467

@<SCITEGIC>MOL_PROPERTY
W(SA)
SciTegic.value.DoubleValue
2.444

@<SCITEGIC>MOL_PROPERTY
Valence
SciTegic.value.DoubleValue
11.188

@<SCITEGIC>MOL_PROPERTY
Coulomb
SciTegic.value.DoubleValue
-1.778

@<SCITEGIC>MOL_PROPERTY
VdW
SciTegic.value.DoubleValue
1.208

@<SCITEGIC>MOL_PROPERTY
VdW6
SciTegic.value.DoubleValue
-9.786

@<SCITEGIC>MOL_PROPERTY
VdW12
SciTegic.value.DoubleValue
10.993

@<SCITEGIC>MOL_PROPERTY
Bond
SciTegic.value.DoubleValue
0.241

@<SCITEGIC>MOL_PROPERTY
Angle
SciTegic.value.DoubleValue
3.294

@<SCITEGIC>MOL_PROPERTY
Pdih
SciTegic.value.DoubleValue
7.653

@<SCITEGIC>MOL_PROPERTY
Idih
SciTegic.value.DoubleValue
0.001

@<SCITEGIC>MOL_PROPERTY
Tether
SciTegic.value.DoubleValue
0.000

@<TRIPOS>MOLECULE
guest-8_confgen4.mol2 : confsearch ligand conformer 334
          25          24           1
SMALL
USER_CHARGES
 
@<TRIPOS>ATOM
       1    C1      20.470591   22.417353   23.655336 C.2        1 MOL1         0.6168
       2    O1      20.235609   22.836315   22.538689 O.co2      1 MOL1        -0.6703
       3    O2      21.594065   22.219654   24.074785 O.co2      1 MOL1        -0.6703
       4    C2      19.296873   22.189246   24.605990 C.3        1 MOL1        -0.1963
       5    H1      18.834762   23.170272   24.765706 H          1 MOL1         0.0750
       6    H2      19.684199   21.862713   25.578689 H          1 MOL1         0.0750
       7    C3      18.213908   21.196796   24.096737 C.3        1 MOL1        -0.1860
       8    H3      17.287850   21.389759   24.654960 H          1 MOL1         0.0752
       9    H4      17.980438   21.405343   23.043365 H          1 MOL1         0.0752
      10    C4      18.569050   19.699803   24.275541 C.3        1 MOL1        -0.1858
      11    H5      17.679574   19.105252   24.025893 H          1 MOL1         0.0752
      12    H6      18.789826   19.495832   25.332181 H          1 MOL1         0.0752
      13    C5      19.747786   19.222455   23.397276 C.3        1 MOL1        -0.1858
      14    H7      19.574502   19.519784   22.353909 H          1 MOL1         0.0752
      15    H8      20.675491   19.710857   23.721052 H          1 MOL1         0.0752
      16    C6      19.934741   17.691583   23.475035 C.3        1 MOL1        -0.1858
      17    H9      19.014116   17.191176   23.144868 H          1 MOL1         0.0752
      18    H10     20.103056   17.395644   24.519603 H          1 MOL1         0.0752
      19    C7      21.118646   17.215258   22.607361 C.3        1 MOL1        -0.1834
      20    H11     20.952939   17.509095   21.561579 H          1 MOL1         0.0752
      21    H12     22.041886   17.712564   22.935872 H          1 MOL1         0.0752
      22    C8      21.303246   15.686472   22.687397 C.3        1 MOL1        -0.2849
      23    H13     20.404846   15.163347   22.334428 H          1 MOL1         0.0764
      24    H14     22.148707   15.365760   22.064980 H          1 MOL1         0.0764
      25    H15     21.502105   15.368391   23.719217 H          1 MOL1         0.0764
@<TRIPOS>BOND
    1     1     2    1
    2     1     3    2
    3     1     4    1
    4     4     5    1
    5     4     6    1
    6     4     7    1
    7     7     8    1
    8     7     9    1
    9     7    10    1
   10    10    11    1
   11    10    12    1
   12    10    13    1
   13    13    14    1
   14    13    15    1
   15    13    16    1
   16    16    17    1
   17    16    18    1
   18    16    19    1
   19    19    20    1
   20    19    21    1
   21    19    22    1
   22    22    23    1
   23    22    24    1
   24    22    25    1
@<TRIPOS>SUBSTRUCTURE
       1 MOL1            1 RESIDUE      1      MOL     
@<SCITEGIC>MOL_PROPERTY
VConf Rank
SciTegic.value.IntegerValue
334

@<SCITEGIC>MOL_PROPERTY
Conf_Id
SciTegic.value.IntegerValue
24

@<SCITEGIC>MOL_PROPERTY
Delta U+W
SciTegic.value.DoubleValue
1.784

@<SCITEGIC>MOL_PROPERTY
U+W
SciTegic.value.DoubleValue
-49.846

@<SCITEGIC>MOL_PROPERTY
Grad RMS
SciTegic.value.DoubleValue
0.000000

@<SCITEGIC>MOL_PROPERTY
U
SciTegic.value.DoubleValue
10.904

@<SCITEGIC>MOL_PROPERTY
W
SciTegic.value.DoubleValue
-60.749

@<SCITEGIC>MOL_PROPERTY
W(PB)
SciTegic.value.DoubleValue
-63.220

@<SCITEGIC>MOL_PROPERTY
W(SA)
SciTegic.value.DoubleValue
2.471

@<SCITEGIC>MOL_PROPERTY
Valence
SciTegic.value.DoubleValue
9.445

@<SCITEGIC>MOL_PROPERTY
Coulomb
SciTegic.value.DoubleValue
0.780

@<SCITEGIC>MOL_PROPERTY
VdW
SciTegic.value.DoubleValue
0.679

@<SCITEGIC>MOL_PROPERTY
VdW6
SciTegic.value.DoubleValue
-10.008

@<SCITEGIC>MOL_PROPERTY
VdW12
SciTegic.value.DoubleValue
10.687

@<SCITEGIC>MOL_PROPERTY
Bond
SciTegic.value.DoubleValue
0.201

@<SCITEGIC>MOL_PROPERTY
Angle
SciTegic.value.DoubleValue
3.198

@<SCITEGIC>MOL_PROPERTY
Pdih
SciTegic.value.DoubleValue
6.039

@<SCITEGIC>MOL_PROPERTY
Idih
SciTegic.value.DoubleValue
0.006

@<SCITEGIC>MOL_PROPERTY
Tether
SciTegic.value.DoubleValue
0.000

@<TRIPOS>MOLECULE
guest-8_confgen4.mol2 : confsearch ligand conformer 335
          25          24           1
SMALL
USER_CHARGES
 
@<TRIPOS>ATOM
       1    C1      21.237584   17.166066   21.180267 C.2        1 MOL1         0.6168
       2    O1      22.443310   17.318955   21.158075 O.co2      1 MOL1        -0.6703
       3    O2      20.694352   16.186779   21.652614 O.co2      1 MOL1        -0.6703
       4    C2      20.359855   18.228154   20.520760 C.3        1 MOL1        -0.1963
       5    H1      19.311136   17.913577   20.584139 H          1 MOL1         0.0750
       6    H2      20.623502   18.228331   19.456825 H          1 MOL1         0.0750
       7    C3      20.525215   19.668104   21.083167 C.3        1 MOL1        -0.1860
       8    H3      21.591684   19.899649   21.212106 H          1 MOL1         0.0752
       9    H4      20.152851   20.372300   20.326939 H          1 MOL1         0.0752
      10    C4      19.759157   19.942780   22.401041 C.3        1 MOL1        -0.1858
      11    H5      18.692308   19.720852   22.261695 H          1 MOL1         0.0752
      12    H6      19.824947   21.017966   22.616983 H          1 MOL1         0.0752
      13    C5      20.298023   19.158001   23.618567 C.3        1 MOL1        -0.1858
      14    H7      20.120312   18.084342   23.478267 H          1 MOL1         0.0752
      15    H8      21.385119   19.297145   23.695421 H          1 MOL1         0.0752
      16    C6      19.624229   19.609204   24.932717 C.3        1 MOL1        -0.1858
      17    H9      18.536920   19.473913   24.852180 H          1 MOL1         0.0752
      18    H10     19.802720   20.682002   25.088317 H          1 MOL1         0.0752
      19    C7      20.153318   18.818220   26.147534 C.3        1 MOL1        -0.1834
      20    H11     19.974873   17.744500   25.996252 H          1 MOL1         0.0752
      21    H12     21.240762   18.952045   26.231292 H          1 MOL1         0.0752
      22    C8      19.478515   19.270569   27.458140 C.3        1 MOL1        -0.2849
      23    H13     18.392179   19.118070   27.413501 H          1 MOL1         0.0764
      24    H14     19.866375   18.697970   28.310641 H          1 MOL1         0.0764
      25    H15     19.667759   20.334808   27.650378 H          1 MOL1         0.0764
@<TRIPOS>BOND
    1     1     2    1
    2     1     3    2
    3     1     4    1
    4     4     5    1
    5     4     6    1
    6     4     7    1
    7     7     8    1
    8     7     9    1
    9     7    10    1
   10    10    11    1
   11    10    12    1
   12    10    13    1
   13    13    14    1
   14    13    15    1
   15    13    16    1
   16    16    17    1
   17    16    18    1
   18    16    19    1
   19    19    20    1
   20    19    21    1
   21    19    22    1
   22    22    23    1
   23    22    24    1
   24    22    25    1
@<TRIPOS>SUBSTRUCTURE
       1 MOL1            1 RESIDUE      1      MOL     
@<SCITEGIC>MOL_PROPERTY
VConf Rank
SciTegic.value.IntegerValue
335

@<SCITEGIC>MOL_PROPERTY
Conf_Id
SciTegic.value.IntegerValue
9

@<SCITEGIC>MOL_PROPERTY
Delta U+W
SciTegic.value.DoubleValue
1.764

@<SCITEGIC>MOL_PROPERTY
U+W
SciTegic.value.DoubleValue
-49.865

@<SCITEGIC>MOL_PROPERTY
Grad RMS
SciTegic.value.DoubleValue
0.000000

@<SCITEGIC>MOL_PROPERTY
U
SciTegic.value.DoubleValue
10.902

@<SCITEGIC>MOL_PROPERTY
W
SciTegic.value.DoubleValue
-60.768

@<SCITEGIC>MOL_PROPERTY
W(PB)
SciTegic.value.DoubleValue
-63.223

@<SCITEGIC>MOL_PROPERTY
W(SA)
SciTegic.value.DoubleValue
2.456

@<SCITEGIC>MOL_PROPERTY
Valence
SciTegic.value.DoubleValue
9.445

@<SCITEGIC>MOL_PROPERTY
Coulomb
SciTegic.value.DoubleValue
0.778

@<SCITEGIC>MOL_PROPERTY
VdW
SciTegic.value.DoubleValue
0.679

@<SCITEGIC>MOL_PROPERTY
VdW6
SciTegic.value.DoubleValue
-10.007

@<SCITEGIC>MOL_PROPERTY
VdW12
SciTegic.value.DoubleValue
10.687

@<SCITEGIC>MOL_PROPERTY
Bond
SciTegic.value.DoubleValue
0.201

@<SCITEGIC>MOL_PROPERTY
Angle
SciTegic.value.DoubleValue
3.198

@<SCITEGIC>MOL_PROPERTY
Pdih
SciTegic.value.DoubleValue
6.040

@<SCITEGIC>MOL_PROPERTY
Idih
SciTegic.value.DoubleValue
0.006

@<SCITEGIC>MOL_PROPERTY
Tether
SciTegic.value.DoubleValue
0.000

@<TRIPOS>MOLECULE
guest-8_confgen4.mol2 : confsearch ligand conformer 336
          25          24           1
SMALL
USER_CHARGES
 
@<TRIPOS>ATOM
       1    C1      19.525466   20.467101   26.828373 C.2        1 MOL1         0.6168
       2    O1      20.561188   19.953751   27.203015 O.co2      1 MOL1        -0.6703
       3    O2      18.939172   21.331414   27.449718 O.co2      1 MOL1        -0.6703
       4    C2      18.939564   20.016702   25.495115 C.3        1 MOL1        -0.1963
       5    H1      17.847390   20.082306   25.566607 H          1 MOL1         0.0750
       6    H2      19.187383   18.959325   25.360938 H          1 MOL1         0.0750
       7    C3      19.446196   20.866679   24.299912 C.3        1 MOL1        -0.1860
       8    H3      19.163970   21.912265   24.485753 H          1 MOL1         0.0752
       9    H4      20.544208   20.849039   24.261525 H          1 MOL1         0.0752
      10    C4      18.854656   20.429212   22.935730 C.3        1 MOL1        -0.1858
      11    H5      18.710474   21.328978   22.322093 H          1 MOL1         0.0752
      12    H6      17.853246   19.999335   23.074377 H          1 MOL1         0.0752
      13    C5      19.746545   19.453583   22.127372 C.3        1 MOL1        -0.1858
      14    H7      19.272153   19.280548   21.151893 H          1 MOL1         0.0752
      15    H8      20.710409   19.937128   21.921033 H          1 MOL1         0.0752
      16    C6      19.984719   18.090069   22.818223 C.3        1 MOL1        -0.1858
      17    H9      19.021595   17.686328   23.158488 H          1 MOL1         0.0752
      18    H10     20.605468   18.230631   23.712741 H          1 MOL1         0.0752
      19    C7      20.658783   17.046946   21.896776 C.3        1 MOL1        -0.1834
      20    H11     20.702017   16.084737   22.425406 H          1 MOL1         0.0752
      21    H12     20.038211   16.883240   21.004967 H          1 MOL1         0.0752
      22    C8      22.087990   17.445150   21.468840 C.3        1 MOL1        -0.2849
      23    H13     22.720565   17.638677   22.344934 H          1 MOL1         0.0764
      24    H14     22.553427   16.639165   20.886942 H          1 MOL1         0.0764
      25    H15     22.081558   18.346300   20.842932 H          1 MOL1         0.0764
@<TRIPOS>BOND
    1     1     2    1
    2     1     3    2
    3     1     4    1
    4     4     5    1
    5     4     6    1
    6     4     7    1
    7     7     8    1
    8     7     9    1
    9     7    10    1
   10    10    11    1
   11    10    12    1
   12    10    13    1
   13    13    14    1
   14    13    15    1
   15    13    16    1
   16    16    17    1
   17    16    18    1
   18    16    19    1
   19    19    20    1
   20    19    21    1
   21    19    22    1
   22    22    23    1
   23    22    24    1
   24    22    25    1
@<TRIPOS>SUBSTRUCTURE
       1 MOL1            1 RESIDUE      1      MOL     
@<SCITEGIC>MOL_PROPERTY
VConf Rank
SciTegic.value.IntegerValue
336

@<SCITEGIC>MOL_PROPERTY
Conf_Id
SciTegic.value.IntegerValue
89

@<SCITEGIC>MOL_PROPERTY
Delta U+W
SciTegic.value.DoubleValue
2.903

@<SCITEGIC>MOL_PROPERTY
U+W
SciTegic.value.DoubleValue
-48.726

@<SCITEGIC>MOL_PROPERTY
Grad RMS
SciTegic.value.DoubleValue
0.000000

@<SCITEGIC>MOL_PROPERTY
U
SciTegic.value.DoubleValue
10.996

@<SCITEGIC>MOL_PROPERTY
W
SciTegic.value.DoubleValue
-59.723

@<SCITEGIC>MOL_PROPERTY
W(PB)
SciTegic.value.DoubleValue
-62.151

@<SCITEGIC>MOL_PROPERTY
W(SA)
SciTegic.value.DoubleValue
2.428

@<SCITEGIC>MOL_PROPERTY
Valence
SciTegic.value.DoubleValue
10.985

@<SCITEGIC>MOL_PROPERTY
Coulomb
SciTegic.value.DoubleValue
-0.995

@<SCITEGIC>MOL_PROPERTY
VdW
SciTegic.value.DoubleValue
1.006

@<SCITEGIC>MOL_PROPERTY
VdW6
SciTegic.value.DoubleValue
-10.062

@<SCITEGIC>MOL_PROPERTY
VdW12
SciTegic.value.DoubleValue
11.069

@<SCITEGIC>MOL_PROPERTY
Bond
SciTegic.value.DoubleValue
0.238

@<SCITEGIC>MOL_PROPERTY
Angle
SciTegic.value.DoubleValue
3.202

@<SCITEGIC>MOL_PROPERTY
Pdih
SciTegic.value.DoubleValue
7.544

@<SCITEGIC>MOL_PROPERTY
Idih
SciTegic.value.DoubleValue
0.001

@<SCITEGIC>MOL_PROPERTY
Tether
SciTegic.value.DoubleValue
0.000

@<TRIPOS>MOLECULE
guest-8_confgen4.mol2 : confsearch ligand conformer 337
          25          24           1
SMALL
USER_CHARGES
 
@<TRIPOS>ATOM
       1    C1      18.800345   21.397960   21.295330 C.2        1 MOL1         0.6168
       2    O1      18.480032   20.659010   20.385048 O.co2      1 MOL1        -0.6703
       3    O2      18.002768   22.043010   21.947549 O.co2      1 MOL1        -0.6703
       4    C2      20.288761   21.572729   21.590830 C.3        1 MOL1        -0.1963
       5    H1      20.524889   22.620043   21.369796 H          1 MOL1         0.0750
       6    H2      20.866776   20.965150   20.884066 H          1 MOL1         0.0750
       7    C3      20.717601   21.255400   23.051303 C.3        1 MOL1        -0.1860
       8    H3      21.670510   21.767275   23.242065 H          1 MOL1         0.0752
       9    H4      19.995841   21.689386   23.757201 H          1 MOL1         0.0752
      10    C4      20.922683   19.750989   23.358914 C.3        1 MOL1        -0.1858
      11    H5      21.382736   19.674850   24.351925 H          1 MOL1         0.0752
      12    H6      21.645203   19.324214   22.650126 H          1 MOL1         0.0752
      13    C5      19.617232   18.919364   23.334771 C.3        1 MOL1        -0.1858
      14    H7      18.869775   19.377743   23.996561 H          1 MOL1         0.0752
      15    H8      19.193588   18.941371   22.323397 H          1 MOL1         0.0752
      16    C6      19.821589   17.436472   23.728018 C.3        1 MOL1        -0.1858
      17    H9      20.592749   16.988171   23.086796 H          1 MOL1         0.0752
      18    H10     18.890341   16.892313   23.519279 H          1 MOL1         0.0752
      19    C7      20.193814   17.233841   25.214567 C.3        1 MOL1        -0.1834
      20    H11     21.164246   17.698976   25.430536 H          1 MOL1         0.0752
      21    H12     19.450713   17.730610   25.853480 H          1 MOL1         0.0752
      22    C8      20.264435   15.737426   25.580424 C.3        1 MOL1        -0.2849
      23    H13     21.019968   15.220566   24.974294 H          1 MOL1         0.0764
      24    H14     20.532471   15.609878   26.637277 H          1 MOL1         0.0764
      25    H15     19.296830   15.245845   25.414801 H          1 MOL1         0.0764
@<TRIPOS>BOND
    1     1     2    1
    2     1     3    2
    3     1     4    1
    4     4     5    1
    5     4     6    1
    6     4     7    1
    7     7     8    1
    8     7     9    1
    9     7    10    1
   10    10    11    1
   11    10    12    1
   12    10    13    1
   13    13    14    1
   14    13    15    1
   15    13    16    1
   16    16    17    1
   17    16    18    1
   18    16    19    1
   19    19    20    1
   20    19    21    1
   21    19    22    1
   22    22    23    1
   23    22    24    1
   24    22    25    1
@<TRIPOS>SUBSTRUCTURE
       1 MOL1            1 RESIDUE      1      MOL     
@<SCITEGIC>MOL_PROPERTY
VConf Rank
SciTegic.value.IntegerValue
337

@<SCITEGIC>MOL_PROPERTY
Conf_Id
SciTegic.value.IntegerValue
114

@<SCITEGIC>MOL_PROPERTY
Delta U+W
SciTegic.value.DoubleValue
2.758

@<SCITEGIC>MOL_PROPERTY
U+W
SciTegic.value.DoubleValue
-48.871

@<SCITEGIC>MOL_PROPERTY
Grad RMS
SciTegic.value.DoubleValue
0.000000

@<SCITEGIC>MOL_PROPERTY
U
SciTegic.value.DoubleValue
11.422

@<SCITEGIC>MOL_PROPERTY
W
SciTegic.value.DoubleValue
-60.293

@<SCITEGIC>MOL_PROPERTY
W(PB)
SciTegic.value.DoubleValue
-62.719

@<SCITEGIC>MOL_PROPERTY
W(SA)
SciTegic.value.DoubleValue
2.425

@<SCITEGIC>MOL_PROPERTY
Valence
SciTegic.value.DoubleValue
10.135

@<SCITEGIC>MOL_PROPERTY
Coulomb
SciTegic.value.DoubleValue
0.369

@<SCITEGIC>MOL_PROPERTY
VdW
SciTegic.value.DoubleValue
0.918

@<SCITEGIC>MOL_PROPERTY
VdW6
SciTegic.value.DoubleValue
-10.482

@<SCITEGIC>MOL_PROPERTY
VdW12
SciTegic.value.DoubleValue
11.400

@<SCITEGIC>MOL_PROPERTY
Bond
SciTegic.value.DoubleValue
0.245

@<SCITEGIC>MOL_PROPERTY
Angle
SciTegic.value.DoubleValue
3.539

@<SCITEGIC>MOL_PROPERTY
Pdih
SciTegic.value.DoubleValue
6.346

@<SCITEGIC>MOL_PROPERTY
Idih
SciTegic.value.DoubleValue
0.006

@<SCITEGIC>MOL_PROPERTY
Tether
SciTegic.value.DoubleValue
0.000

@<TRIPOS>MOLECULE
guest-8_confgen4.mol2 : confsearch ligand conformer 338
          25          24           1
SMALL
USER_CHARGES
 
@<TRIPOS>ATOM
       1    C1      20.558717   15.600954   21.853587 C.2        1 MOL1         0.6168
       2    O1      21.365329   15.722030   20.952599 O.co2      1 MOL1        -0.6703
       3    O2      20.730655   14.882199   22.818433 O.co2      1 MOL1        -0.6703
       4    C2      19.248233   16.377393   21.760189 C.3        1 MOL1        -0.1963
       5    H1      18.437836   15.686329   22.020313 H          1 MOL1         0.0750
       6    H2      19.090260   16.673022   20.715955 H          1 MOL1         0.0750
       7    C3      19.186197   17.620511   22.685276 C.3        1 MOL1        -0.1860
       8    H3      18.171525   18.039536   22.651996 H          1 MOL1         0.0752
       9    H4      19.364727   17.301417   23.720474 H          1 MOL1         0.0752
      10    C4      20.203877   18.712837   22.277348 C.3        1 MOL1        -0.1858
      11    H5      20.066405   18.946956   21.212861 H          1 MOL1         0.0752
      12    H6      21.227555   18.326690   22.378721 H          1 MOL1         0.0752
      13    C5      20.064474   20.023114   23.088783 C.3        1 MOL1        -0.1858
      14    H7      20.719957   20.775461   22.632165 H          1 MOL1         0.0752
      15    H8      19.039132   20.406107   22.996514 H          1 MOL1         0.0752
      16    C6      20.430551   19.863314   24.585109 C.3        1 MOL1        -0.1858
      17    H9      21.454734   19.476863   24.676684 H          1 MOL1         0.0752
      18    H10     19.772898   19.114452   25.044198 H          1 MOL1         0.0752
      19    C7      20.298316   21.175304   25.393585 C.3        1 MOL1        -0.1834
      20    H11     19.278031   21.570963   25.294781 H          1 MOL1         0.0752
      21    H12     20.440243   20.947086   26.458955 H          1 MOL1         0.0752
      22    C8      21.318898   22.257820   24.979486 C.3        1 MOL1        -0.2849
      23    H13     21.246432   23.127641   25.645116 H          1 MOL1         0.0764
      24    H14     22.345341   21.872893   25.037439 H          1 MOL1         0.0764
      25    H15     21.139490   22.608628   23.955692 H          1 MOL1         0.0764
@<TRIPOS>BOND
    1     1     2    1
    2     1     3    2
    3     1     4    1
    4     4     5    1
    5     4     6    1
    6     4     7    1
    7     7     8    1
    8     7     9    1
    9     7    10    1
   10    10    11    1
   11    10    12    1
   12    10    13    1
   13    13    14    1
   14    13    15    1
   15    13    16    1
   16    16    17    1
   17    16    18    1
   18    16    19    1
   19    19    20    1
   20    19    21    1
   21    19    22    1
   22    22    23    1
   23    22    24    1
   24    22    25    1
@<TRIPOS>SUBSTRUCTURE
       1 MOL1            1 RESIDUE      1      MOL     
@<SCITEGIC>MOL_PROPERTY
VConf Rank
SciTegic.value.IntegerValue
338

@<SCITEGIC>MOL_PROPERTY
Conf_Id
SciTegic.value.IntegerValue
87

@<SCITEGIC>MOL_PROPERTY
Delta U+W
SciTegic.value.DoubleValue
1.453

@<SCITEGIC>MOL_PROPERTY
U+W
SciTegic.value.DoubleValue
-50.176

@<SCITEGIC>MOL_PROPERTY
Grad RMS
SciTegic.value.DoubleValue
0.000000

@<SCITEGIC>MOL_PROPERTY
U
SciTegic.value.DoubleValue
9.763

@<SCITEGIC>MOL_PROPERTY
W
SciTegic.value.DoubleValue
-59.940

@<SCITEGIC>MOL_PROPERTY
W(PB)
SciTegic.value.DoubleValue
-62.392

@<SCITEGIC>MOL_PROPERTY
W(SA)
SciTegic.value.DoubleValue
2.452

@<SCITEGIC>MOL_PROPERTY
Valence
SciTegic.value.DoubleValue
8.883

@<SCITEGIC>MOL_PROPERTY
Coulomb
SciTegic.value.DoubleValue
-0.122

@<SCITEGIC>MOL_PROPERTY
VdW
SciTegic.value.DoubleValue
1.003

@<SCITEGIC>MOL_PROPERTY
VdW6
SciTegic.value.DoubleValue
-9.782

@<SCITEGIC>MOL_PROPERTY
VdW12
SciTegic.value.DoubleValue
10.785

@<SCITEGIC>MOL_PROPERTY
Bond
SciTegic.value.DoubleValue
0.212

@<SCITEGIC>MOL_PROPERTY
Angle
SciTegic.value.DoubleValue
2.940

@<SCITEGIC>MOL_PROPERTY
Pdih
SciTegic.value.DoubleValue
5.730

@<SCITEGIC>MOL_PROPERTY
Idih
SciTegic.value.DoubleValue
0.001

@<SCITEGIC>MOL_PROPERTY
Tether
SciTegic.value.DoubleValue
0.000

@<TRIPOS>MOLECULE
guest-8_confgen4.mol2 : confsearch ligand conformer 339
          25          24           1
SMALL
USER_CHARGES
 
@<TRIPOS>ATOM
       1    C1      19.554042   22.884236   22.283393 C.2        1 MOL1         0.6168
       2    O1      19.726349   23.464333   23.337187 O.co2      1 MOL1        -0.6703
       3    O2      19.842471   23.354852   21.200770 O.co2      1 MOL1        -0.6703
       4    C2      18.959998   21.480769   22.322900 C.3        1 MOL1        -0.1963
       5    H1      18.360768   21.338909   21.415551 H          1 MOL1         0.0750
       6    H2      18.274278   21.424913   23.176857 H          1 MOL1         0.0750
       7    C3      20.038020   20.374364   22.431003 C.3        1 MOL1        -0.1860
       8    H3      20.721934   20.447984   21.574275 H          1 MOL1         0.0752
       9    H4      20.636535   20.548943   23.334932 H          1 MOL1         0.0752
      10    C4      19.408754   18.962771   22.476359 C.3        1 MOL1        -0.1858
      11    H5      18.759249   18.832761   21.600081 H          1 MOL1         0.0752
      12    H6      18.755998   18.874856   23.354758 H          1 MOL1         0.0752
      13    C5      20.455775   17.820816   22.481100 C.3        1 MOL1        -0.1858
      14    H7      19.929802   16.857501   22.453603 H          1 MOL1         0.0752
      15    H8      21.036055   17.868655   21.549726 H          1 MOL1         0.0752
      16    C6      21.441774   17.830592   23.679237 C.3        1 MOL1        -0.1858
      17    H9      22.083700   18.718842   23.614365 H          1 MOL1         0.0752
      18    H10     22.117082   16.969631   23.583358 H          1 MOL1         0.0752
      19    C7      20.779601   17.791103   25.078558 C.3        1 MOL1        -0.1834
      20    H11     21.569648   17.827550   25.841055 H          1 MOL1         0.0752
      21    H12     20.167495   18.689714   25.232370 H          1 MOL1         0.0752
      22    C8      19.921243   16.529056   25.312014 C.3        1 MOL1        -0.2849
      23    H13     20.510232   15.617528   25.147264 H          1 MOL1         0.0764
      24    H14     19.543080   16.506561   26.342166 H          1 MOL1         0.0764
      25    H15     19.055126   16.506133   24.638766 H          1 MOL1         0.0764
@<TRIPOS>BOND
    1     1     2    1
    2     1     3    2
    3     1     4    1
    4     4     5    1
    5     4     6    1
    6     4     7    1
    7     7     8    1
    8     7     9    1
    9     7    10    1
   10    10    11    1
   11    10    12    1
   12    10    13    1
   13    13    14    1
   14    13    15    1
   15    13    16    1
   16    16    17    1
   17    16    18    1
   18    16    19    1
   19    19    20    1
   20    19    21    1
   21    19    22    1
   22    22    23    1
   23    22    24    1
   24    22    25    1
@<TRIPOS>SUBSTRUCTURE
       1 MOL1            1 RESIDUE      1      MOL     
@<SCITEGIC>MOL_PROPERTY
VConf Rank
SciTegic.value.IntegerValue
339

@<SCITEGIC>MOL_PROPERTY
Conf_Id
SciTegic.value.IntegerValue
29

@<SCITEGIC>MOL_PROPERTY
Delta U+W
SciTegic.value.DoubleValue
0.850

@<SCITEGIC>MOL_PROPERTY
U+W
SciTegic.value.DoubleValue
-50.780

@<SCITEGIC>MOL_PROPERTY
Grad RMS
SciTegic.value.DoubleValue
0.000000

@<SCITEGIC>MOL_PROPERTY
U
SciTegic.value.DoubleValue
8.646

@<SCITEGIC>MOL_PROPERTY
W
SciTegic.value.DoubleValue
-59.426

@<SCITEGIC>MOL_PROPERTY
W(PB)
SciTegic.value.DoubleValue
-61.868

@<SCITEGIC>MOL_PROPERTY
W(SA)
SciTegic.value.DoubleValue
2.442

@<SCITEGIC>MOL_PROPERTY
Valence
SciTegic.value.DoubleValue
8.924

@<SCITEGIC>MOL_PROPERTY
Coulomb
SciTegic.value.DoubleValue
-1.171

@<SCITEGIC>MOL_PROPERTY
VdW
SciTegic.value.DoubleValue
0.894

@<SCITEGIC>MOL_PROPERTY
VdW6
SciTegic.value.DoubleValue
-10.223

@<SCITEGIC>MOL_PROPERTY
VdW12
SciTegic.value.DoubleValue
11.117

@<SCITEGIC>MOL_PROPERTY
Bond
SciTegic.value.DoubleValue
0.231

@<SCITEGIC>MOL_PROPERTY
Angle
SciTegic.value.DoubleValue
3.232

@<SCITEGIC>MOL_PROPERTY
Pdih
SciTegic.value.DoubleValue
5.461

@<SCITEGIC>MOL_PROPERTY
Idih
SciTegic.value.DoubleValue
0.001

@<SCITEGIC>MOL_PROPERTY
Tether
SciTegic.value.DoubleValue
0.000

@<TRIPOS>MOLECULE
guest-8_confgen4.mol2 : confsearch ligand conformer 340
          25          24           1
SMALL
USER_CHARGES
 
@<TRIPOS>ATOM
       1    C1      23.064250   17.929361   21.168252 C.2        1 MOL1         0.6168
       2    O1      24.009716   18.303719   21.833559 O.co2      1 MOL1        -0.6703
       3    O2      23.081450   17.855944   19.955382 O.co2      1 MOL1        -0.6703
       4    C2      21.778840   17.548662   21.894174 C.3        1 MOL1        -0.1963
       5    H1      22.050238   17.129584   22.870540 H          1 MOL1         0.0750
       6    H2      21.288814   16.750858   21.323328 H          1 MOL1         0.0750
       7    C3      20.814260   18.746201   22.077048 C.3        1 MOL1        -0.1860
       8    H3      21.333164   19.538350   22.632947 H          1 MOL1         0.0752
       9    H4      20.558007   19.160500   21.092247 H          1 MOL1         0.0752
      10    C4      19.523325   18.334457   22.821755 C.3        1 MOL1        -0.1858
      11    H5      19.775225   17.957499   23.821682 H          1 MOL1         0.0752
      12    H6      19.055578   17.495440   22.288947 H          1 MOL1         0.0752
      13    C5      18.485513   19.479130   22.935817 C.3        1 MOL1        -0.1858
      14    H7      18.175102   19.777581   21.925350 H          1 MOL1         0.0752
      15    H8      17.580768   19.090279   23.421217 H          1 MOL1         0.0752
      16    C6      18.971519   20.741022   23.696901 C.3        1 MOL1        -0.1858
      17    H9      18.149031   21.468321   23.729131 H          1 MOL1         0.0752
      18    H10     19.772514   21.225368   23.123244 H          1 MOL1         0.0752
      19    C7      19.470535   20.488767   25.141022 C.3        1 MOL1        -0.1834
      20    H11     20.350985   19.832677   25.127313 H          1 MOL1         0.0752
      21    H12     19.809618   21.443320   25.566174 H          1 MOL1         0.0752
      22    C8      18.387994   19.889749   26.064775 C.3        1 MOL1        -0.2849
      23    H13     18.095047   18.884815   25.735783 H          1 MOL1         0.0764
      24    H14     18.762770   19.807546   27.093129 H          1 MOL1         0.0764
      25    H15     17.491157   20.522498   26.080506 H          1 MOL1         0.0764
@<TRIPOS>BOND
    1     1     2    1
    2     1     3    2
    3     1     4    1
    4     4     5    1
    5     4     6    1
    6     4     7    1
    7     7     8    1
    8     7     9    1
    9     7    10    1
   10    10    11    1
   11    10    12    1
   12    10    13    1
   13    13    14    1
   14    13    15    1
   15    13    16    1
   16    16    17    1
   17    16    18    1
   18    16    19    1
   19    19    20    1
   20    19    21    1
   21    19    22    1
   22    22    23    1
   23    22    24    1
   24    22    25    1
@<TRIPOS>SUBSTRUCTURE
       1 MOL1            1 RESIDUE      1      MOL     
@<SCITEGIC>MOL_PROPERTY
VConf Rank
SciTegic.value.IntegerValue
340

@<SCITEGIC>MOL_PROPERTY
Conf_Id
SciTegic.value.IntegerValue
30

@<SCITEGIC>MOL_PROPERTY
Delta U+W
SciTegic.value.DoubleValue
0.843

@<SCITEGIC>MOL_PROPERTY
U+W
SciTegic.value.DoubleValue
-50.787

@<SCITEGIC>MOL_PROPERTY
Grad RMS
SciTegic.value.DoubleValue
0.000000

@<SCITEGIC>MOL_PROPERTY
U
SciTegic.value.DoubleValue
8.647

@<SCITEGIC>MOL_PROPERTY
W
SciTegic.value.DoubleValue
-59.434

@<SCITEGIC>MOL_PROPERTY
W(PB)
SciTegic.value.DoubleValue
-61.861

@<SCITEGIC>MOL_PROPERTY
W(SA)
SciTegic.value.DoubleValue
2.428

@<SCITEGIC>MOL_PROPERTY
Valence
SciTegic.value.DoubleValue
8.924

@<SCITEGIC>MOL_PROPERTY
Coulomb
SciTegic.value.DoubleValue
-1.170

@<SCITEGIC>MOL_PROPERTY
VdW
SciTegic.value.DoubleValue
0.894

@<SCITEGIC>MOL_PROPERTY
VdW6
SciTegic.value.DoubleValue
-10.224

@<SCITEGIC>MOL_PROPERTY
VdW12
SciTegic.value.DoubleValue
11.118

@<SCITEGIC>MOL_PROPERTY
Bond
SciTegic.value.DoubleValue
0.231

@<SCITEGIC>MOL_PROPERTY
Angle
SciTegic.value.DoubleValue
3.232

@<SCITEGIC>MOL_PROPERTY
Pdih
SciTegic.value.DoubleValue
5.460

@<SCITEGIC>MOL_PROPERTY
Idih
SciTegic.value.DoubleValue
0.000

@<SCITEGIC>MOL_PROPERTY
Tether
SciTegic.value.DoubleValue
0.000

@<TRIPOS>MOLECULE
guest-8_confgen4.mol2 : confsearch ligand conformer 341
          25          24           1
SMALL
USER_CHARGES
 
@<TRIPOS>ATOM
       1    C1      23.848948   21.976883   23.241261 C.2        1 MOL1         0.6168
       2    O1      23.187615   22.997294   23.241946 O.co2      1 MOL1        -0.6703
       3    O2      25.063663   21.973119   23.265188 O.co2      1 MOL1        -0.6703
       4    C2      23.147299   20.618195   23.208799 C.3        1 MOL1        -0.1963
       5    H1      23.481133   20.056803   24.089311 H          1 MOL1         0.0750
       6    H2      23.515702   20.081050   22.326949 H          1 MOL1         0.0750
       7    C3      21.596687   20.674238   23.179164 C.3        1 MOL1        -0.1860
       8    H3      21.234718   21.219219   24.062046 H          1 MOL1         0.0752
       9    H4      21.269304   21.243436   22.298062 H          1 MOL1         0.0752
      10    C4      20.971405   19.262620   23.147522 C.3        1 MOL1        -0.1858
      11    H5      21.300111   18.695448   24.029227 H          1 MOL1         0.0752
      12    H6      21.334702   18.719690   22.264131 H          1 MOL1         0.0752
      13    C5      19.428925   19.320735   23.118094 C.3        1 MOL1        -0.1858
      14    H7      19.065337   19.863586   24.001394 H          1 MOL1         0.0752
      15    H8      19.099919   19.887815   22.236460 H          1 MOL1         0.0752
      16    C6      18.803082   17.909624   23.086461 C.3        1 MOL1        -0.1858
      17    H9      19.131918   17.342378   23.968046 H          1 MOL1         0.0752
      18    H10     19.166457   17.366623   22.203170 H          1 MOL1         0.0752
      19    C7      17.261285   17.967589   23.057087 C.3        1 MOL1        -0.1834
      20    H11     16.893997   18.508503   23.940263 H          1 MOL1         0.0752
      21    H12     16.928531   18.532739   22.175402 H          1 MOL1         0.0752
      22    C8      16.640174   16.556621   23.025559 C.3        1 MOL1        -0.2849
      23    H13     16.931310   15.979339   23.912905 H          1 MOL1         0.0764
      24    H14     15.544247   16.616682   23.004952 H          1 MOL1         0.0764
      25    H15     16.966083   16.003765   22.134755 H          1 MOL1         0.0764
@<TRIPOS>BOND
    1     1     2    1
    2     1     3    2
    3     1     4    1
    4     4     5    1
    5     4     6    1
    6     4     7    1
    7     7     8    1
    8     7     9    1
    9     7    10    1
   10    10    11    1
   11    10    12    1
   12    10    13    1
   13    13    14    1
   14    13    15    1
   15    13    16    1
   16    16    17    1
   17    16    18    1
   18    16    19    1
   19    19    20    1
   20    19    21    1
   21    19    22    1
   22    22    23    1
   23    22    24    1
   24    22    25    1
@<TRIPOS>SUBSTRUCTURE
       1 MOL1            1 RESIDUE      1      MOL     
@<SCITEGIC>MOL_PROPERTY
VConf Rank
SciTegic.value.IntegerValue
341

@<SCITEGIC>MOL_PROPERTY
Conf_Id
SciTegic.value.IntegerValue
0

@<SCITEGIC>MOL_PROPERTY
Delta U+W
SciTegic.value.DoubleValue
0.000

@<SCITEGIC>MOL_PROPERTY
U+W
SciTegic.value.DoubleValue
-51.629

@<SCITEGIC>MOL_PROPERTY
Grad RMS
SciTegic.value.DoubleValue
0.000000

@<SCITEGIC>MOL_PROPERTY
U
SciTegic.value.DoubleValue
6.586

@<SCITEGIC>MOL_PROPERTY
W
SciTegic.value.DoubleValue
-58.216

@<SCITEGIC>MOL_PROPERTY
W(PB)
SciTegic.value.DoubleValue
-60.757

@<SCITEGIC>MOL_PROPERTY
W(SA)
SciTegic.value.DoubleValue
2.541

@<SCITEGIC>MOL_PROPERTY
Valence
SciTegic.value.DoubleValue
8.027

@<SCITEGIC>MOL_PROPERTY
Coulomb
SciTegic.value.DoubleValue
-2.892

@<SCITEGIC>MOL_PROPERTY
VdW
SciTegic.value.DoubleValue
1.451

@<SCITEGIC>MOL_PROPERTY
VdW6
SciTegic.value.DoubleValue
-7.931

@<SCITEGIC>MOL_PROPERTY
VdW12
SciTegic.value.DoubleValue
9.383

@<SCITEGIC>MOL_PROPERTY
Bond
SciTegic.value.DoubleValue
0.149

@<SCITEGIC>MOL_PROPERTY
Angle
SciTegic.value.DoubleValue
2.726

@<SCITEGIC>MOL_PROPERTY
Pdih
SciTegic.value.DoubleValue
5.152

@<SCITEGIC>MOL_PROPERTY
Idih
SciTegic.value.DoubleValue
0.000

@<SCITEGIC>MOL_PROPERTY
Tether
SciTegic.value.DoubleValue
0.000

@<TRIPOS>MOLECULE
guest-8_confgen4.mol2 : confsearch ligand conformer 342
          25          24           1
SMALL
USER_CHARGES
 
@<TRIPOS>ATOM
       1    C1      18.560438   22.560399   20.352727 C.2        1 MOL1         0.6168
       2    O1      18.335375   23.610137   20.921953 O.co2      1 MOL1        -0.6703
       3    O2      18.948006   22.487166   19.203358 O.co2      1 MOL1        -0.6703
       4    C2      18.367864   21.263905   21.131251 C.3        1 MOL1        -0.1963
       5    H1      18.050920   20.486677   20.425512 H          1 MOL1         0.0750
       6    H2      17.545486   21.412014   21.841437 H          1 MOL1         0.0750
       7    C3      19.647269   20.816586   21.880284 C.3        1 MOL1        -0.1860
       8    H3      20.464139   20.685552   21.156995 H          1 MOL1         0.0752
       9    H4      19.958796   21.610946   22.572771 H          1 MOL1         0.0752
      10    C4      19.426923   19.502553   22.660531 C.3        1 MOL1        -0.1858
      11    H5      19.114559   18.710862   21.965667 H          1 MOL1         0.0752
      12    H6      18.608890   19.636465   23.381690 H          1 MOL1         0.0752
      13    C5      20.703918   19.059252   23.406343 C.3        1 MOL1        -0.1858
      14    H7      21.522062   18.925208   22.685387 H          1 MOL1         0.0752
      15    H8      21.016437   19.850785   24.101262 H          1 MOL1         0.0752
      16    C6      20.484309   17.745315   24.186867 C.3        1 MOL1        -0.1858
      17    H9      20.171875   16.953534   23.492199 H          1 MOL1         0.0752
      18    H10     19.666215   17.879045   24.907932 H          1 MOL1         0.0752
      19    C7      21.760624   17.302096   24.932480 C.3        1 MOL1        -0.1834
      20    H11     22.580809   17.165484   24.214065 H          1 MOL1         0.0752
      21    H12     22.075136   18.090965   25.629802 H          1 MOL1         0.0752
      22    C8      21.537261   15.989749   25.710590 C.3        1 MOL1        -0.2849
      23    H13     22.454171   15.689597   26.234301 H          1 MOL1         0.0764
      24    H14     20.742530   16.107160   26.458932 H          1 MOL1         0.0764
      25    H15     21.252010   15.174720   25.032536 H          1 MOL1         0.0764
@<TRIPOS>BOND
    1     1     2    1
    2     1     3    2
    3     1     4    1
    4     4     5    1
    5     4     6    1
    6     4     7    1
    7     7     8    1
    8     7     9    1
    9     7    10    1
   10    10    11    1
   11    10    12    1
   12    10    13    1
   13    13    14    1
   14    13    15    1
   15    13    16    1
   16    16    17    1
   17    16    18    1
   18    16    19    1
   19    19    20    1
   20    19    21    1
   21    19    22    1
   22    22    23    1
   23    22    24    1
   24    22    25    1
@<TRIPOS>SUBSTRUCTURE
       1 MOL1            1 RESIDUE      1      MOL     
@<SCITEGIC>MOL_PROPERTY
VConf Rank
SciTegic.value.IntegerValue
342

@<SCITEGIC>MOL_PROPERTY
Conf_Id
SciTegic.value.IntegerValue
27

@<SCITEGIC>MOL_PROPERTY
Delta U+W
SciTegic.value.DoubleValue
-1.297

@<SCITEGIC>MOL_PROPERTY
U+W
SciTegic.value.DoubleValue
-52.926

@<SCITEGIC>MOL_PROPERTY
Grad RMS
SciTegic.value.DoubleValue
0.000000

@<SCITEGIC>MOL_PROPERTY
U
SciTegic.value.DoubleValue
5.617

@<SCITEGIC>MOL_PROPERTY
W
SciTegic.value.DoubleValue
-58.543

@<SCITEGIC>MOL_PROPERTY
W(PB)
SciTegic.value.DoubleValue
-61.065

@<SCITEGIC>MOL_PROPERTY
W(SA)
SciTegic.value.DoubleValue
2.522

@<SCITEGIC>MOL_PROPERTY
Valence
SciTegic.value.DoubleValue
7.531

@<SCITEGIC>MOL_PROPERTY
Coulomb
SciTegic.value.DoubleValue
-2.818

@<SCITEGIC>MOL_PROPERTY
VdW
SciTegic.value.DoubleValue
0.904

@<SCITEGIC>MOL_PROPERTY
VdW6
SciTegic.value.DoubleValue
-7.640

@<SCITEGIC>MOL_PROPERTY
VdW12
SciTegic.value.DoubleValue
8.544

@<SCITEGIC>MOL_PROPERTY
Bond
SciTegic.value.DoubleValue
0.115

@<SCITEGIC>MOL_PROPERTY
Angle
SciTegic.value.DoubleValue
2.271

@<SCITEGIC>MOL_PROPERTY
Pdih
SciTegic.value.DoubleValue
5.144

@<SCITEGIC>MOL_PROPERTY
Idih
SciTegic.value.DoubleValue
0.001

@<SCITEGIC>MOL_PROPERTY
Tether
SciTegic.value.DoubleValue
0.000

@<TRIPOS>MOLECULE
guest-8_confgen4.mol2 : confsearch ligand conformer 343
          25          24           1
SMALL
USER_CHARGES
 
@<TRIPOS>ATOM
       1    C1      20.131387   21.061884   19.828734 C.2        1 MOL1         0.6168
       2    O1      21.146816   21.687029   19.593847 O.co2      1 MOL1        -0.6703
       3    O2      19.770686   20.097348   19.183344 O.co2      1 MOL1        -0.6703
       4    C2      19.253837   21.525686   20.987940 C.3        1 MOL1        -0.1963
       5    H1      18.249893   21.103847   20.857583 H          1 MOL1         0.0750
       6    H2      19.153514   22.614504   20.907967 H          1 MOL1         0.0750
       7    C3      19.811925   21.158048   22.387341 C.3        1 MOL1        -0.1860
       8    H3      20.827888   21.563672   22.492036 H          1 MOL1         0.0752
       9    H4      19.196378   21.645097   23.155738 H          1 MOL1         0.0752
      10    C4      19.828579   19.633485   22.638733 C.3        1 MOL1        -0.1858
      11    H5      20.456958   19.140630   21.883977 H          1 MOL1         0.0752
      12    H6      18.813363   19.230763   22.519666 H          1 MOL1         0.0752
      13    C5      20.357429   19.292186   24.048508 C.3        1 MOL1        -0.1858
      14    H7      21.372643   19.695274   24.166613 H          1 MOL1         0.0752
      15    H8      19.728737   19.781530   24.805031 H          1 MOL1         0.0752
      16    C6      20.375151   17.768949   24.300091 C.3        1 MOL1        -0.1858
      17    H9      21.003777   17.279434   23.543564 H          1 MOL1         0.0752
      18    H10     19.360082   17.365593   24.181682 H          1 MOL1         0.0752
      19    C7      20.904176   17.427276   25.708907 C.3        1 MOL1        -0.1834
      20    H11     21.920254   17.827710   25.830243 H          1 MOL1         0.0752
      21    H12     20.276503   17.913787   26.468389 H          1 MOL1         0.0752
      22    C8      20.920425   15.905345   25.956020 C.3        1 MOL1        -0.2849
      23    H13     21.566661   15.396228   25.228987 H          1 MOL1         0.0764
      24    H14     21.299044   15.680647   26.961624 H          1 MOL1         0.0764
      25    H15     19.910537   15.482920   25.871892 H          1 MOL1         0.0764
@<TRIPOS>BOND
    1     1     2    1
    2     1     3    2
    3     1     4    1
    4     4     5    1
    5     4     6    1
    6     4     7    1
    7     7     8    1
    8     7     9    1
    9     7    10    1
   10    10    11    1
   11    10    12    1
   12    10    13    1
   13    13    14    1
   14    13    15    1
   15    13    16    1
   16    16    17    1
   17    16    18    1
   18    16    19    1
   19    19    20    1
   20    19    21    1
   21    19    22    1
   22    22    23    1
   23    22    24    1
   24    22    25    1
@<TRIPOS>SUBSTRUCTURE
       1 MOL1            1 RESIDUE      1      MOL     
@<SCITEGIC>MOL_PROPERTY
VConf Rank
SciTegic.value.IntegerValue
343

@<SCITEGIC>MOL_PROPERTY
Conf_Id
SciTegic.value.IntegerValue
37

@<SCITEGIC>MOL_PROPERTY
Delta U+W
SciTegic.value.DoubleValue
-0.230

@<SCITEGIC>MOL_PROPERTY
U+W
SciTegic.value.DoubleValue
-51.860

@<SCITEGIC>MOL_PROPERTY
Grad RMS
SciTegic.value.DoubleValue
0.000000

@<SCITEGIC>MOL_PROPERTY
U
SciTegic.value.DoubleValue
7.816

@<SCITEGIC>MOL_PROPERTY
W
SciTegic.value.DoubleValue
-59.675

@<SCITEGIC>MOL_PROPERTY
W(PB)
SciTegic.value.DoubleValue
-62.180

@<SCITEGIC>MOL_PROPERTY
W(SA)
SciTegic.value.DoubleValue
2.505

@<SCITEGIC>MOL_PROPERTY
Valence
SciTegic.value.DoubleValue
7.785

@<SCITEGIC>MOL_PROPERTY
Coulomb
SciTegic.value.DoubleValue
-0.713

@<SCITEGIC>MOL_PROPERTY
VdW
SciTegic.value.DoubleValue
0.744

@<SCITEGIC>MOL_PROPERTY
VdW6
SciTegic.value.DoubleValue
-8.514

@<SCITEGIC>MOL_PROPERTY
VdW12
SciTegic.value.DoubleValue
9.259

@<SCITEGIC>MOL_PROPERTY
Bond
SciTegic.value.DoubleValue
0.136

@<SCITEGIC>MOL_PROPERTY
Angle
SciTegic.value.DoubleValue
2.433

@<SCITEGIC>MOL_PROPERTY
Pdih
SciTegic.value.DoubleValue
5.216

@<SCITEGIC>MOL_PROPERTY
Idih
SciTegic.value.DoubleValue
0.000

@<SCITEGIC>MOL_PROPERTY
Tether
SciTegic.value.DoubleValue
0.000

@<TRIPOS>MOLECULE
guest-8_confgen4.mol2 : confsearch ligand conformer 344
          25          24           1
SMALL
USER_CHARGES
 
@<TRIPOS>ATOM
       1    C1      16.555240   21.139596   22.249298 C.2        1 MOL1         0.6168
       2    O1      15.605214   20.835367   22.943538 O.co2      1 MOL1        -0.6703
       3    O2      16.653453   20.841377   21.075253 O.co2      1 MOL1        -0.6703
       4    C2      17.677895   21.954945   22.884767 C.3        1 MOL1        -0.1963
       5    H1      17.211000   22.762886   23.460286 H          1 MOL1         0.0750
       6    H2      18.260927   22.429704   22.086317 H          1 MOL1         0.0750
       7    C3      18.609448   21.130444   23.810700 C.3        1 MOL1        -0.1860
       8    H3      19.295192   21.815362   24.327606 H          1 MOL1         0.0752
       9    H4      18.007771   20.639053   24.587998 H          1 MOL1         0.0752
      10    C4      19.430916   20.073685   23.038548 C.3        1 MOL1        -0.1858
      11    H5      20.020245   20.568214   22.254229 H          1 MOL1         0.0752
      12    H6      18.751482   19.373882   22.532515 H          1 MOL1         0.0752
      13    C5      20.373799   19.286866   23.974238 C.3        1 MOL1        -0.1858
      14    H7      21.056134   19.984352   24.479183 H          1 MOL1         0.0752
      15    H8      19.783573   18.792620   24.758102 H          1 MOL1         0.0752
      16    C6      21.194431   18.230275   23.203501 C.3        1 MOL1        -0.1858
      17    H9      21.784518   18.724283   22.419387 H          1 MOL1         0.0752
      18    H10     20.512206   17.532754   22.698365 H          1 MOL1         0.0752
      19    C7      22.136588   17.443136   24.138443 C.3        1 MOL1        -0.1834
      20    H11     22.821760   18.137607   24.644138 H          1 MOL1         0.0752
      21    H12     21.549418   16.946004   24.923028 H          1 MOL1         0.0752
      22    C8      22.954145   16.389144   23.364943 C.3        1 MOL1        -0.2849
      23    H13     23.575601   16.862616   22.593573 H          1 MOL1         0.0764
      24    H14     23.618044   15.839260   24.044610 H          1 MOL1         0.0764
      25    H15     22.293653   15.662083   22.874502 H          1 MOL1         0.0764
@<TRIPOS>BOND
    1     1     2    1
    2     1     3    2
    3     1     4    1
    4     4     5    1
    5     4     6    1
    6     4     7    1
    7     7     8    1
    8     7     9    1
    9     7    10    1
   10    10    11    1
   11    10    12    1
   12    10    13    1
   13    13    14    1
   14    13    15    1
   15    13    16    1
   16    16    17    1
   17    16    18    1
   18    16    19    1
   19    19    20    1
   20    19    21    1
   21    19    22    1
   22    22    23    1
   23    22    24    1
   24    22    25    1
@<TRIPOS>SUBSTRUCTURE
       1 MOL1            1 RESIDUE      1      MOL     
@<SCITEGIC>MOL_PROPERTY
VConf Rank
SciTegic.value.IntegerValue
344

@<SCITEGIC>MOL_PROPERTY
Conf_Id
SciTegic.value.IntegerValue
54

@<SCITEGIC>MOL_PROPERTY
Delta U+W
SciTegic.value.DoubleValue
-0.224

@<SCITEGIC>MOL_PROPERTY
U+W
SciTegic.value.DoubleValue
-51.854

@<SCITEGIC>MOL_PROPERTY
Grad RMS
SciTegic.value.DoubleValue
0.000000

@<SCITEGIC>MOL_PROPERTY
U
SciTegic.value.DoubleValue
7.816

@<SCITEGIC>MOL_PROPERTY
W
SciTegic.value.DoubleValue
-59.670

@<SCITEGIC>MOL_PROPERTY
W(PB)
SciTegic.value.DoubleValue
-62.157

@<SCITEGIC>MOL_PROPERTY
W(SA)
SciTegic.value.DoubleValue
2.487

@<SCITEGIC>MOL_PROPERTY
Valence
SciTegic.value.DoubleValue
7.785

@<SCITEGIC>MOL_PROPERTY
Coulomb
SciTegic.value.DoubleValue
-0.713

@<SCITEGIC>MOL_PROPERTY
VdW
SciTegic.value.DoubleValue
0.744

@<SCITEGIC>MOL_PROPERTY
VdW6
SciTegic.value.DoubleValue
-8.515

@<SCITEGIC>MOL_PROPERTY
VdW12
SciTegic.value.DoubleValue
9.259

@<SCITEGIC>MOL_PROPERTY
Bond
SciTegic.value.DoubleValue
0.136

@<SCITEGIC>MOL_PROPERTY
Angle
SciTegic.value.DoubleValue
2.433

@<SCITEGIC>MOL_PROPERTY
Pdih
SciTegic.value.DoubleValue
5.215

@<SCITEGIC>MOL_PROPERTY
Idih
SciTegic.value.DoubleValue
0.000

@<SCITEGIC>MOL_PROPERTY
Tether
SciTegic.value.DoubleValue
0.000

@<TRIPOS>MOLECULE
guest-8_confgen4.mol2 : confsearch ligand conformer 345
          25          24           1
SMALL
USER_CHARGES
 
@<TRIPOS>ATOM
       1    C1      20.802386   23.116541   23.089285 C.2        1 MOL1         0.6168
       2    O1      21.868499   23.222041   22.515418 O.co2      1 MOL1        -0.6703
       3    O2      19.801910   23.726803   22.767203 O.co2      1 MOL1        -0.6703
       4    C2      20.717856   22.180972   24.292095 C.3        1 MOL1        -0.1963
       5    H1      20.194423   22.720917   25.089871 H          1 MOL1         0.0750
       6    H2      21.733816   21.984429   24.655449 H          1 MOL1         0.0750
       7    C3      19.984425   20.845051   24.003893 C.3        1 MOL1        -0.1860
       8    H3      19.838229   20.317943   24.954992 H          1 MOL1         0.0752
       9    H4      18.984286   21.058652   23.602030 H          1 MOL1         0.0752
      10    C4      20.763700   19.940408   23.018854 C.3        1 MOL1        -0.1858
      11    H5      21.745976   19.690009   23.442188 H          1 MOL1         0.0752
      12    H6      20.959910   20.501324   22.094812 H          1 MOL1         0.0752
      13    C5      20.012883   18.639723   22.645427 C.3        1 MOL1        -0.1858
      14    H7      19.023267   18.889999   22.239719 H          1 MOL1         0.0752
      15    H8      20.566908   18.150771   21.834161 H          1 MOL1         0.0752
      16    C6      19.859090   17.652551   23.828926 C.3        1 MOL1        -0.1858
      17    H9      19.298934   18.136668   24.638699 H          1 MOL1         0.0752
      18    H10     20.848659   17.406615   24.237442 H          1 MOL1         0.0752
      19    C7      19.117985   16.349077   23.449182 C.3        1 MOL1        -0.1834
      20    H11     18.930300   15.772226   24.365295 H          1 MOL1         0.0752
      21    H12     18.132347   16.591555   23.028442 H          1 MOL1         0.0752
      22    C8      19.903087   15.461957   22.458440 C.3        1 MOL1        -0.2849
      23    H13     20.010569   15.948739   21.481253 H          1 MOL1         0.0764
      24    H14     20.905938   15.235498   22.843299 H          1 MOL1         0.0764
      25    H15     19.379987   14.510266   22.298572 H          1 MOL1         0.0764
@<TRIPOS>BOND
    1     1     2    1
    2     1     3    2
    3     1     4    1
    4     4     5    1
    5     4     6    1
    6     4     7    1
    7     7     8    1
    8     7     9    1
    9     7    10    1
   10    10    11    1
   11    10    12    1
   12    10    13    1
   13    13    14    1
   14    13    15    1
   15    13    16    1
   16    16    17    1
   17    16    18    1
   18    16    19    1
   19    19    20    1
   20    19    21    1
   21    19    22    1
   22    22    23    1
   23    22    24    1
   24    22    25    1
@<TRIPOS>SUBSTRUCTURE
       1 MOL1            1 RESIDUE      1      MOL     
@<SCITEGIC>MOL_PROPERTY
VConf Rank
SciTegic.value.IntegerValue
345

@<SCITEGIC>MOL_PROPERTY
Conf_Id
SciTegic.value.IntegerValue
101

@<SCITEGIC>MOL_PROPERTY
Delta U+W
SciTegic.value.DoubleValue
1.534

@<SCITEGIC>MOL_PROPERTY
U+W
SciTegic.value.DoubleValue
-50.095

@<SCITEGIC>MOL_PROPERTY
Grad RMS
SciTegic.value.DoubleValue
0.000000

@<SCITEGIC>MOL_PROPERTY
U
SciTegic.value.DoubleValue
9.416

@<SCITEGIC>MOL_PROPERTY
W
SciTegic.value.DoubleValue
-59.512

@<SCITEGIC>MOL_PROPERTY
W(PB)
SciTegic.value.DoubleValue
-61.988

@<SCITEGIC>MOL_PROPERTY
W(SA)
SciTegic.value.DoubleValue
2.476

@<SCITEGIC>MOL_PROPERTY
Valence
SciTegic.value.DoubleValue
8.939

@<SCITEGIC>MOL_PROPERTY
Coulomb
SciTegic.value.DoubleValue
-0.615

@<SCITEGIC>MOL_PROPERTY
VdW
SciTegic.value.DoubleValue
1.092

@<SCITEGIC>MOL_PROPERTY
VdW6
SciTegic.value.DoubleValue
-9.710

@<SCITEGIC>MOL_PROPERTY
VdW12
SciTegic.value.DoubleValue
10.802

@<SCITEGIC>MOL_PROPERTY
Bond
SciTegic.value.DoubleValue
0.216

@<SCITEGIC>MOL_PROPERTY
Angle
SciTegic.value.DoubleValue
2.979

@<SCITEGIC>MOL_PROPERTY
Pdih
SciTegic.value.DoubleValue
5.743

@<SCITEGIC>MOL_PROPERTY
Idih
SciTegic.value.DoubleValue
0.000

@<SCITEGIC>MOL_PROPERTY
Tether
SciTegic.value.DoubleValue
0.000

@<TRIPOS>MOLECULE
guest-8_confgen4.mol2 : confsearch ligand conformer 346
          25          24           1
SMALL
USER_CHARGES
 
@<TRIPOS>ATOM
       1    C1      21.863601   17.397710   26.614956 C.2        1 MOL1         0.6168
       2    O1      21.730958   16.195704   26.495265 O.co2      1 MOL1        -0.6703
       3    O2      22.698289   17.914709   27.331045 O.co2      1 MOL1        -0.6703
       4    C2      20.947185   18.307617   25.804760 C.3        1 MOL1        -0.1963
       5    H1      20.783569   19.225761   26.381459 H          1 MOL1         0.0750
       6    H2      19.978283   17.804850   25.710875 H          1 MOL1         0.0750
       7    C3      21.525793   18.649532   24.406954 C.3        1 MOL1        -0.1860
       8    H3      22.536560   19.060601   24.536567 H          1 MOL1         0.0752
       9    H4      21.639429   17.727449   23.820311 H          1 MOL1         0.0752
      10    C4      20.674951   19.671410   23.615411 C.3        1 MOL1        -0.1858
      11    H5      21.235282   19.952644   22.714618 H          1 MOL1         0.0752
      12    H6      20.554518   20.588557   24.207784 H          1 MOL1         0.0752
      13    C5      19.284632   19.127505   23.204216 C.3        1 MOL1        -0.1858
      14    H7      19.404966   18.211376   22.611557 H          1 MOL1         0.0752
      15    H8      18.725556   18.837610   24.102610 H          1 MOL1         0.0752
      16    C6      18.425099   20.153974   22.423242 C.3        1 MOL1        -0.1858
      17    H9      18.242997   21.026508   23.065270 H          1 MOL1         0.0752
      18    H10     17.439129   19.710040   22.229707 H          1 MOL1         0.0752
      19    C7      19.023595   20.639954   21.079707 C.3        1 MOL1        -0.1834
      20    H11     18.328057   21.360875   20.628550 H          1 MOL1         0.0752
      21    H12     19.956578   21.190970   21.256529 H          1 MOL1         0.0752
      22    C8      19.276007   19.497319   20.072426 C.3        1 MOL1        -0.2849
      23    H13     18.360496   18.917078   19.898818 H          1 MOL1         0.0764
      24    H14     19.608815   19.901829   19.107866 H          1 MOL1         0.0764
      25    H15     20.054956   18.813543   20.432658 H          1 MOL1         0.0764
@<TRIPOS>BOND
    1     1     2    1
    2     1     3    2
    3     1     4    1
    4     4     5    1
    5     4     6    1
    6     4     7    1
    7     7     8    1
    8     7     9    1
    9     7    10    1
   10    10    11    1
   11    10    12    1
   12    10    13    1
   13    13    14    1
   14    13    15    1
   15    13    16    1
   16    16    17    1
   17    16    18    1
   18    16    19    1
   19    19    20    1
   20    19    21    1
   21    19    22    1
   22    22    23    1
   23    22    24    1
   24    22    25    1
@<TRIPOS>SUBSTRUCTURE
       1 MOL1            1 RESIDUE      1      MOL     
@<SCITEGIC>MOL_PROPERTY
VConf Rank
SciTegic.value.IntegerValue
346

@<SCITEGIC>MOL_PROPERTY
Conf_Id
SciTegic.value.IntegerValue
75

@<SCITEGIC>MOL_PROPERTY
Delta U+W
SciTegic.value.DoubleValue
1.014

@<SCITEGIC>MOL_PROPERTY
U+W
SciTegic.value.DoubleValue
-50.615

@<SCITEGIC>MOL_PROPERTY
Grad RMS
SciTegic.value.DoubleValue
0.000000

@<SCITEGIC>MOL_PROPERTY
U
SciTegic.value.DoubleValue
8.474

@<SCITEGIC>MOL_PROPERTY
W
SciTegic.value.DoubleValue
-59.089

@<SCITEGIC>MOL_PROPERTY
W(PB)
SciTegic.value.DoubleValue
-61.530

@<SCITEGIC>MOL_PROPERTY
W(SA)
SciTegic.value.DoubleValue
2.441

@<SCITEGIC>MOL_PROPERTY
Valence
SciTegic.value.DoubleValue
9.080

@<SCITEGIC>MOL_PROPERTY
Coulomb
SciTegic.value.DoubleValue
-1.772

@<SCITEGIC>MOL_PROPERTY
VdW
SciTegic.value.DoubleValue
1.165

@<SCITEGIC>MOL_PROPERTY
VdW6
SciTegic.value.DoubleValue
-9.830

@<SCITEGIC>MOL_PROPERTY
VdW12
SciTegic.value.DoubleValue
10.996

@<SCITEGIC>MOL_PROPERTY
Bond
SciTegic.value.DoubleValue
0.240

@<SCITEGIC>MOL_PROPERTY
Angle
SciTegic.value.DoubleValue
3.225

@<SCITEGIC>MOL_PROPERTY
Pdih
SciTegic.value.DoubleValue
5.615

@<SCITEGIC>MOL_PROPERTY
Idih
SciTegic.value.DoubleValue
0.001

@<SCITEGIC>MOL_PROPERTY
Tether
SciTegic.value.DoubleValue
0.000

@<TRIPOS>MOLECULE
guest-8_confgen4.mol2 : confsearch ligand conformer 347
          25          24           1
SMALL
USER_CHARGES
 
@<TRIPOS>ATOM
       1    C1      21.275397   18.512040   27.294466 C.2        1 MOL1         0.6168
       2    O1      22.291337   17.845376   27.285718 O.co2      1 MOL1        -0.6703
       3    O2      20.969938   19.262030   28.200489 O.co2      1 MOL1        -0.6703
       4    C2      20.342691   18.418424   26.092228 C.3        1 MOL1        -0.1963
       5    H1      19.315108   18.565052   26.445971 H          1 MOL1         0.0750
       6    H2      20.405368   17.399749   25.691005 H          1 MOL1         0.0750
       7    C3      20.680099   19.449720   24.987391 C.3        1 MOL1        -0.1860
       8    H3      20.625649   20.463420   25.408036 H          1 MOL1         0.0752
       9    H4      21.715995   19.297852   24.653639 H          1 MOL1         0.0752
      10    C4      19.723304   19.333722   23.781058 C.3        1 MOL1        -0.1858
      11    H5      18.689271   19.485718   24.119415 H          1 MOL1         0.0752
      12    H6      19.774691   18.316869   23.374138 H          1 MOL1         0.0752
      13    C5      20.060655   20.369746   22.683067 C.3        1 MOL1        -0.1858
      14    H7      19.967560   21.373445   23.119916 H          1 MOL1         0.0752
      15    H8      21.108802   20.268120   22.370211 H          1 MOL1         0.0752
      16    C6      19.127125   20.282891   21.448805 C.3        1 MOL1        -0.1858
      17    H9      18.957515   21.302551   21.076791 H          1 MOL1         0.0752
      18    H10     18.138792   19.905037   21.744200 H          1 MOL1         0.0752
      19    C7      19.686900   19.445427   20.272280 C.3        1 MOL1        -0.1834
      20    H11     18.987195   19.518879   19.428367 H          1 MOL1         0.0752
      21    H12     20.632934   19.883823   19.925773 H          1 MOL1         0.0752
      22    C8      19.905229   17.954707   20.604633 C.3        1 MOL1        -0.2849
      23    H13     18.992670   17.504939   21.016828 H          1 MOL1         0.0764
      24    H14     20.179864   17.396125   19.700577 H          1 MOL1         0.0764
      25    H15     20.717090   17.826388   21.331298 H          1 MOL1         0.0764
@<TRIPOS>BOND
    1     1     2    1
    2     1     3    2
    3     1     4    1
    4     4     5    1
    5     4     6    1
    6     4     7    1
    7     7     8    1
    8     7     9    1
    9     7    10    1
   10    10    11    1
   11    10    12    1
   12    10    13    1
   13    13    14    1
   14    13    15    1
   15    13    16    1
   16    16    17    1
   17    16    18    1
   18    16    19    1
   19    19    20    1
   20    19    21    1
   21    19    22    1
   22    22    23    1
   23    22    24    1
   24    22    25    1
@<TRIPOS>SUBSTRUCTURE
       1 MOL1            1 RESIDUE      1      MOL     
@<SCITEGIC>MOL_PROPERTY
VConf Rank
SciTegic.value.IntegerValue
347

@<SCITEGIC>MOL_PROPERTY
Conf_Id
SciTegic.value.IntegerValue
125

@<SCITEGIC>MOL_PROPERTY
Delta U+W
SciTegic.value.DoubleValue
2.314

@<SCITEGIC>MOL_PROPERTY
U+W
SciTegic.value.DoubleValue
-49.315

@<SCITEGIC>MOL_PROPERTY
Grad RMS
SciTegic.value.DoubleValue
0.000000

@<SCITEGIC>MOL_PROPERTY
U
SciTegic.value.DoubleValue
9.740

@<SCITEGIC>MOL_PROPERTY
W
SciTegic.value.DoubleValue
-59.054

@<SCITEGIC>MOL_PROPERTY
W(PB)
SciTegic.value.DoubleValue
-61.488

@<SCITEGIC>MOL_PROPERTY
W(SA)
SciTegic.value.DoubleValue
2.433

@<SCITEGIC>MOL_PROPERTY
Valence
SciTegic.value.DoubleValue
10.506

@<SCITEGIC>MOL_PROPERTY
Coulomb
SciTegic.value.DoubleValue
-1.761

@<SCITEGIC>MOL_PROPERTY
VdW
SciTegic.value.DoubleValue
0.994

@<SCITEGIC>MOL_PROPERTY
VdW6
SciTegic.value.DoubleValue
-9.209

@<SCITEGIC>MOL_PROPERTY
VdW12
SciTegic.value.DoubleValue
10.203

@<SCITEGIC>MOL_PROPERTY
Bond
SciTegic.value.DoubleValue
0.193

@<SCITEGIC>MOL_PROPERTY
Angle
SciTegic.value.DoubleValue
2.979

@<SCITEGIC>MOL_PROPERTY
Pdih
SciTegic.value.DoubleValue
7.334

@<SCITEGIC>MOL_PROPERTY
Idih
SciTegic.value.DoubleValue
0.001

@<SCITEGIC>MOL_PROPERTY
Tether
SciTegic.value.DoubleValue
0.000

@<TRIPOS>MOLECULE
guest-8_confgen4.mol2 : confsearch ligand conformer 348
          25          24           1
SMALL
USER_CHARGES
 
@<TRIPOS>ATOM
       1    C1      16.095090   19.312541   24.080649 C.2        1 MOL1         0.6168
       2    O1      15.571811   19.589834   23.019526 O.co2      1 MOL1        -0.6703
       3    O2      15.494116   19.266597   25.135856 O.co2      1 MOL1        -0.6703
       4    C2      17.593152   19.030264   24.092814 C.3        1 MOL1        -0.1963
       5    H1      17.849486   18.552365   23.140645 H          1 MOL1         0.0750
       6    H2      17.795662   18.302578   24.887684 H          1 MOL1         0.0750
       7    C3      18.442561   20.309685   24.309211 C.3        1 MOL1        -0.1860
       8    H3      18.266420   21.011218   23.482074 H          1 MOL1         0.0752
       9    H4      18.095134   20.813192   25.222020 H          1 MOL1         0.0752
      10    C4      19.958428   20.030134   24.443947 C.3        1 MOL1        -0.1858
      11    H5      20.132025   19.336109   25.277712 H          1 MOL1         0.0752
      12    H6      20.462918   20.968863   24.710760 H          1 MOL1         0.0752
      13    C5      20.596631   19.464312   23.154088 C.3        1 MOL1        -0.1858
      14    H7      20.146198   18.492976   22.916931 H          1 MOL1         0.0752
      15    H8      20.379138   20.135417   22.312139 H          1 MOL1         0.0752
      16    C6      22.127196   19.299922   23.300891 C.3        1 MOL1        -0.1858
      17    H9      22.347077   18.592537   24.112154 H          1 MOL1         0.0752
      18    H10     22.563442   20.262533   23.600747 H          1 MOL1         0.0752
      19    C7      22.822905   18.829942   22.002074 C.3        1 MOL1        -0.1834
      20    H11     22.609493   19.538268   21.189648 H          1 MOL1         0.0752
      21    H12     23.910464   18.853824   22.156579 H          1 MOL1         0.0752
      22    C8      22.413821   17.405036   21.569782 C.3        1 MOL1        -0.2849
      23    H13     21.353791   17.359637   21.290566 H          1 MOL1         0.0764
      24    H14     23.000306   17.085041   20.698843 H          1 MOL1         0.0764
      25    H15     22.588688   16.683586   22.378509 H          1 MOL1         0.0764
@<TRIPOS>BOND
    1     1     2    1
    2     1     3    2
    3     1     4    1
    4     4     5    1
    5     4     6    1
    6     4     7    1
    7     7     8    1
    8     7     9    1
    9     7    10    1
   10    10    11    1
   11    10    12    1
   12    10    13    1
   13    13    14    1
   14    13    15    1
   15    13    16    1
   16    16    17    1
   17    16    18    1
   18    16    19    1
   19    19    20    1
   20    19    21    1
   21    19    22    1
   22    22    23    1
   23    22    24    1
   24    22    25    1
@<TRIPOS>SUBSTRUCTURE
       1 MOL1            1 RESIDUE      1      MOL     
@<SCITEGIC>MOL_PROPERTY
VConf Rank
SciTegic.value.IntegerValue
348

@<SCITEGIC>MOL_PROPERTY
Conf_Id
SciTegic.value.IntegerValue
4

@<SCITEGIC>MOL_PROPERTY
Delta U+W
SciTegic.value.DoubleValue
0.189

@<SCITEGIC>MOL_PROPERTY
U+W
SciTegic.value.DoubleValue
-51.441

@<SCITEGIC>MOL_PROPERTY
Grad RMS
SciTegic.value.DoubleValue
0.000000

@<SCITEGIC>MOL_PROPERTY
U
SciTegic.value.DoubleValue
7.701

@<SCITEGIC>MOL_PROPERTY
W
SciTegic.value.DoubleValue
-59.141

@<SCITEGIC>MOL_PROPERTY
W(PB)
SciTegic.value.DoubleValue
-61.609

@<SCITEGIC>MOL_PROPERTY
W(SA)
SciTegic.value.DoubleValue
2.467

@<SCITEGIC>MOL_PROPERTY
Valence
SciTegic.value.DoubleValue
8.550

@<SCITEGIC>MOL_PROPERTY
Coulomb
SciTegic.value.DoubleValue
-1.988

@<SCITEGIC>MOL_PROPERTY
VdW
SciTegic.value.DoubleValue
1.139

@<SCITEGIC>MOL_PROPERTY
VdW6
SciTegic.value.DoubleValue
-8.988

@<SCITEGIC>MOL_PROPERTY
VdW12
SciTegic.value.DoubleValue
10.127

@<SCITEGIC>MOL_PROPERTY
Bond
SciTegic.value.DoubleValue
0.191

@<SCITEGIC>MOL_PROPERTY
Angle
SciTegic.value.DoubleValue
2.738

@<SCITEGIC>MOL_PROPERTY
Pdih
SciTegic.value.DoubleValue
5.621

@<SCITEGIC>MOL_PROPERTY
Idih
SciTegic.value.DoubleValue
0.001

@<SCITEGIC>MOL_PROPERTY
Tether
SciTegic.value.DoubleValue
0.000

@<TRIPOS>MOLECULE
guest-8_confgen4.mol2 : confsearch ligand conformer 349
          25          24           1
SMALL
USER_CHARGES
 
@<TRIPOS>ATOM
       1    C1      22.137909   22.451696   21.954544 C.2        1 MOL1         0.6168
       2    O1      22.460077   23.063617   22.953772 O.co2      1 MOL1        -0.6703
       3    O2      22.531307   22.729667   20.838878 O.co2      1 MOL1        -0.6703
       4    C2      21.207311   21.254521   22.111957 C.3        1 MOL1        -0.1963
       5    H1      20.597007   21.176509   21.204323 H          1 MOL1         0.0750
       6    H2      20.527463   21.468654   22.944228 H          1 MOL1         0.0750
       7    C3      21.972857   19.928365   22.357906 C.3        1 MOL1        -0.1860
       8    H3      22.710934   19.793358   21.555121 H          1 MOL1         0.0752
       9    H4      22.543227   20.002242   23.294149 H          1 MOL1         0.0752
      10    C4      21.055044   18.683429   22.401598 C.3        1 MOL1        -0.1858
      11    H5      21.687358   17.786956   22.460137 H          1 MOL1         0.0752
      12    H6      20.493598   18.606860   21.460383 H          1 MOL1         0.0752
      13    C5      20.072162   18.685373   23.595388 C.3        1 MOL1        -0.1858
      14    H7      20.632315   18.812055   24.531734 H          1 MOL1         0.0752
      15    H8      19.390936   19.540407   23.508931 H          1 MOL1         0.0752
      16    C6      19.250545   17.376881   23.658589 C.3        1 MOL1        -0.1858
      17    H9      19.940117   16.521991   23.680908 H          1 MOL1         0.0752
      18    H10     18.653017   17.270754   22.742846 H          1 MOL1         0.0752
      19    C7      18.323789   17.291349   24.893750 C.3        1 MOL1        -0.1834
      20    H11     17.871009   16.290752   24.925749 H          1 MOL1         0.0752
      21    H12     18.918981   17.391885   25.811871 H          1 MOL1         0.0752
      22    C8      17.196463   18.346661   24.887297 C.3        1 MOL1        -0.2849
      23    H13     16.606803   18.286162   23.963310 H          1 MOL1         0.0764
      24    H14     16.515948   18.186364   25.733524 H          1 MOL1         0.0764
      25    H15     17.598890   19.363675   24.973440 H          1 MOL1         0.0764
@<TRIPOS>BOND
    1     1     2    1
    2     1     3    2
    3     1     4    1
    4     4     5    1
    5     4     6    1
    6     4     7    1
    7     7     8    1
    8     7     9    1
    9     7    10    1
   10    10    11    1
   11    10    12    1
   12    10    13    1
   13    13    14    1
   14    13    15    1
   15    13    16    1
   16    16    17    1
   17    16    18    1
   18    16    19    1
   19    19    20    1
   20    19    21    1
   21    19    22    1
   22    22    23    1
   23    22    24    1
   24    22    25    1
@<TRIPOS>SUBSTRUCTURE
       1 MOL1            1 RESIDUE      1      MOL     
@<SCITEGIC>MOL_PROPERTY
VConf Rank
SciTegic.value.IntegerValue
349

@<SCITEGIC>MOL_PROPERTY
Conf_Id
SciTegic.value.IntegerValue
17

@<SCITEGIC>MOL_PROPERTY
Delta U+W
SciTegic.value.DoubleValue
0.219

@<SCITEGIC>MOL_PROPERTY
U+W
SciTegic.value.DoubleValue
-51.411

@<SCITEGIC>MOL_PROPERTY
Grad RMS
SciTegic.value.DoubleValue
0.000000

@<SCITEGIC>MOL_PROPERTY
U
SciTegic.value.DoubleValue
7.701

@<SCITEGIC>MOL_PROPERTY
W
SciTegic.value.DoubleValue
-59.111

@<SCITEGIC>MOL_PROPERTY
W(PB)
SciTegic.value.DoubleValue
-61.599

@<SCITEGIC>MOL_PROPERTY
W(SA)
SciTegic.value.DoubleValue
2.488

@<SCITEGIC>MOL_PROPERTY
Valence
SciTegic.value.DoubleValue
8.550

@<SCITEGIC>MOL_PROPERTY
Coulomb
SciTegic.value.DoubleValue
-1.988

@<SCITEGIC>MOL_PROPERTY
VdW
SciTegic.value.DoubleValue
1.139

@<SCITEGIC>MOL_PROPERTY
VdW6
SciTegic.value.DoubleValue
-8.988

@<SCITEGIC>MOL_PROPERTY
VdW12
SciTegic.value.DoubleValue
10.127

@<SCITEGIC>MOL_PROPERTY
Bond
SciTegic.value.DoubleValue
0.191

@<SCITEGIC>MOL_PROPERTY
Angle
SciTegic.value.DoubleValue
2.738

@<SCITEGIC>MOL_PROPERTY
Pdih
SciTegic.value.DoubleValue
5.621

@<SCITEGIC>MOL_PROPERTY
Idih
SciTegic.value.DoubleValue
0.001

@<SCITEGIC>MOL_PROPERTY
Tether
SciTegic.value.DoubleValue
0.000

@<TRIPOS>MOLECULE
guest-8_confgen4.mol2 : confsearch ligand conformer 350
          25          24           1
SMALL
USER_CHARGES
 
@<TRIPOS>ATOM
       1    C1      19.052163   17.209757   20.402418 C.2        1 MOL1         0.6168
       2    O1      20.010634   16.563894   20.026575 O.co2      1 MOL1        -0.6703
       3    O2      18.518385   18.072832   19.733645 O.co2      1 MOL1        -0.6703
       4    C2      18.473374   16.908742   21.782029 C.3        1 MOL1        -0.1963
       5    H1      18.807990   15.911364   22.091937 H          1 MOL1         0.0750
       6    H2      17.383179   16.859240   21.677107 H          1 MOL1         0.0750
       7    C3      18.842926   17.958530   22.861971 C.3        1 MOL1        -0.1860
       8    H3      18.515616   18.949582   22.520870 H          1 MOL1         0.0752
       9    H4      18.283215   17.737519   23.780744 H          1 MOL1         0.0752
      10    C4      20.357761   17.974649   23.177833 C.3        1 MOL1        -0.1858
      11    H5      20.922907   18.264329   22.281163 H          1 MOL1         0.0752
      12    H6      20.680550   16.955449   23.430589 H          1 MOL1         0.0752
      13    C5      20.732974   18.913502   24.348940 C.3        1 MOL1        -0.1858
      14    H7      20.175648   18.620218   25.249063 H          1 MOL1         0.0752
      15    H8      21.796966   18.770376   24.581955 H          1 MOL1         0.0752
      16    C6      20.482329   20.408622   24.044266 C.3        1 MOL1        -0.1858
      17    H9      19.410775   20.583739   23.882916 H          1 MOL1         0.0752
      18    H10     20.996432   20.684696   23.113473 H          1 MOL1         0.0752
      19    C7      20.974047   21.314885   25.192591 C.3        1 MOL1        -0.1834
      20    H11     20.462921   21.040008   26.125678 H          1 MOL1         0.0752
      21    H12     22.048466   21.154362   25.357756 H          1 MOL1         0.0752
      22    C8      20.720047   22.805185   24.888930 C.3        1 MOL1        -0.2849
      23    H13     19.648579   23.000885   24.750942 H          1 MOL1         0.0764
      24    H14     21.075862   23.434519   25.714999 H          1 MOL1         0.0764
      25    H15     21.245456   23.115048   23.976071 H          1 MOL1         0.0764
@<TRIPOS>BOND
    1     1     2    1
    2     1     3    2
    3     1     4    1
    4     4     5    1
    5     4     6    1
    6     4     7    1
    7     7     8    1
    8     7     9    1
    9     7    10    1
   10    10    11    1
   11    10    12    1
   12    10    13    1
   13    13    14    1
   14    13    15    1
   15    13    16    1
   16    16    17    1
   17    16    18    1
   18    16    19    1
   19    19    20    1
   20    19    21    1
   21    19    22    1
   22    22    23    1
   23    22    24    1
   24    22    25    1
@<TRIPOS>SUBSTRUCTURE
       1 MOL1            1 RESIDUE      1      MOL     
@<SCITEGIC>MOL_PROPERTY
VConf Rank
SciTegic.value.IntegerValue
350

@<SCITEGIC>MOL_PROPERTY
Conf_Id
SciTegic.value.IntegerValue
142

@<SCITEGIC>MOL_PROPERTY
Delta U+W
SciTegic.value.DoubleValue
0.593

@<SCITEGIC>MOL_PROPERTY
U+W
SciTegic.value.DoubleValue
-51.037

@<SCITEGIC>MOL_PROPERTY
Grad RMS
SciTegic.value.DoubleValue
0.000000

@<SCITEGIC>MOL_PROPERTY
U
SciTegic.value.DoubleValue
8.903

@<SCITEGIC>MOL_PROPERTY
W
SciTegic.value.DoubleValue
-59.940

@<SCITEGIC>MOL_PROPERTY
W(PB)
SciTegic.value.DoubleValue
-62.418

@<SCITEGIC>MOL_PROPERTY
W(SA)
SciTegic.value.DoubleValue
2.478

@<SCITEGIC>MOL_PROPERTY
Valence
SciTegic.value.DoubleValue
8.305

@<SCITEGIC>MOL_PROPERTY
Coulomb
SciTegic.value.DoubleValue
-0.223

@<SCITEGIC>MOL_PROPERTY
VdW
SciTegic.value.DoubleValue
0.821

@<SCITEGIC>MOL_PROPERTY
VdW6
SciTegic.value.DoubleValue
-9.236

@<SCITEGIC>MOL_PROPERTY
VdW12
SciTegic.value.DoubleValue
10.057

@<SCITEGIC>MOL_PROPERTY
Bond
SciTegic.value.DoubleValue
0.173

@<SCITEGIC>MOL_PROPERTY
Angle
SciTegic.value.DoubleValue
2.663

@<SCITEGIC>MOL_PROPERTY
Pdih
SciTegic.value.DoubleValue
5.469

@<SCITEGIC>MOL_PROPERTY
Idih
SciTegic.value.DoubleValue
0.001

@<SCITEGIC>MOL_PROPERTY
Tether
SciTegic.value.DoubleValue
0.000

@<TRIPOS>MOLECULE
guest-8_confgen4.mol2 : confsearch ligand conformer 351
          25          24           1
SMALL
USER_CHARGES
 
@<TRIPOS>ATOM
       1    C1      18.217599   21.072554   25.579104 C.2        1 MOL1         0.6168
       2    O1      17.997721   21.187389   26.769073 O.co2      1 MOL1        -0.6703
       3    O2      18.330435   22.016856   24.822389 O.co2      1 MOL1        -0.6703
       4    C2      18.330125   19.664317   25.001920 C.3        1 MOL1        -0.1963
       5    H1      18.247685   19.724175   23.910627 H          1 MOL1         0.0750
       6    H2      17.457489   19.098839   25.348704 H          1 MOL1         0.0750
       7    C3      19.626078   18.912882   25.411779 C.3        1 MOL1        -0.1860
       8    H3      19.642448   18.810488   26.505591 H          1 MOL1         0.0752
       9    H4      19.591933   17.890061   25.014891 H          1 MOL1         0.0752
      10    C4      20.938086   19.604720   24.959413 C.3        1 MOL1        -0.1858
      11    H5      21.790471   19.002094   25.301287 H          1 MOL1         0.0752
      12    H6      21.027652   20.571874   25.472907 H          1 MOL1         0.0752
      13    C5      21.070156   19.840507   23.433867 C.3        1 MOL1        -0.1858
      14    H7      20.288866   20.533552   23.094116 H          1 MOL1         0.0752
      15    H8      22.026570   20.346446   23.244576 H          1 MOL1         0.0752
      16    C6      21.016244   18.539422   22.600238 C.3        1 MOL1        -0.1858
      17    H9      20.036974   18.058484   22.722031 H          1 MOL1         0.0752
      18    H10     21.770312   17.832990   22.973080 H          1 MOL1         0.0752
      19    C7      21.260930   18.812022   21.101154 C.3        1 MOL1        -0.1834
      20    H11     20.509144   19.520646   20.726796 H          1 MOL1         0.0752
      21    H12     22.242607   19.286777   20.965910 H          1 MOL1         0.0752
      22    C8      21.200811   17.514388   20.270356 C.3        1 MOL1        -0.2849
      23    H13     20.217435   17.034811   20.361698 H          1 MOL1         0.0764
      24    H14     21.376985   17.726702   19.207850 H          1 MOL1         0.0764
      25    H15     21.963587   16.798765   20.604136 H          1 MOL1         0.0764
@<TRIPOS>BOND
    1     1     2    1
    2     1     3    2
    3     1     4    1
    4     4     5    1
    5     4     6    1
    6     4     7    1
    7     7     8    1
    8     7     9    1
    9     7    10    1
   10    10    11    1
   11    10    12    1
   12    10    13    1
   13    13    14    1
   14    13    15    1
   15    13    16    1
   16    16    17    1
   17    16    18    1
   18    16    19    1
   19    19    20    1
   20    19    21    1
   21    19    22    1
   22    22    23    1
   23    22    24    1
   24    22    25    1
@<TRIPOS>SUBSTRUCTURE
       1 MOL1            1 RESIDUE      1      MOL     
@<SCITEGIC>MOL_PROPERTY
VConf Rank
SciTegic.value.IntegerValue
351

@<SCITEGIC>MOL_PROPERTY
Conf_Id
SciTegic.value.IntegerValue
135

@<SCITEGIC>MOL_PROPERTY
Delta U+W
SciTegic.value.DoubleValue
1.314

@<SCITEGIC>MOL_PROPERTY
U+W
SciTegic.value.DoubleValue
-50.316

@<SCITEGIC>MOL_PROPERTY
Grad RMS
SciTegic.value.DoubleValue
0.000000

@<SCITEGIC>MOL_PROPERTY
U
SciTegic.value.DoubleValue
9.773

@<SCITEGIC>MOL_PROPERTY
W
SciTegic.value.DoubleValue
-60.088

@<SCITEGIC>MOL_PROPERTY
W(PB)
SciTegic.value.DoubleValue
-62.535

@<SCITEGIC>MOL_PROPERTY
W(SA)
SciTegic.value.DoubleValue
2.447

@<SCITEGIC>MOL_PROPERTY
Valence
SciTegic.value.DoubleValue
8.741

@<SCITEGIC>MOL_PROPERTY
Coulomb
SciTegic.value.DoubleValue
0.479

@<SCITEGIC>MOL_PROPERTY
VdW
SciTegic.value.DoubleValue
0.552

@<SCITEGIC>MOL_PROPERTY
VdW6
SciTegic.value.DoubleValue
-10.627

@<SCITEGIC>MOL_PROPERTY
VdW12
SciTegic.value.DoubleValue
11.179

@<SCITEGIC>MOL_PROPERTY
Bond
SciTegic.value.DoubleValue
0.227

@<SCITEGIC>MOL_PROPERTY
Angle
SciTegic.value.DoubleValue
3.155

@<SCITEGIC>MOL_PROPERTY
Pdih
SciTegic.value.DoubleValue
5.358

@<SCITEGIC>MOL_PROPERTY
Idih
SciTegic.value.DoubleValue
0.001

@<SCITEGIC>MOL_PROPERTY
Tether
SciTegic.value.DoubleValue
0.000

@<TRIPOS>MOLECULE
guest-8_confgen4.mol2 : confsearch ligand conformer 352
          25          24           1
SMALL
USER_CHARGES
 
@<TRIPOS>ATOM
       1    C1      16.009573   20.194387   23.565772 C.2        1 MOL1         0.6168
       2    O1      15.263433   19.281159   23.272464 O.co2      1 MOL1        -0.6703
       3    O2      15.669496   21.155340   24.227351 O.co2      1 MOL1        -0.6703
       4    C2      17.458350   20.119487   23.097138 C.3        1 MOL1        -0.1963
       5    H1      17.814612   21.142944   22.929925 H          1 MOL1         0.0750
       6    H2      17.467820   19.609076   22.127828 H          1 MOL1         0.0750
       7    C3      18.379028   19.391431   24.111098 C.3        1 MOL1        -0.1860
       8    H3      18.267493   19.872227   25.092853 H          1 MOL1         0.0752
       9    H4      18.042229   18.352920   24.234961 H          1 MOL1         0.0752
      10    C4      19.875809   19.413598   23.718558 C.3        1 MOL1        -0.1858
      11    H5      20.451314   19.017379   24.564605 H          1 MOL1         0.0752
      12    H6      20.203906   20.451414   23.570678 H          1 MOL1         0.0752
      13    C5      20.194914   18.576624   22.456771 C.3        1 MOL1        -0.1858
      14    H7      19.918057   17.528706   22.635131 H          1 MOL1         0.0752
      15    H8      19.574059   18.921521   21.620673 H          1 MOL1         0.0752
      16    C6      21.675733   18.647610   22.005546 C.3        1 MOL1        -0.1858
      17    H9      21.937059   19.679594   21.734205 H          1 MOL1         0.0752
      18    H10     21.766618   18.064213   21.079122 H          1 MOL1         0.0752
      19    C7      22.694742   18.087323   23.029216 C.3        1 MOL1        -0.1834
      20    H11     22.216634   17.333623   23.669985 H          1 MOL1         0.0752
      21    H12     23.490117   17.562324   22.482356 H          1 MOL1         0.0752
      22    C8      23.354075   19.185452   23.893311 C.3        1 MOL1        -0.2849
      23    H13     22.613942   19.746021   24.475619 H          1 MOL1         0.0764
      24    H14     24.069455   18.741966   24.597838 H          1 MOL1         0.0764
      25    H15     23.901248   19.900040   23.264783 H          1 MOL1         0.0764
@<TRIPOS>BOND
    1     1     2    1
    2     1     3    2
    3     1     4    1
    4     4     5    1
    5     4     6    1
    6     4     7    1
    7     7     8    1
    8     7     9    1
    9     7    10    1
   10    10    11    1
   11    10    12    1
   12    10    13    1
   13    13    14    1
   14    13    15    1
   15    13    16    1
   16    16    17    1
   17    16    18    1
   18    16    19    1
   19    19    20    1
   20    19    21    1
   21    19    22    1
   22    22    23    1
   23    22    24    1
   24    22    25    1
@<TRIPOS>SUBSTRUCTURE
       1 MOL1            1 RESIDUE      1      MOL     
@<SCITEGIC>MOL_PROPERTY
VConf Rank
SciTegic.value.IntegerValue
352

@<SCITEGIC>MOL_PROPERTY
Conf_Id
SciTegic.value.IntegerValue
19

@<SCITEGIC>MOL_PROPERTY
Delta U+W
SciTegic.value.DoubleValue
3.222

@<SCITEGIC>MOL_PROPERTY
U+W
SciTegic.value.DoubleValue
-48.407

@<SCITEGIC>MOL_PROPERTY
Grad RMS
SciTegic.value.DoubleValue
0.000000

@<SCITEGIC>MOL_PROPERTY
U
SciTegic.value.DoubleValue
10.617

@<SCITEGIC>MOL_PROPERTY
W
SciTegic.value.DoubleValue
-59.025

@<SCITEGIC>MOL_PROPERTY
W(PB)
SciTegic.value.DoubleValue
-61.462

@<SCITEGIC>MOL_PROPERTY
W(SA)
SciTegic.value.DoubleValue
2.437

@<SCITEGIC>MOL_PROPERTY
Valence
SciTegic.value.DoubleValue
11.188

@<SCITEGIC>MOL_PROPERTY
Coulomb
SciTegic.value.DoubleValue
-1.778

@<SCITEGIC>MOL_PROPERTY
VdW
SciTegic.value.DoubleValue
1.208

@<SCITEGIC>MOL_PROPERTY
VdW6
SciTegic.value.DoubleValue
-9.786

@<SCITEGIC>MOL_PROPERTY
VdW12
SciTegic.value.DoubleValue
10.993

@<SCITEGIC>MOL_PROPERTY
Bond
SciTegic.value.DoubleValue
0.241

@<SCITEGIC>MOL_PROPERTY
Angle
SciTegic.value.DoubleValue
3.294

@<SCITEGIC>MOL_PROPERTY
Pdih
SciTegic.value.DoubleValue
7.653

@<SCITEGIC>MOL_PROPERTY
Idih
SciTegic.value.DoubleValue
0.001

@<SCITEGIC>MOL_PROPERTY
Tether
SciTegic.value.DoubleValue
0.000

@<TRIPOS>MOLECULE
guest-8_confgen4.mol2 : confsearch ligand conformer 353
          25          24           1
SMALL
USER_CHARGES
 
@<TRIPOS>ATOM
       1    C1      16.365613   18.424115   21.454393 C.2        1 MOL1         0.6168
       2    O1      15.416896   18.711531   22.157293 O.co2      1 MOL1        -0.6703
       3    O2      16.297180   17.662572   20.509862 O.co2      1 MOL1        -0.6703
       4    C2      17.721694   19.034456   21.790119 C.3        1 MOL1        -0.1963
       5    H1      17.543484   20.035623   22.197646 H          1 MOL1         0.0750
       6    H2      18.279553   19.158185   20.854260 H          1 MOL1         0.0750
       7    C3      18.536462   18.171263   22.788558 C.3        1 MOL1        -0.1860
       8    H3      17.990885   18.093603   23.739136 H          1 MOL1         0.0752
       9    H4      18.609843   17.150110   22.389424 H          1 MOL1         0.0752
      10    C4      19.966468   18.703421   23.047064 C.3        1 MOL1        -0.1858
      11    H5      20.501542   18.804132   22.093055 H          1 MOL1         0.0752
      12    H6      20.505222   17.948797   23.633813 H          1 MOL1         0.0752
      13    C5      19.995095   20.049174   23.810342 C.3        1 MOL1        -0.1858
      14    H7      19.401798   20.793408   23.264822 H          1 MOL1         0.0752
      15    H8      19.509985   19.923925   24.787879 H          1 MOL1         0.0752
      16    C6      21.415725   20.634341   24.012488 C.3        1 MOL1        -0.1858
      17    H9      21.304123   21.606237   24.512323 H          1 MOL1         0.0752
      18    H10     21.874955   20.851639   23.038426 H          1 MOL1         0.0752
      19    C7      22.363683   19.758347   24.869351 C.3        1 MOL1        -0.1834
      20    H11     22.979546   20.416974   25.497224 H          1 MOL1         0.0752
      21    H12     21.783384   19.132611   25.561406 H          1 MOL1         0.0752
      22    C8      23.312961   18.882177   24.021730 C.3        1 MOL1        -0.2849
      23    H13     23.952857   19.505350   23.383554 H          1 MOL1         0.0764
      24    H14     23.966323   18.284887   24.670705 H          1 MOL1         0.0764
      25    H15     22.761371   18.191095   23.374217 H          1 MOL1         0.0764
@<TRIPOS>BOND
    1     1     2    1
    2     1     3    2
    3     1     4    1
    4     4     5    1
    5     4     6    1
    6     4     7    1
    7     7     8    1
    8     7     9    1
    9     7    10    1
   10    10    11    1
   11    10    12    1
   12    10    13    1
   13    13    14    1
   14    13    15    1
   15    13    16    1
   16    16    17    1
   17    16    18    1
   18    16    19    1
   19    19    20    1
   20    19    21    1
   21    19    22    1
   22    22    23    1
   23    22    24    1
   24    22    25    1
@<TRIPOS>SUBSTRUCTURE
       1 MOL1            1 RESIDUE      1      MOL     
@<SCITEGIC>MOL_PROPERTY
VConf Rank
SciTegic.value.IntegerValue
353

@<SCITEGIC>MOL_PROPERTY
Conf_Id
SciTegic.value.IntegerValue
20

@<SCITEGIC>MOL_PROPERTY
Delta U+W
SciTegic.value.DoubleValue
3.224

@<SCITEGIC>MOL_PROPERTY
U+W
SciTegic.value.DoubleValue
-48.406

@<SCITEGIC>MOL_PROPERTY
Grad RMS
SciTegic.value.DoubleValue
0.000000

@<SCITEGIC>MOL_PROPERTY
U
SciTegic.value.DoubleValue
10.617

@<SCITEGIC>MOL_PROPERTY
W
SciTegic.value.DoubleValue
-59.023

@<SCITEGIC>MOL_PROPERTY
W(PB)
SciTegic.value.DoubleValue
-61.467

@<SCITEGIC>MOL_PROPERTY
W(SA)
SciTegic.value.DoubleValue
2.444

@<SCITEGIC>MOL_PROPERTY
Valence
SciTegic.value.DoubleValue
11.188

@<SCITEGIC>MOL_PROPERTY
Coulomb
SciTegic.value.DoubleValue
-1.778

@<SCITEGIC>MOL_PROPERTY
VdW
SciTegic.value.DoubleValue
1.208

@<SCITEGIC>MOL_PROPERTY
VdW6
SciTegic.value.DoubleValue
-9.786

@<SCITEGIC>MOL_PROPERTY
VdW12
SciTegic.value.DoubleValue
10.993

@<SCITEGIC>MOL_PROPERTY
Bond
SciTegic.value.DoubleValue
0.241

@<SCITEGIC>MOL_PROPERTY
Angle
SciTegic.value.DoubleValue
3.294

@<SCITEGIC>MOL_PROPERTY
Pdih
SciTegic.value.DoubleValue
7.653

@<SCITEGIC>MOL_PROPERTY
Idih
SciTegic.value.DoubleValue
0.001

@<SCITEGIC>MOL_PROPERTY
Tether
SciTegic.value.DoubleValue
0.000

@<TRIPOS>MOLECULE
guest-8_confgen4.mol2 : confsearch ligand conformer 354
          25          24           1
SMALL
USER_CHARGES
 
@<TRIPOS>ATOM
       1    C1      19.558619   21.949225   21.843539 C.2        1 MOL1         0.6168
       2    O1      18.554639   22.496096   22.256578 O.co2      1 MOL1        -0.6703
       3    O2      19.598779   21.314588   20.807759 O.co2      1 MOL1        -0.6703
       4    C2      20.855298   22.122549   22.632192 C.3        1 MOL1        -0.1963
       5    H1      21.089064   23.193196   22.609060 H          1 MOL1         0.0750
       6    H2      21.667232   21.612495   22.099841 H          1 MOL1         0.0750
       7    C3      20.800185   21.648636   24.111881 C.3        1 MOL1        -0.1860
       8    H3      21.616551   22.141945   24.656511 H          1 MOL1         0.0752
       9    H4      19.869977   21.996622   24.582215 H          1 MOL1         0.0752
      10    C4      20.956379   20.120537   24.310877 C.3        1 MOL1        -0.1858
      11    H5      21.054584   19.924243   25.387356 H          1 MOL1         0.0752
      12    H6      21.893512   19.781375   23.848724 H          1 MOL1         0.0752
      13    C5      19.775408   19.289326   23.760399 C.3        1 MOL1        -0.1858
      14    H7      18.828684   19.695863   24.141830 H          1 MOL1         0.0752
      15    H8      19.741884   19.368416   22.666496 H          1 MOL1         0.0752
      16    C6      19.893979   17.800057   24.151024 C.3        1 MOL1        -0.1858
      17    H9      19.919995   17.707609   25.245438 H          1 MOL1         0.0752
      18    H10     20.843368   17.396610   23.772973 H          1 MOL1         0.0752
      19    C7      18.721217   16.967160   23.592198 C.3        1 MOL1        -0.1834
      20    H11     17.769975   17.367757   23.969185 H          1 MOL1         0.0752
      21    H12     18.692999   17.055861   22.497236 H          1 MOL1         0.0752
      22    C8      18.842561   15.480565   23.983321 C.3        1 MOL1        -0.2849
      23    H13     18.841386   15.360175   25.074594 H          1 MOL1         0.0764
      24    H14     18.001078   14.903901   23.577823 H          1 MOL1         0.0764
      25    H15     19.771459   15.045917   23.591398 H          1 MOL1         0.0764
@<TRIPOS>BOND
    1     1     2    1
    2     1     3    2
    3     1     4    1
    4     4     5    1
    5     4     6    1
    6     4     7    1
    7     7     8    1
    8     7     9    1
    9     7    10    1
   10    10    11    1
   11    10    12    1
   12    10    13    1
   13    13    14    1
   14    13    15    1
   15    13    16    1
   16    16    17    1
   17    16    18    1
   18    16    19    1
   19    19    20    1
   20    19    21    1
   21    19    22    1
   22    22    23    1
   23    22    24    1
   24    22    25    1
@<TRIPOS>SUBSTRUCTURE
       1 MOL1            1 RESIDUE      1      MOL     
@<SCITEGIC>MOL_PROPERTY
VConf Rank
SciTegic.value.IntegerValue
354

@<SCITEGIC>MOL_PROPERTY
Conf_Id
SciTegic.value.IntegerValue
24

@<SCITEGIC>MOL_PROPERTY
Delta U+W
SciTegic.value.DoubleValue
1.784

@<SCITEGIC>MOL_PROPERTY
U+W
SciTegic.value.DoubleValue
-49.846

@<SCITEGIC>MOL_PROPERTY
Grad RMS
SciTegic.value.DoubleValue
0.000000

@<SCITEGIC>MOL_PROPERTY
U
SciTegic.value.DoubleValue
10.904

@<SCITEGIC>MOL_PROPERTY
W
SciTegic.value.DoubleValue
-60.749

@<SCITEGIC>MOL_PROPERTY
W(PB)
SciTegic.value.DoubleValue
-63.220

@<SCITEGIC>MOL_PROPERTY
W(SA)
SciTegic.value.DoubleValue
2.471

@<SCITEGIC>MOL_PROPERTY
Valence
SciTegic.value.DoubleValue
9.445

@<SCITEGIC>MOL_PROPERTY
Coulomb
SciTegic.value.DoubleValue
0.780

@<SCITEGIC>MOL_PROPERTY
VdW
SciTegic.value.DoubleValue
0.679

@<SCITEGIC>MOL_PROPERTY
VdW6
SciTegic.value.DoubleValue
-10.008

@<SCITEGIC>MOL_PROPERTY
VdW12
SciTegic.value.DoubleValue
10.687

@<SCITEGIC>MOL_PROPERTY
Bond
SciTegic.value.DoubleValue
0.201

@<SCITEGIC>MOL_PROPERTY
Angle
SciTegic.value.DoubleValue
3.198

@<SCITEGIC>MOL_PROPERTY
Pdih
SciTegic.value.DoubleValue
6.039

@<SCITEGIC>MOL_PROPERTY
Idih
SciTegic.value.DoubleValue
0.006

@<SCITEGIC>MOL_PROPERTY
Tether
SciTegic.value.DoubleValue
0.000

@<TRIPOS>MOLECULE
guest-8_confgen4.mol2 : confsearch ligand conformer 355
          25          24           1
SMALL
USER_CHARGES
 
@<TRIPOS>ATOM
       1    C1      21.345191   19.846596   26.420251 C.2        1 MOL1         0.6168
       2    O1      21.390768   21.061324   26.419125 O.co2      1 MOL1        -0.6703
       3    O2      20.486261   19.208265   26.996438 O.co2      1 MOL1        -0.6703
       4    C2      22.462741   19.078513   25.717029 C.3        1 MOL1        -0.1963
       5    H1      22.298213   18.003117   25.855735 H          1 MOL1         0.0750
       6    H2      23.388469   19.325426   26.249505 H          1 MOL1         0.0750
       7    C3      22.644548   19.405390   24.207989 C.3        1 MOL1        -0.1860
       8    H3      22.599860   20.492276   24.052176 H          1 MOL1         0.0752
       9    H4      23.657985   19.099936   23.914610 H          1 MOL1         0.0752
      10    C4      21.645158   18.692127   23.263766 C.3        1 MOL1        -0.1858
      11    H5      21.703574   17.605747   23.416086 H          1 MOL1         0.0752
      12    H6      21.962560   18.875942   22.228174 H          1 MOL1         0.0752
      13    C5      20.181351   19.161054   23.425022 C.3        1 MOL1        -0.1858
      14    H7      19.802452   18.867221   24.411989 H          1 MOL1         0.0752
      15    H8      20.137863   20.257791   23.376809 H          1 MOL1         0.0752
      16    C6      19.265395   18.558395   22.337641 C.3        1 MOL1        -0.1858
      17    H9      19.313958   17.461808   22.384216 H          1 MOL1         0.0752
      18    H10     19.630398   18.853130   21.344228 H          1 MOL1         0.0752
      19    C7      17.801406   19.016899   22.504619 C.3        1 MOL1        -0.1834
      20    H11     17.432165   18.722172   23.496789 H          1 MOL1         0.0752
      21    H12     17.749309   20.113508   22.457806 H          1 MOL1         0.0752
      22    C8      16.889149   18.413308   21.417819 C.3        1 MOL1        -0.2849
      23    H13     16.897939   17.316356   21.462460 H          1 MOL1         0.0764
      24    H14     15.852842   18.749658   21.551986 H          1 MOL1         0.0764
      25    H15     17.217454   18.718339   20.415550 H          1 MOL1         0.0764
@<TRIPOS>BOND
    1     1     2    1
    2     1     3    2
    3     1     4    1
    4     4     5    1
    5     4     6    1
    6     4     7    1
    7     7     8    1
    8     7     9    1
    9     7    10    1
   10    10    11    1
   11    10    12    1
   12    10    13    1
   13    13    14    1
   14    13    15    1
   15    13    16    1
   16    16    17    1
   17    16    18    1
   18    16    19    1
   19    19    20    1
   20    19    21    1
   21    19    22    1
   22    22    23    1
   23    22    24    1
   24    22    25    1
@<TRIPOS>SUBSTRUCTURE
       1 MOL1            1 RESIDUE      1      MOL     
@<SCITEGIC>MOL_PROPERTY
VConf Rank
SciTegic.value.IntegerValue
355

@<SCITEGIC>MOL_PROPERTY
Conf_Id
SciTegic.value.IntegerValue
9

@<SCITEGIC>MOL_PROPERTY
Delta U+W
SciTegic.value.DoubleValue
1.764

@<SCITEGIC>MOL_PROPERTY
U+W
SciTegic.value.DoubleValue
-49.865

@<SCITEGIC>MOL_PROPERTY
Grad RMS
SciTegic.value.DoubleValue
0.000000

@<SCITEGIC>MOL_PROPERTY
U
SciTegic.value.DoubleValue
10.902

@<SCITEGIC>MOL_PROPERTY
W
SciTegic.value.DoubleValue
-60.768

@<SCITEGIC>MOL_PROPERTY
W(PB)
SciTegic.value.DoubleValue
-63.223

@<SCITEGIC>MOL_PROPERTY
W(SA)
SciTegic.value.DoubleValue
2.456

@<SCITEGIC>MOL_PROPERTY
Valence
SciTegic.value.DoubleValue
9.445

@<SCITEGIC>MOL_PROPERTY
Coulomb
SciTegic.value.DoubleValue
0.778

@<SCITEGIC>MOL_PROPERTY
VdW
SciTegic.value.DoubleValue
0.679

@<SCITEGIC>MOL_PROPERTY
VdW6
SciTegic.value.DoubleValue
-10.007

@<SCITEGIC>MOL_PROPERTY
VdW12
SciTegic.value.DoubleValue
10.687

@<SCITEGIC>MOL_PROPERTY
Bond
SciTegic.value.DoubleValue
0.201

@<SCITEGIC>MOL_PROPERTY
Angle
SciTegic.value.DoubleValue
3.198

@<SCITEGIC>MOL_PROPERTY
Pdih
SciTegic.value.DoubleValue
6.040

@<SCITEGIC>MOL_PROPERTY
Idih
SciTegic.value.DoubleValue
0.006

@<SCITEGIC>MOL_PROPERTY
Tether
SciTegic.value.DoubleValue
0.000

@<TRIPOS>MOLECULE
guest-8_confgen4.mol2 : confsearch ligand conformer 356
          25          24           1
SMALL
USER_CHARGES
 
@<TRIPOS>ATOM
       1    C1      20.279068   16.090484   25.445140 C.2        1 MOL1         0.6168
       2    O1      19.120847   16.176889   25.802440 O.co2      1 MOL1        -0.6703
       3    O2      20.948008   15.083291   25.567322 O.co2      1 MOL1        -0.6703
       4    C2      20.922794   17.306319   24.788573 C.3        1 MOL1        -0.1963
       5    H1      21.987027   17.308996   25.052504 H          1 MOL1         0.0750
       6    H2      20.480922   18.201598   25.236555 H          1 MOL1         0.0750
       7    C3      20.757575   17.312270   23.245747 C.3        1 MOL1        -0.1860
       8    H3      21.223877   16.398123   22.852893 H          1 MOL1         0.0752
       9    H4      19.693404   17.251095   22.978888 H          1 MOL1         0.0752
      10    C4      21.413344   18.537104   22.558696 C.3        1 MOL1        -0.1858
      11    H5      21.816482   18.209910   21.590532 H          1 MOL1         0.0752
      12    H6      22.278718   18.882858   23.140436 H          1 MOL1         0.0752
      13    C5      20.448506   19.718173   22.284971 C.3        1 MOL1        -0.1858
      14    H7      20.996164   20.488064   21.724714 H          1 MOL1         0.0752
      15    H8      19.639187   19.374318   21.627558 H          1 MOL1         0.0752
      16    C6      19.848659   20.356969   23.559842 C.3        1 MOL1        -0.1858
      17    H9      20.656839   20.556566   24.276362 H          1 MOL1         0.0752
      18    H10     19.162506   19.648662   24.042277 H          1 MOL1         0.0752
      19    C7      19.095504   21.679394   23.285098 C.3        1 MOL1        -0.1834
      20    H11     18.788145   22.116479   24.245125 H          1 MOL1         0.0752
      21    H12     19.776365   22.404349   22.818085 H          1 MOL1         0.0752
      22    C8      17.845017   21.495497   22.398086 C.3        1 MOL1        -0.2849
      23    H13     17.160652   20.755396   22.832873 H          1 MOL1         0.0764
      24    H14     17.300408   22.443507   22.300473 H          1 MOL1         0.0764
      25    H15     18.116335   21.162296   21.388514 H          1 MOL1         0.0764
@<TRIPOS>BOND
    1     1     2    1
    2     1     3    2
    3     1     4    1
    4     4     5    1
    5     4     6    1
    6     4     7    1
    7     7     8    1
    8     7     9    1
    9     7    10    1
   10    10    11    1
   11    10    12    1
   12    10    13    1
   13    13    14    1
   14    13    15    1
   15    13    16    1
   16    16    17    1
   17    16    18    1
   18    16    19    1
   19    19    20    1
   20    19    21    1
   21    19    22    1
   22    22    23    1
   23    22    24    1
   24    22    25    1
@<TRIPOS>SUBSTRUCTURE
       1 MOL1            1 RESIDUE      1      MOL     
@<SCITEGIC>MOL_PROPERTY
VConf Rank
SciTegic.value.IntegerValue
356

@<SCITEGIC>MOL_PROPERTY
Conf_Id
SciTegic.value.IntegerValue
89

@<SCITEGIC>MOL_PROPERTY
Delta U+W
SciTegic.value.DoubleValue
2.903

@<SCITEGIC>MOL_PROPERTY
U+W
SciTegic.value.DoubleValue
-48.726

@<SCITEGIC>MOL_PROPERTY
Grad RMS
SciTegic.value.DoubleValue
0.000000

@<SCITEGIC>MOL_PROPERTY
U
SciTegic.value.DoubleValue
10.996

@<SCITEGIC>MOL_PROPERTY
W
SciTegic.value.DoubleValue
-59.723

@<SCITEGIC>MOL_PROPERTY
W(PB)
SciTegic.value.DoubleValue
-62.151

@<SCITEGIC>MOL_PROPERTY
W(SA)
SciTegic.value.DoubleValue
2.428

@<SCITEGIC>MOL_PROPERTY
Valence
SciTegic.value.DoubleValue
10.985

@<SCITEGIC>MOL_PROPERTY
Coulomb
SciTegic.value.DoubleValue
-0.995

@<SCITEGIC>MOL_PROPERTY
VdW
SciTegic.value.DoubleValue
1.006

@<SCITEGIC>MOL_PROPERTY
VdW6
SciTegic.value.DoubleValue
-10.062

@<SCITEGIC>MOL_PROPERTY
VdW12
SciTegic.value.DoubleValue
11.069

@<SCITEGIC>MOL_PROPERTY
Bond
SciTegic.value.DoubleValue
0.238

@<SCITEGIC>MOL_PROPERTY
Angle
SciTegic.value.DoubleValue
3.202

@<SCITEGIC>MOL_PROPERTY
Pdih
SciTegic.value.DoubleValue
7.544

@<SCITEGIC>MOL_PROPERTY
Idih
SciTegic.value.DoubleValue
0.001

@<SCITEGIC>MOL_PROPERTY
Tether
SciTegic.value.DoubleValue
0.000

@<TRIPOS>MOLECULE
guest-8_confgen4.mol2 : confsearch ligand conformer 357
          25          24           1
SMALL
USER_CHARGES
 
@<TRIPOS>ATOM
       1    C1      19.058109   15.717668   23.510972 C.2        1 MOL1         0.6168
       2    O1      18.065084   15.836689   24.201622 O.co2      1 MOL1        -0.6703
       3    O2      19.026802   15.374981   22.345128 O.co2      1 MOL1        -0.6703
       4    C2      20.420116   15.948951   24.162656 C.3        1 MOL1        -0.1963
       5    H1      20.940212   14.984396   24.137937 H          1 MOL1         0.0750
       6    H2      20.272065   16.198263   25.220340 H          1 MOL1         0.0750
       7    C3      21.311623   17.021524   23.475354 C.3        1 MOL1        -0.1860
       8    H3      22.353655   16.830605   23.765459 H          1 MOL1         0.0752
       9    H4      21.274977   16.896959   22.384155 H          1 MOL1         0.0752
      10    C4      20.979377   18.486437   23.854267 C.3        1 MOL1        -0.1858
      11    H5      21.774503   19.123214   23.447071 H          1 MOL1         0.0752
      12    H6      21.018285   18.603537   24.945747 H          1 MOL1         0.0752
      13    C5      19.609562   18.978361   23.327008 C.3        1 MOL1        -0.1858
      14    H7      19.542434   18.806847   22.244027 H          1 MOL1         0.0752
      15    H8      18.810849   18.383952   23.786978 H          1 MOL1         0.0752
      16    C6      19.326631   20.468069   23.636999 C.3        1 MOL1        -0.1858
      17    H9      19.426088   20.645069   24.716631 H          1 MOL1         0.0752
      18    H10     18.279075   20.680704   23.383398 H          1 MOL1         0.0752
      19    C7      20.235459   21.447580   22.859804 C.3        1 MOL1        -0.1834
      20    H11     21.283214   21.311795   23.157297 H          1 MOL1         0.0752
      21    H12     20.177048   21.232592   21.783906 H          1 MOL1         0.0752
      22    C8      19.830674   22.914231   23.111159 C.3        1 MOL1        -0.2849
      23    H13     19.905770   23.164747   24.177447 H          1 MOL1         0.0764
      24    H14     20.486412   23.597110   22.555520 H          1 MOL1         0.0764
      25    H15     18.797871   23.098310   22.787470 H          1 MOL1         0.0764
@<TRIPOS>BOND
    1     1     2    1
    2     1     3    2
    3     1     4    1
    4     4     5    1
    5     4     6    1
    6     4     7    1
    7     7     8    1
    8     7     9    1
    9     7    10    1
   10    10    11    1
   11    10    12    1
   12    10    13    1
   13    13    14    1
   14    13    15    1
   15    13    16    1
   16    16    17    1
   17    16    18    1
   18    16    19    1
   19    19    20    1
   20    19    21    1
   21    19    22    1
   22    22    23    1
   23    22    24    1
   24    22    25    1
@<TRIPOS>SUBSTRUCTURE
       1 MOL1            1 RESIDUE      1      MOL     
@<SCITEGIC>MOL_PROPERTY
VConf Rank
SciTegic.value.IntegerValue
357

@<SCITEGIC>MOL_PROPERTY
Conf_Id
SciTegic.value.IntegerValue
114

@<SCITEGIC>MOL_PROPERTY
Delta U+W
SciTegic.value.DoubleValue
2.758

@<SCITEGIC>MOL_PROPERTY
U+W
SciTegic.value.DoubleValue
-48.871

@<SCITEGIC>MOL_PROPERTY
Grad RMS
SciTegic.value.DoubleValue
0.000000

@<SCITEGIC>MOL_PROPERTY
U
SciTegic.value.DoubleValue
11.422

@<SCITEGIC>MOL_PROPERTY
W
SciTegic.value.DoubleValue
-60.293

@<SCITEGIC>MOL_PROPERTY
W(PB)
SciTegic.value.DoubleValue
-62.719

@<SCITEGIC>MOL_PROPERTY
W(SA)
SciTegic.value.DoubleValue
2.425

@<SCITEGIC>MOL_PROPERTY
Valence
SciTegic.value.DoubleValue
10.135

@<SCITEGIC>MOL_PROPERTY
Coulomb
SciTegic.value.DoubleValue
0.369

@<SCITEGIC>MOL_PROPERTY
VdW
SciTegic.value.DoubleValue
0.918

@<SCITEGIC>MOL_PROPERTY
VdW6
SciTegic.value.DoubleValue
-10.482

@<SCITEGIC>MOL_PROPERTY
VdW12
SciTegic.value.DoubleValue
11.400

@<SCITEGIC>MOL_PROPERTY
Bond
SciTegic.value.DoubleValue
0.245

@<SCITEGIC>MOL_PROPERTY
Angle
SciTegic.value.DoubleValue
3.539

@<SCITEGIC>MOL_PROPERTY
Pdih
SciTegic.value.DoubleValue
6.346

@<SCITEGIC>MOL_PROPERTY
Idih
SciTegic.value.DoubleValue
0.006

@<SCITEGIC>MOL_PROPERTY
Tether
SciTegic.value.DoubleValue
0.000

@<TRIPOS>MOLECULE
guest-8_confgen4.mol2 : confsearch ligand conformer 358
          25          24           1
SMALL
USER_CHARGES
 
@<TRIPOS>ATOM
       1    C1      18.205818   16.694151   25.608523 C.2        1 MOL1         0.6168
       2    O1      18.995437   15.842697   25.967121 O.co2      1 MOL1        -0.6703
       3    O2      17.625422   17.438610   26.374041 O.co2      1 MOL1        -0.6703
       4    C2      17.909738   16.823649   24.117042 C.3        1 MOL1        -0.1963
       5    H1      16.822565   16.909184   24.004280 H          1 MOL1         0.0750
       6    H2      18.208218   15.893295   23.618918 H          1 MOL1         0.0750
       7    C3      18.597922   18.038537   23.442188 C.3        1 MOL1        -0.1860
       8    H3      18.229965   18.129601   22.411380 H          1 MOL1         0.0752
       9    H4      18.297847   18.953807   23.969030 H          1 MOL1         0.0752
      10    C4      20.140175   17.910431   23.424896 C.3        1 MOL1        -0.1858
      11    H5      20.411580   16.944357   22.977812 H          1 MOL1         0.0752
      12    H6      20.525485   17.893486   24.453755 H          1 MOL1         0.0752
      13    C5      20.845985   19.033978   22.628555 C.3        1 MOL1        -0.1858
      14    H7      21.909913   18.776722   22.550699 H          1 MOL1         0.0752
      15    H8      20.455628   19.058932   21.602143 H          1 MOL1         0.0752
      16    C6      20.702063   20.432967   23.277136 C.3        1 MOL1        -0.1858
      17    H9      21.089276   20.406469   24.304776 H          1 MOL1         0.0752
      18    H10     19.638756   20.693541   23.351591 H          1 MOL1         0.0752
      19    C7      21.414431   21.553989   22.484495 C.3        1 MOL1        -0.1834
      20    H11     21.037788   21.575815   21.452529 H          1 MOL1         0.0752
      21    H12     21.150100   22.522368   22.931273 H          1 MOL1         0.0752
      22    C8      22.952656   21.417351   22.474532 C.3        1 MOL1        -0.2849
      23    H13     23.411462   22.285574   21.984034 H          1 MOL1         0.0764
      24    H14     23.348603   21.358728   23.496737 H          1 MOL1         0.0764
      25    H15     23.272981   20.521280   21.928771 H          1 MOL1         0.0764
@<TRIPOS>BOND
    1     1     2    1
    2     1     3    2
    3     1     4    1
    4     4     5    1
    5     4     6    1
    6     4     7    1
    7     7     8    1
    8     7     9    1
    9     7    10    1
   10    10    11    1
   11    10    12    1
   12    10    13    1
   13    13    14    1
   14    13    15    1
   15    13    16    1
   16    16    17    1
   17    16    18    1
   18    16    19    1
   19    19    20    1
   20    19    21    1
   21    19    22    1
   22    22    23    1
   23    22    24    1
   24    22    25    1
@<TRIPOS>SUBSTRUCTURE
       1 MOL1            1 RESIDUE      1      MOL     
@<SCITEGIC>MOL_PROPERTY
VConf Rank
SciTegic.value.IntegerValue
358

@<SCITEGIC>MOL_PROPERTY
Conf_Id
SciTegic.value.IntegerValue
87

@<SCITEGIC>MOL_PROPERTY
Delta U+W
SciTegic.value.DoubleValue
1.453

@<SCITEGIC>MOL_PROPERTY
U+W
SciTegic.value.DoubleValue
-50.176

@<SCITEGIC>MOL_PROPERTY
Grad RMS
SciTegic.value.DoubleValue
0.000000

@<SCITEGIC>MOL_PROPERTY
U
SciTegic.value.DoubleValue
9.763

@<SCITEGIC>MOL_PROPERTY
W
SciTegic.value.DoubleValue
-59.940

@<SCITEGIC>MOL_PROPERTY
W(PB)
SciTegic.value.DoubleValue
-62.392

@<SCITEGIC>MOL_PROPERTY
W(SA)
SciTegic.value.DoubleValue
2.452

@<SCITEGIC>MOL_PROPERTY
Valence
SciTegic.value.DoubleValue
8.883

@<SCITEGIC>MOL_PROPERTY
Coulomb
SciTegic.value.DoubleValue
-0.122

@<SCITEGIC>MOL_PROPERTY
VdW
SciTegic.value.DoubleValue
1.003

@<SCITEGIC>MOL_PROPERTY
VdW6
SciTegic.value.DoubleValue
-9.782

@<SCITEGIC>MOL_PROPERTY
VdW12
SciTegic.value.DoubleValue
10.785

@<SCITEGIC>MOL_PROPERTY
Bond
SciTegic.value.DoubleValue
0.212

@<SCITEGIC>MOL_PROPERTY
Angle
SciTegic.value.DoubleValue
2.940

@<SCITEGIC>MOL_PROPERTY
Pdih
SciTegic.value.DoubleValue
5.730

@<SCITEGIC>MOL_PROPERTY
Idih
SciTegic.value.DoubleValue
0.001

@<SCITEGIC>MOL_PROPERTY
Tether
SciTegic.value.DoubleValue
0.000

@<TRIPOS>MOLECULE
guest-8_confgen4.mol2 : confsearch ligand conformer 359
          25          24           1
SMALL
USER_CHARGES
 
@<TRIPOS>ATOM
       1    C1      22.045934   20.406738   20.166213 C.2        1 MOL1         0.6168
       2    O1      23.164057   19.978780   20.374387 O.co2      1 MOL1        -0.6703
       3    O2      21.574673   20.546659   19.054873 O.co2      1 MOL1        -0.6703
       4    C2      21.179483   20.771117   21.366487 C.3        1 MOL1        -0.1963
       5    H1      20.532489   21.608140   21.077917 H          1 MOL1         0.0750
       6    H2      21.838487   21.130759   22.165828 H          1 MOL1         0.0750
       7    C3      20.324586   19.583692   21.873560 C.3        1 MOL1        -0.1860
       8    H3      19.676318   19.228914   21.060526 H          1 MOL1         0.0752
       9    H4      20.992154   18.752636   22.137155 H          1 MOL1         0.0752
      10    C4      19.461691   19.978161   23.094393 C.3        1 MOL1        -0.1858
      11    H5      18.852074   20.853793   22.833132 H          1 MOL1         0.0752
      12    H6      20.110593   20.294887   23.921446 H          1 MOL1         0.0752
      13    C5      18.514100   18.848667   23.570475 C.3        1 MOL1        -0.1858
      14    H7      17.898401   19.227280   24.396881 H          1 MOL1         0.0752
      15    H8      17.810678   18.611888   22.760782 H          1 MOL1         0.0752
      16    C6      19.215937   17.538076   24.014995 C.3        1 MOL1        -0.1858
      17    H9      19.697572   17.070999   23.146012 H          1 MOL1         0.0752
      18    H10     18.448529   16.825624   24.346636 H          1 MOL1         0.0752
      19    C7      20.264806   17.701404   25.142526 C.3        1 MOL1        -0.1834
      20    H11     20.708851   16.718805   25.352836 H          1 MOL1         0.0752
      21    H12     21.089865   18.340690   24.801317 H          1 MOL1         0.0752
      22    C8      19.671575   18.269003   26.450177 C.3        1 MOL1        -0.2849
      23    H13     18.833205   17.653271   26.800811 H          1 MOL1         0.0764
      24    H14     20.432371   18.287592   27.241108 H          1 MOL1         0.0764
      25    H15     19.310578   19.295797   26.311173 H          1 MOL1         0.0764
@<TRIPOS>BOND
    1     1     2    1
    2     1     3    2
    3     1     4    1
    4     4     5    1
    5     4     6    1
    6     4     7    1
    7     7     8    1
    8     7     9    1
    9     7    10    1
   10    10    11    1
   11    10    12    1
   12    10    13    1
   13    13    14    1
   14    13    15    1
   15    13    16    1
   16    16    17    1
   17    16    18    1
   18    16    19    1
   19    19    20    1
   20    19    21    1
   21    19    22    1
   22    22    23    1
   23    22    24    1
   24    22    25    1
@<TRIPOS>SUBSTRUCTURE
       1 MOL1            1 RESIDUE      1      MOL     
@<SCITEGIC>MOL_PROPERTY
VConf Rank
SciTegic.value.IntegerValue
359

@<SCITEGIC>MOL_PROPERTY
Conf_Id
SciTegic.value.IntegerValue
29

@<SCITEGIC>MOL_PROPERTY
Delta U+W
SciTegic.value.DoubleValue
0.850

@<SCITEGIC>MOL_PROPERTY
U+W
SciTegic.value.DoubleValue
-50.780

@<SCITEGIC>MOL_PROPERTY
Grad RMS
SciTegic.value.DoubleValue
0.000000

@<SCITEGIC>MOL_PROPERTY
U
SciTegic.value.DoubleValue
8.646

@<SCITEGIC>MOL_PROPERTY
W
SciTegic.value.DoubleValue
-59.426

@<SCITEGIC>MOL_PROPERTY
W(PB)
SciTegic.value.DoubleValue
-61.868

@<SCITEGIC>MOL_PROPERTY
W(SA)
SciTegic.value.DoubleValue
2.442

@<SCITEGIC>MOL_PROPERTY
Valence
SciTegic.value.DoubleValue
8.924

@<SCITEGIC>MOL_PROPERTY
Coulomb
SciTegic.value.DoubleValue
-1.171

@<SCITEGIC>MOL_PROPERTY
VdW
SciTegic.value.DoubleValue
0.894

@<SCITEGIC>MOL_PROPERTY
VdW6
SciTegic.value.DoubleValue
-10.223

@<SCITEGIC>MOL_PROPERTY
VdW12
SciTegic.value.DoubleValue
11.117

@<SCITEGIC>MOL_PROPERTY
Bond
SciTegic.value.DoubleValue
0.231

@<SCITEGIC>MOL_PROPERTY
Angle
SciTegic.value.DoubleValue
3.232

@<SCITEGIC>MOL_PROPERTY
Pdih
SciTegic.value.DoubleValue
5.461

@<SCITEGIC>MOL_PROPERTY
Idih
SciTegic.value.DoubleValue
0.001

@<SCITEGIC>MOL_PROPERTY
Tether
SciTegic.value.DoubleValue
0.000

@<TRIPOS>MOLECULE
guest-8_confgen4.mol2 : confsearch ligand conformer 360
          25          24           1
SMALL
USER_CHARGES
 
@<TRIPOS>ATOM
       1    C1      18.762895   19.281038   19.573603 C.2        1 MOL1         0.6168
       2    O1      19.291313   20.296184   19.165023 O.co2      1 MOL1        -0.6703
       3    O2      17.689065   18.874070   19.176102 O.co2      1 MOL1        -0.6703
       4    C2      19.477849   18.483793   20.658690 C.3        1 MOL1        -0.1963
       5    H1      20.558236   18.600085   20.510993 H          1 MOL1         0.0750
       6    H2      19.242576   17.422757   20.512639 H          1 MOL1         0.0750
       7    C3      19.084061   18.927572   22.089056 C.3        1 MOL1        -0.1860
       8    H3      19.310265   19.995914   22.204225 H          1 MOL1         0.0752
       9    H4      17.999109   18.813530   22.219505 H          1 MOL1         0.0752
      10    C4      19.828267   18.108758   23.169025 C.3        1 MOL1        -0.1858
      11    H5      20.911537   18.253793   23.064630 H          1 MOL1         0.0752
      12    H6      19.646079   17.039502   22.995473 H          1 MOL1         0.0752
      13    C5      19.387476   18.450287   24.614500 C.3        1 MOL1        -0.1858
      14    H7      18.321821   18.208631   24.726104 H          1 MOL1         0.0752
      15    H8      19.916386   17.787885   25.312253 H          1 MOL1         0.0752
      16    C6      19.607801   19.925117   25.043634 C.3        1 MOL1        -0.1858
      17    H9      19.278317   20.039148   26.085232 H          1 MOL1         0.0752
      18    H10     18.951704   20.577432   24.452628 H          1 MOL1         0.0752
      19    C7      21.064547   20.436450   24.922964 C.3        1 MOL1        -0.1834
      20    H11     21.386598   20.415444   23.873356 H          1 MOL1         0.0752
      21    H12     21.091815   21.491489   25.228007 H          1 MOL1         0.0752
      22    C8      22.063997   19.641938   25.791230 C.3        1 MOL1        -0.2849
      23    H13     22.148340   18.602127   25.451191 H          1 MOL1         0.0764
      24    H14     23.063408   20.092398   25.736536 H          1 MOL1         0.0764
      25    H15     21.751959   19.636308   26.843625 H          1 MOL1         0.0764
@<TRIPOS>BOND
    1     1     2    1
    2     1     3    2
    3     1     4    1
    4     4     5    1
    5     4     6    1
    6     4     7    1
    7     7     8    1
    8     7     9    1
    9     7    10    1
   10    10    11    1
   11    10    12    1
   12    10    13    1
   13    13    14    1
   14    13    15    1
   15    13    16    1
   16    16    17    1
   17    16    18    1
   18    16    19    1
   19    19    20    1
   20    19    21    1
   21    19    22    1
   22    22    23    1
   23    22    24    1
   24    22    25    1
@<TRIPOS>SUBSTRUCTURE
       1 MOL1            1 RESIDUE      1      MOL     
@<SCITEGIC>MOL_PROPERTY
VConf Rank
SciTegic.value.IntegerValue
360

@<SCITEGIC>MOL_PROPERTY
Conf_Id
SciTegic.value.IntegerValue
30

@<SCITEGIC>MOL_PROPERTY
Delta U+W
SciTegic.value.DoubleValue
0.843

@<SCITEGIC>MOL_PROPERTY
U+W
SciTegic.value.DoubleValue
-50.787

@<SCITEGIC>MOL_PROPERTY
Grad RMS
SciTegic.value.DoubleValue
0.000000

@<SCITEGIC>MOL_PROPERTY
U
SciTegic.value.DoubleValue
8.647

@<SCITEGIC>MOL_PROPERTY
W
SciTegic.value.DoubleValue
-59.434

@<SCITEGIC>MOL_PROPERTY
W(PB)
SciTegic.value.DoubleValue
-61.861

@<SCITEGIC>MOL_PROPERTY
W(SA)
SciTegic.value.DoubleValue
2.428

@<SCITEGIC>MOL_PROPERTY
Valence
SciTegic.value.DoubleValue
8.924

@<SCITEGIC>MOL_PROPERTY
Coulomb
SciTegic.value.DoubleValue
-1.170

@<SCITEGIC>MOL_PROPERTY
VdW
SciTegic.value.DoubleValue
0.894

@<SCITEGIC>MOL_PROPERTY
VdW6
SciTegic.value.DoubleValue
-10.224

@<SCITEGIC>MOL_PROPERTY
VdW12
SciTegic.value.DoubleValue
11.118

@<SCITEGIC>MOL_PROPERTY
Bond
SciTegic.value.DoubleValue
0.231

@<SCITEGIC>MOL_PROPERTY
Angle
SciTegic.value.DoubleValue
3.232

@<SCITEGIC>MOL_PROPERTY
Pdih
SciTegic.value.DoubleValue
5.460

@<SCITEGIC>MOL_PROPERTY
Idih
SciTegic.value.DoubleValue
0.000

@<SCITEGIC>MOL_PROPERTY
Tether
SciTegic.value.DoubleValue
0.000

@<TRIPOS>MOLECULE
guest-8_confgen4.mol2 : confsearch ligand conformer 361
          25          24           1
SMALL
USER_CHARGES
 
@<TRIPOS>ATOM
       1    C1      18.568205   18.614904   18.707367 C.2        1 MOL1         0.6168
       2    O1      18.978659   19.701716   18.348242 O.co2      1 MOL1        -0.6703
       3    O2      17.996237   17.842611   17.964041 O.co2      1 MOL1        -0.6703
       4    C2      18.765944   18.170675   20.157525 C.3        1 MOL1        -0.1963
       5    H1      19.320079   17.224937   20.137004 H          1 MOL1         0.0750
       6    H2      17.774154   17.952729   20.570754 H          1 MOL1         0.0750
       7    C3      19.501249   19.189961   21.067910 C.3        1 MOL1        -0.1860
       8    H3      20.491467   19.408624   20.644638 H          1 MOL1         0.0752
       9    H4      18.944124   20.137061   21.078835 H          1 MOL1         0.0752
      10    C4      19.657925   18.662689   22.510852 C.3        1 MOL1        -0.1858
      11    H5      20.215102   17.715847   22.497447 H          1 MOL1         0.0752
      12    H6      18.666792   18.444761   22.931921 H          1 MOL1         0.0752
      13    C5      20.389621   19.678169   23.414682 C.3        1 MOL1        -0.1858
      14    H7      21.380811   19.896265   22.993873 H          1 MOL1         0.0752
      15    H8      19.832643   20.625108   23.428319 H          1 MOL1         0.0752
      16    C6      20.546621   19.151580   24.857585 C.3        1 MOL1        -0.1858
      17    H9      21.103624   18.204658   24.844188 H          1 MOL1         0.0752
      18    H10     19.555531   18.933514   25.278633 H          1 MOL1         0.0752
      19    C7      21.278018   20.166511   25.761097 C.3        1 MOL1        -0.1834
      20    H11     22.270739   20.385694   25.344020 H          1 MOL1         0.0752
      21    H12     20.722660   21.114542   25.778470 H          1 MOL1         0.0752
      22    C8      21.432815   19.637012   27.200983 C.3        1 MOL1        -0.2849
      23    H13     22.012351   18.704652   27.216489 H          1 MOL1         0.0764
      24    H14     21.954551   20.370768   27.829059 H          1 MOL1         0.0764
      25    H15     20.452627   19.439005   27.654218 H          1 MOL1         0.0764
@<TRIPOS>BOND
    1     1     2    1
    2     1     3    2
    3     1     4    1
    4     4     5    1
    5     4     6    1
    6     4     7    1
    7     7     8    1
    8     7     9    1
    9     7    10    1
   10    10    11    1
   11    10    12    1
   12    10    13    1
   13    13    14    1
   14    13    15    1
   15    13    16    1
   16    16    17    1
   17    16    18    1
   18    16    19    1
   19    19    20    1
   20    19    21    1
   21    19    22    1
   22    22    23    1
   23    22    24    1
   24    22    25    1
@<TRIPOS>SUBSTRUCTURE
       1 MOL1            1 RESIDUE      1      MOL     
@<SCITEGIC>MOL_PROPERTY
VConf Rank
SciTegic.value.IntegerValue
361

@<SCITEGIC>MOL_PROPERTY
Conf_Id
SciTegic.value.IntegerValue
0

@<SCITEGIC>MOL_PROPERTY
Delta U+W
SciTegic.value.DoubleValue
0.000

@<SCITEGIC>MOL_PROPERTY
U+W
SciTegic.value.DoubleValue
-51.629

@<SCITEGIC>MOL_PROPERTY
Grad RMS
SciTegic.value.DoubleValue
0.000000

@<SCITEGIC>MOL_PROPERTY
U
SciTegic.value.DoubleValue
6.586

@<SCITEGIC>MOL_PROPERTY
W
SciTegic.value.DoubleValue
-58.216

@<SCITEGIC>MOL_PROPERTY
W(PB)
SciTegic.value.DoubleValue
-60.757

@<SCITEGIC>MOL_PROPERTY
W(SA)
SciTegic.value.DoubleValue
2.541

@<SCITEGIC>MOL_PROPERTY
Valence
SciTegic.value.DoubleValue
8.027

@<SCITEGIC>MOL_PROPERTY
Coulomb
SciTegic.value.DoubleValue
-2.892

@<SCITEGIC>MOL_PROPERTY
VdW
SciTegic.value.DoubleValue
1.451

@<SCITEGIC>MOL_PROPERTY
VdW6
SciTegic.value.DoubleValue
-7.931

@<SCITEGIC>MOL_PROPERTY
VdW12
SciTegic.value.DoubleValue
9.383

@<SCITEGIC>MOL_PROPERTY
Bond
SciTegic.value.DoubleValue
0.149

@<SCITEGIC>MOL_PROPERTY
Angle
SciTegic.value.DoubleValue
2.726

@<SCITEGIC>MOL_PROPERTY
Pdih
SciTegic.value.DoubleValue
5.152

@<SCITEGIC>MOL_PROPERTY
Idih
SciTegic.value.DoubleValue
0.000

@<SCITEGIC>MOL_PROPERTY
Tether
SciTegic.value.DoubleValue
0.000

@<TRIPOS>MOLECULE
guest-8_confgen4.mol2 : confsearch ligand conformer 362
          25          24           1
SMALL
USER_CHARGES
 
@<TRIPOS>ATOM
       1    C1      19.414434   14.588156   23.875734 C.2        1 MOL1         0.6168
       2    O1      20.407883   13.899760   23.750072 O.co2      1 MOL1        -0.6703
       3    O2      18.515728   14.337847   24.654382 O.co2      1 MOL1        -0.6703
       4    C2      19.299936   15.848420   23.025614 C.3        1 MOL1        -0.1963
       5    H1      18.238040   16.020053   22.812250 H          1 MOL1         0.0750
       6    H2      19.796897   15.658696   22.066635 H          1 MOL1         0.0750
       7    C3      19.915919   17.093466   23.710048 C.3        1 MOL1        -0.1860
       8    H3      19.416565   17.261759   24.674369 H          1 MOL1         0.0752
       9    H4      20.975349   16.900336   23.928910 H          1 MOL1         0.0752
      10    C4      19.787756   18.355702   22.830072 C.3        1 MOL1        -0.1858
      11    H5      18.727688   18.545354   22.612199 H          1 MOL1         0.0752
      12    H6      20.286724   18.183723   21.866416 H          1 MOL1         0.0752
      13    C5      20.402845   19.595142   23.514851 C.3        1 MOL1        -0.1858
      14    H7      19.903991   19.767360   24.478485 H          1 MOL1         0.0752
      15    H8      21.462901   19.405707   23.732792 H          1 MOL1         0.0752
      16    C6      20.275105   20.857753   22.635433 C.3        1 MOL1        -0.1858
      17    H9      19.215133   21.047526   22.417393 H          1 MOL1         0.0752
      18    H10     20.773885   20.685850   21.671709 H          1 MOL1         0.0752
      19    C7      20.889943   22.096738   23.319722 C.3        1 MOL1        -0.1834
      20    H11     20.392151   22.272967   24.283378 H          1 MOL1         0.0752
      21    H12     21.950888   21.911309   23.537672 H          1 MOL1         0.0752
      22    C8      20.760372   23.355386   22.438462 C.3        1 MOL1        -0.2849
      23    H13     21.202358   24.226093   22.940063 H          1 MOL1         0.0764
      24    H14     21.276998   23.218348   21.479444 H          1 MOL1         0.0764
      25    H15     19.706532   23.582721   22.230767 H          1 MOL1         0.0764
@<TRIPOS>BOND
    1     1     2    1
    2     1     3    2
    3     1     4    1
    4     4     5    1
    5     4     6    1
    6     4     7    1
    7     7     8    1
    8     7     9    1
    9     7    10    1
   10    10    11    1
   11    10    12    1
   12    10    13    1
   13    13    14    1
   14    13    15    1
   15    13    16    1
   16    16    17    1
   17    16    18    1
   18    16    19    1
   19    19    20    1
   20    19    21    1
   21    19    22    1
   22    22    23    1
   23    22    24    1
   24    22    25    1
@<TRIPOS>SUBSTRUCTURE
       1 MOL1            1 RESIDUE      1      MOL     
@<SCITEGIC>MOL_PROPERTY
VConf Rank
SciTegic.value.IntegerValue
362

@<SCITEGIC>MOL_PROPERTY
Conf_Id
SciTegic.value.IntegerValue
27

@<SCITEGIC>MOL_PROPERTY
Delta U+W
SciTegic.value.DoubleValue
-1.297

@<SCITEGIC>MOL_PROPERTY
U+W
SciTegic.value.DoubleValue
-52.926

@<SCITEGIC>MOL_PROPERTY
Grad RMS
SciTegic.value.DoubleValue
0.000000

@<SCITEGIC>MOL_PROPERTY
U
SciTegic.value.DoubleValue
5.617

@<SCITEGIC>MOL_PROPERTY
W
SciTegic.value.DoubleValue
-58.543

@<SCITEGIC>MOL_PROPERTY
W(PB)
SciTegic.value.DoubleValue
-61.065

@<SCITEGIC>MOL_PROPERTY
W(SA)
SciTegic.value.DoubleValue
2.522

@<SCITEGIC>MOL_PROPERTY
Valence
SciTegic.value.DoubleValue
7.531

@<SCITEGIC>MOL_PROPERTY
Coulomb
SciTegic.value.DoubleValue
-2.818

@<SCITEGIC>MOL_PROPERTY
VdW
SciTegic.value.DoubleValue
0.904

@<SCITEGIC>MOL_PROPERTY
VdW6
SciTegic.value.DoubleValue
-7.640

@<SCITEGIC>MOL_PROPERTY
VdW12
SciTegic.value.DoubleValue
8.544

@<SCITEGIC>MOL_PROPERTY
Bond
SciTegic.value.DoubleValue
0.115

@<SCITEGIC>MOL_PROPERTY
Angle
SciTegic.value.DoubleValue
2.271

@<SCITEGIC>MOL_PROPERTY
Pdih
SciTegic.value.DoubleValue
5.144

@<SCITEGIC>MOL_PROPERTY
Idih
SciTegic.value.DoubleValue
0.001

@<SCITEGIC>MOL_PROPERTY
Tether
SciTegic.value.DoubleValue
0.000

@<TRIPOS>MOLECULE
guest-8_confgen4.mol2 : confsearch ligand conformer 363
          25          24           1
SMALL
USER_CHARGES
 
@<TRIPOS>ATOM
       1    C1      21.848453   19.788515   26.960227 C.2        1 MOL1         0.6168
       2    O1      21.025583   19.944395   27.840943 O.co2      1 MOL1        -0.6703
       3    O2      22.610412   18.843016   26.911096 O.co2      1 MOL1        -0.6703
       4    C2      21.939518   20.848387   25.865995 C.3        1 MOL1        -0.1963
       5    H1      22.913354   20.756648   25.369938 H          1 MOL1         0.0750
       6    H2      21.924399   21.828574   26.356903 H          1 MOL1         0.0750
       7    C3      20.796573   20.774727   24.820435 C.3        1 MOL1        -0.1860
       8    H3      19.827782   20.840094   25.335064 H          1 MOL1         0.0752
       9    H4      20.862374   21.648690   24.158311 H          1 MOL1         0.0752
      10    C4      20.851450   19.485842   23.969828 C.3        1 MOL1        -0.1858
      11    H5      20.768521   18.606779   24.623887 H          1 MOL1         0.0752
      12    H6      21.826592   19.418351   23.468264 H          1 MOL1         0.0752
      13    C5      19.724597   19.448423   22.915107 C.3        1 MOL1        -0.1858
      14    H7      18.749901   19.515943   23.417598 H          1 MOL1         0.0752
      15    H8      19.807341   20.325002   22.257992 H          1 MOL1         0.0752
      16    C6      19.778296   18.160436   22.065363 C.3        1 MOL1        -0.1858
      17    H9      19.695632   17.283724   22.722381 H          1 MOL1         0.0752
      18    H10     20.753059   18.092535   21.563060 H          1 MOL1         0.0752
      19    C7      18.651834   18.122328   21.011322 C.3        1 MOL1        -0.1834
      20    H11     17.675095   18.188203   21.510445 H          1 MOL1         0.0752
      21    H12     18.732566   18.996967   20.351044 H          1 MOL1         0.0752
      22    C8      18.708904   16.834592   20.165104 C.3        1 MOL1        -0.2849
      23    H13     18.598724   15.943844   20.797421 H          1 MOL1         0.0764
      24    H14     17.901501   16.824202   19.421415 H          1 MOL1         0.0764
      25    H15     19.664183   16.758653   19.629314 H          1 MOL1         0.0764
@<TRIPOS>BOND
    1     1     2    1
    2     1     3    2
    3     1     4    1
    4     4     5    1
    5     4     6    1
    6     4     7    1
    7     7     8    1
    8     7     9    1
    9     7    10    1
   10    10    11    1
   11    10    12    1
   12    10    13    1
   13    13    14    1
   14    13    15    1
   15    13    16    1
   16    16    17    1
   17    16    18    1
   18    16    19    1
   19    19    20    1
   20    19    21    1
   21    19    22    1
   22    22    23    1
   23    22    24    1
   24    22    25    1
@<TRIPOS>SUBSTRUCTURE
       1 MOL1            1 RESIDUE      1      MOL     
@<SCITEGIC>MOL_PROPERTY
VConf Rank
SciTegic.value.IntegerValue
363

@<SCITEGIC>MOL_PROPERTY
Conf_Id
SciTegic.value.IntegerValue
37

@<SCITEGIC>MOL_PROPERTY
Delta U+W
SciTegic.value.DoubleValue
-0.230

@<SCITEGIC>MOL_PROPERTY
U+W
SciTegic.value.DoubleValue
-51.860

@<SCITEGIC>MOL_PROPERTY
Grad RMS
SciTegic.value.DoubleValue
0.000000

@<SCITEGIC>MOL_PROPERTY
U
SciTegic.value.DoubleValue
7.816

@<SCITEGIC>MOL_PROPERTY
W
SciTegic.value.DoubleValue
-59.675

@<SCITEGIC>MOL_PROPERTY
W(PB)
SciTegic.value.DoubleValue
-62.180

@<SCITEGIC>MOL_PROPERTY
W(SA)
SciTegic.value.DoubleValue
2.505

@<SCITEGIC>MOL_PROPERTY
Valence
SciTegic.value.DoubleValue
7.785

@<SCITEGIC>MOL_PROPERTY
Coulomb
SciTegic.value.DoubleValue
-0.713

@<SCITEGIC>MOL_PROPERTY
VdW
SciTegic.value.DoubleValue
0.744

@<SCITEGIC>MOL_PROPERTY
VdW6
SciTegic.value.DoubleValue
-8.514

@<SCITEGIC>MOL_PROPERTY
VdW12
SciTegic.value.DoubleValue
9.259

@<SCITEGIC>MOL_PROPERTY
Bond
SciTegic.value.DoubleValue
0.136

@<SCITEGIC>MOL_PROPERTY
Angle
SciTegic.value.DoubleValue
2.433

@<SCITEGIC>MOL_PROPERTY
Pdih
SciTegic.value.DoubleValue
5.216

@<SCITEGIC>MOL_PROPERTY
Idih
SciTegic.value.DoubleValue
0.000

@<SCITEGIC>MOL_PROPERTY
Tether
SciTegic.value.DoubleValue
0.000

@<TRIPOS>MOLECULE
guest-8_confgen4.mol2 : confsearch ligand conformer 364
          25          24           1
SMALL
USER_CHARGES
 
@<TRIPOS>ATOM
       1    C1      17.247183   16.536355   24.266470 C.2        1 MOL1         0.6168
       2    O1      16.114622   16.838724   23.945606 O.co2      1 MOL1        -0.6703
       3    O2      17.611477   16.420951   25.420131 O.co2      1 MOL1        -0.6703
       4    C2      18.261831   16.271614   23.157700 C.3        1 MOL1        -0.1963
       5    H1      17.774344   15.631161   22.413281 H          1 MOL1         0.0750
       6    H2      19.095170   15.694396   23.576283 H          1 MOL1         0.0750
       7    C3      18.792197   17.555792   22.468830 C.3        1 MOL1        -0.1860
       8    H3      19.403438   17.268981   21.602416 H          1 MOL1         0.0752
       9    H4      17.944394   18.136526   22.079404 H          1 MOL1         0.0752
      10    C4      19.636124   18.434674   23.419157 C.3        1 MOL1        -0.1858
      11    H5      20.474435   17.845832   23.816052 H          1 MOL1         0.0752
      12    H6      19.025980   18.740243   24.280421 H          1 MOL1         0.0752
      13    C5      20.179882   19.690561   22.704522 C.3        1 MOL1        -0.1858
      14    H7      20.792765   19.387380   21.844585 H          1 MOL1         0.0752
      15    H8      19.340875   20.278783   22.308100 H          1 MOL1         0.0752
      16    C6      21.022658   20.569592   23.653673 C.3        1 MOL1        -0.1858
      17    H9      21.861566   19.981468   24.050441 H          1 MOL1         0.0752
      18    H10     20.409926   20.872764   24.513773 H          1 MOL1         0.0752
      19    C7      21.565877   21.825345   22.939977 C.3        1 MOL1        -0.1834
      20    H11     22.180857   21.525812   22.080001 H          1 MOL1         0.0752
      21    H12     20.729200   22.417138   22.543448 H          1 MOL1         0.0752
      22    C8      22.406810   22.700352   23.891186 C.3        1 MOL1        -0.2849
      23    H13     23.269459   22.142477   24.278492 H          1 MOL1         0.0764
      24    H14     22.784718   23.588144   23.367649 H          1 MOL1         0.0764
      25    H15     21.806870   23.040448   24.745473 H          1 MOL1         0.0764
@<TRIPOS>BOND
    1     1     2    1
    2     1     3    2
    3     1     4    1
    4     4     5    1
    5     4     6    1
    6     4     7    1
    7     7     8    1
    8     7     9    1
    9     7    10    1
   10    10    11    1
   11    10    12    1
   12    10    13    1
   13    13    14    1
   14    13    15    1
   15    13    16    1
   16    16    17    1
   17    16    18    1
   18    16    19    1
   19    19    20    1
   20    19    21    1
   21    19    22    1
   22    22    23    1
   23    22    24    1
   24    22    25    1
@<TRIPOS>SUBSTRUCTURE
       1 MOL1            1 RESIDUE      1      MOL     
@<SCITEGIC>MOL_PROPERTY
VConf Rank
SciTegic.value.IntegerValue
364

@<SCITEGIC>MOL_PROPERTY
Conf_Id
SciTegic.value.IntegerValue
54

@<SCITEGIC>MOL_PROPERTY
Delta U+W
SciTegic.value.DoubleValue
-0.224

@<SCITEGIC>MOL_PROPERTY
U+W
SciTegic.value.DoubleValue
-51.854

@<SCITEGIC>MOL_PROPERTY
Grad RMS
SciTegic.value.DoubleValue
0.000000

@<SCITEGIC>MOL_PROPERTY
U
SciTegic.value.DoubleValue
7.816

@<SCITEGIC>MOL_PROPERTY
W
SciTegic.value.DoubleValue
-59.670

@<SCITEGIC>MOL_PROPERTY
W(PB)
SciTegic.value.DoubleValue
-62.157

@<SCITEGIC>MOL_PROPERTY
W(SA)
SciTegic.value.DoubleValue
2.487

@<SCITEGIC>MOL_PROPERTY
Valence
SciTegic.value.DoubleValue
7.785

@<SCITEGIC>MOL_PROPERTY
Coulomb
SciTegic.value.DoubleValue
-0.713

@<SCITEGIC>MOL_PROPERTY
VdW
SciTegic.value.DoubleValue
0.744

@<SCITEGIC>MOL_PROPERTY
VdW6
SciTegic.value.DoubleValue
-8.515

@<SCITEGIC>MOL_PROPERTY
VdW12
SciTegic.value.DoubleValue
9.259

@<SCITEGIC>MOL_PROPERTY
Bond
SciTegic.value.DoubleValue
0.136

@<SCITEGIC>MOL_PROPERTY
Angle
SciTegic.value.DoubleValue
2.433

@<SCITEGIC>MOL_PROPERTY
Pdih
SciTegic.value.DoubleValue
5.215

@<SCITEGIC>MOL_PROPERTY
Idih
SciTegic.value.DoubleValue
0.000

@<SCITEGIC>MOL_PROPERTY
Tether
SciTegic.value.DoubleValue
0.000

@<TRIPOS>MOLECULE
guest-8_confgen4.mol2 : confsearch ligand conformer 365
          25          24           1
SMALL
USER_CHARGES
 
@<TRIPOS>ATOM
       1    C1      23.477717   17.090085   22.241623 C.2        1 MOL1         0.6168
       2    O1      23.155587   16.461623   21.252523 O.co2      1 MOL1        -0.6703
       3    O2      24.471895   17.786583   22.301705 O.co2      1 MOL1        -0.6703
       4    C2      22.596887   16.985718   23.483569 C.3        1 MOL1        -0.1963
       5    H1      23.259657   16.821741   24.341366 H          1 MOL1         0.0750
       6    H2      21.967759   16.091940   23.393073 H          1 MOL1         0.0750
       7    C3      21.716531   18.236373   23.741450 C.3        1 MOL1        -0.1860
       8    H3      21.245896   18.131477   24.726998 H          1 MOL1         0.0752
       9    H4      22.356650   19.128251   23.788358 H          1 MOL1         0.0752
      10    C4      20.626769   18.428754   22.659157 C.3        1 MOL1        -0.1858
      11    H5      19.959680   17.556083   22.644465 H          1 MOL1         0.0752
      12    H6      21.105205   18.468010   21.670959 H          1 MOL1         0.0752
      13    C5      19.790645   19.717855   22.843740 C.3        1 MOL1        -0.1858
      14    H7      20.459692   20.588386   22.877304 H          1 MOL1         0.0752
      15    H8      19.161820   19.843175   21.953209 H          1 MOL1         0.0752
      16    C6      18.893616   19.698047   24.106189 C.3        1 MOL1        -0.1858
      17    H9      19.520752   19.580221   24.998765 H          1 MOL1         0.0752
      18    H10     18.228347   18.824532   24.074507 H          1 MOL1         0.0752
      19    C7      18.051231   20.983425   24.281340 C.3        1 MOL1        -0.1834
      20    H11     17.555246   20.947403   25.261108 H          1 MOL1         0.0752
      21    H12     18.712428   21.860769   24.300954 H          1 MOL1         0.0752
      22    C8      16.975179   21.166732   23.188889 C.3        1 MOL1        -0.2849
      23    H13     17.427279   21.330464   22.202886 H          1 MOL1         0.0764
      24    H14     16.323289   20.285602   23.127568 H          1 MOL1         0.0764
      25    H15     16.345613   22.037488   23.413243 H          1 MOL1         0.0764
@<TRIPOS>BOND
    1     1     2    1
    2     1     3    2
    3     1     4    1
    4     4     5    1
    5     4     6    1
    6     4     7    1
    7     7     8    1
    8     7     9    1
    9     7    10    1
   10    10    11    1
   11    10    12    1
   12    10    13    1
   13    13    14    1
   14    13    15    1
   15    13    16    1
   16    16    17    1
   17    16    18    1
   18    16    19    1
   19    19    20    1
   20    19    21    1
   21    19    22    1
   22    22    23    1
   23    22    24    1
   24    22    25    1
@<TRIPOS>SUBSTRUCTURE
       1 MOL1            1 RESIDUE      1      MOL     
@<SCITEGIC>MOL_PROPERTY
VConf Rank
SciTegic.value.IntegerValue
365

@<SCITEGIC>MOL_PROPERTY
Conf_Id
SciTegic.value.IntegerValue
101

@<SCITEGIC>MOL_PROPERTY
Delta U+W
SciTegic.value.DoubleValue
1.534

@<SCITEGIC>MOL_PROPERTY
U+W
SciTegic.value.DoubleValue
-50.095

@<SCITEGIC>MOL_PROPERTY
Grad RMS
SciTegic.value.DoubleValue
0.000000

@<SCITEGIC>MOL_PROPERTY
U
SciTegic.value.DoubleValue
9.416

@<SCITEGIC>MOL_PROPERTY
W
SciTegic.value.DoubleValue
-59.512

@<SCITEGIC>MOL_PROPERTY
W(PB)
SciTegic.value.DoubleValue
-61.988

@<SCITEGIC>MOL_PROPERTY
W(SA)
SciTegic.value.DoubleValue
2.476

@<SCITEGIC>MOL_PROPERTY
Valence
SciTegic.value.DoubleValue
8.939

@<SCITEGIC>MOL_PROPERTY
Coulomb
SciTegic.value.DoubleValue
-0.615

@<SCITEGIC>MOL_PROPERTY
VdW
SciTegic.value.DoubleValue
1.092

@<SCITEGIC>MOL_PROPERTY
VdW6
SciTegic.value.DoubleValue
-9.710

@<SCITEGIC>MOL_PROPERTY
VdW12
SciTegic.value.DoubleValue
10.802

@<SCITEGIC>MOL_PROPERTY
Bond
SciTegic.value.DoubleValue
0.216

@<SCITEGIC>MOL_PROPERTY
Angle
SciTegic.value.DoubleValue
2.979

@<SCITEGIC>MOL_PROPERTY
Pdih
SciTegic.value.DoubleValue
5.743

@<SCITEGIC>MOL_PROPERTY
Idih
SciTegic.value.DoubleValue
0.000

@<SCITEGIC>MOL_PROPERTY
Tether
SciTegic.value.DoubleValue
0.000

@<TRIPOS>MOLECULE
guest-8_confgen4.mol2 : confsearch ligand conformer 366
          25          24           1
SMALL
USER_CHARGES
 
@<TRIPOS>ATOM
       1    C1      19.574689   23.291301   22.552966 C.2        1 MOL1         0.6168
       2    O1      20.079117   23.890169   23.482291 O.co2      1 MOL1        -0.6703
       3    O2      19.357829   23.792753   21.467474 O.co2      1 MOL1        -0.6703
       4    C2      19.214668   21.823408   22.752570 C.3        1 MOL1        -0.1963
       5    H1      18.337391   21.601397   22.133348 H          1 MOL1         0.0750
       6    H2      18.916226   21.693804   23.798751 H          1 MOL1         0.0750
       7    C3      20.380494   20.866191   22.391818 C.3        1 MOL1        -0.1860
       8    H3      20.717128   21.092520   21.370603 H          1 MOL1         0.0752
       9    H4      21.236752   21.064567   23.051190 H          1 MOL1         0.0752
      10    C4      19.999743   19.368093   22.465552 C.3        1 MOL1        -0.1858
      11    H5      20.836471   18.785874   22.058862 H          1 MOL1         0.0752
      12    H6      19.137563   19.174102   21.813188 H          1 MOL1         0.0752
      13    C5      19.688739   18.881978   23.902518 C.3        1 MOL1        -0.1858
      14    H7      20.550635   19.075113   24.554324 H          1 MOL1         0.0752
      15    H8      18.858013   19.468293   24.314644 H          1 MOL1         0.0752
      16    C6      19.293637   17.385091   23.977202 C.3        1 MOL1        -0.1858
      17    H9      18.379255   17.229156   23.388758 H          1 MOL1         0.0752
      18    H10     19.029512   17.143917   25.015828 H          1 MOL1         0.0752
      19    C7      20.373766   16.385340   23.494212 C.3        1 MOL1        -0.1834
      20    H11     19.974707   15.366435   23.592340 H          1 MOL1         0.0752
      21    H12     20.573584   16.529352   22.424316 H          1 MOL1         0.0752
      22    C8      21.694531   16.479301   24.288372 C.3        1 MOL1        -0.2849
      23    H13     21.514974   16.362024   25.364933 H          1 MOL1         0.0764
      24    H14     22.389611   15.690569   23.972886 H          1 MOL1         0.0764
      25    H15     22.190270   17.444378   24.124214 H          1 MOL1         0.0764
@<TRIPOS>BOND
    1     1     2    1
    2     1     3    2
    3     1     4    1
    4     4     5    1
    5     4     6    1
    6     4     7    1
    7     7     8    1
    8     7     9    1
    9     7    10    1
   10    10    11    1
   11    10    12    1
   12    10    13    1
   13    13    14    1
   14    13    15    1
   15    13    16    1
   16    16    17    1
   17    16    18    1
   18    16    19    1
   19    19    20    1
   20    19    21    1
   21    19    22    1
   22    22    23    1
   23    22    24    1
   24    22    25    1
@<TRIPOS>SUBSTRUCTURE
       1 MOL1            1 RESIDUE      1      MOL     
@<SCITEGIC>MOL_PROPERTY
VConf Rank
SciTegic.value.IntegerValue
366

@<SCITEGIC>MOL_PROPERTY
Conf_Id
SciTegic.value.IntegerValue
75

@<SCITEGIC>MOL_PROPERTY
Delta U+W
SciTegic.value.DoubleValue
1.014

@<SCITEGIC>MOL_PROPERTY
U+W
SciTegic.value.DoubleValue
-50.615

@<SCITEGIC>MOL_PROPERTY
Grad RMS
SciTegic.value.DoubleValue
0.000000

@<SCITEGIC>MOL_PROPERTY
U
SciTegic.value.DoubleValue
8.474

@<SCITEGIC>MOL_PROPERTY
W
SciTegic.value.DoubleValue
-59.089

@<SCITEGIC>MOL_PROPERTY
W(PB)
SciTegic.value.DoubleValue
-61.530

@<SCITEGIC>MOL_PROPERTY
W(SA)
SciTegic.value.DoubleValue
2.441

@<SCITEGIC>MOL_PROPERTY
Valence
SciTegic.value.DoubleValue
9.080

@<SCITEGIC>MOL_PROPERTY
Coulomb
SciTegic.value.DoubleValue
-1.772

@<SCITEGIC>MOL_PROPERTY
VdW
SciTegic.value.DoubleValue
1.165

@<SCITEGIC>MOL_PROPERTY
VdW6
SciTegic.value.DoubleValue
-9.830

@<SCITEGIC>MOL_PROPERTY
VdW12
SciTegic.value.DoubleValue
10.996

@<SCITEGIC>MOL_PROPERTY
Bond
SciTegic.value.DoubleValue
0.240

@<SCITEGIC>MOL_PROPERTY
Angle
SciTegic.value.DoubleValue
3.225

@<SCITEGIC>MOL_PROPERTY
Pdih
SciTegic.value.DoubleValue
5.615

@<SCITEGIC>MOL_PROPERTY
Idih
SciTegic.value.DoubleValue
0.001

@<SCITEGIC>MOL_PROPERTY
Tether
SciTegic.value.DoubleValue
0.000

@<TRIPOS>MOLECULE
guest-8_confgen4.mol2 : confsearch ligand conformer 367
          25          24           1
SMALL
USER_CHARGES
 
@<TRIPOS>ATOM
       1    C1      20.844221   19.487809   19.125852 C.2        1 MOL1         0.6168
       2    O1      21.459389   20.516779   18.927252 O.co2      1 MOL1        -0.6703
       3    O2      20.899623   18.518446   18.395143 O.co2      1 MOL1        -0.6703
       4    C2      19.970990   19.400445   20.372413 C.3        1 MOL1        -0.1963
       5    H1      19.113621   18.756233   20.143351 H          1 MOL1         0.0750
       6    H2      19.577047   20.401935   20.583203 H          1 MOL1         0.0750
       7    C3      20.734564   18.856162   21.604806 C.3        1 MOL1        -0.1860
       8    H3      21.133607   17.858818   21.373366 H          1 MOL1         0.0752
       9    H4      21.596990   19.504681   21.812606 H          1 MOL1         0.0752
      10    C4      19.829834   18.778824   22.853659 C.3        1 MOL1        -0.1858
      11    H5      18.969118   18.130101   22.641198 H          1 MOL1         0.0752
      12    H6      19.426599   19.774926   23.071367 H          1 MOL1         0.0752
      13    C5      20.595428   18.229021   24.080165 C.3        1 MOL1        -0.1858
      14    H7      20.955339   17.220525   23.834569 H          1 MOL1         0.0752
      15    H8      21.491032   18.834587   24.275104 H          1 MOL1         0.0752
      16    C6      19.724572   18.141617   25.359381 C.3        1 MOL1        -0.1858
      17    H9      20.025877   17.244111   25.916665 H          1 MOL1         0.0752
      18    H10     18.670097   17.987071   25.092857 H          1 MOL1         0.0752
      19    C7      19.859327   19.351218   26.317302 C.3        1 MOL1        -0.1834
      20    H11     19.267724   19.147983   27.220558 H          1 MOL1         0.0752
      21    H12     20.902906   19.444163   26.648274 H          1 MOL1         0.0752
      22    C8      19.393019   20.691868   25.712664 C.3        1 MOL1        -0.2849
      23    H13     18.374168   20.610604   25.312289 H          1 MOL1         0.0764
      24    H14     19.394829   21.479146   26.477480 H          1 MOL1         0.0764
      25    H15     20.061255   21.014974   24.904773 H          1 MOL1         0.0764
@<TRIPOS>BOND
    1     1     2    1
    2     1     3    2
    3     1     4    1
    4     4     5    1
    5     4     6    1
    6     4     7    1
    7     7     8    1
    8     7     9    1
    9     7    10    1
   10    10    11    1
   11    10    12    1
   12    10    13    1
   13    13    14    1
   14    13    15    1
   15    13    16    1
   16    16    17    1
   17    16    18    1
   18    16    19    1
   19    19    20    1
   20    19    21    1
   21    19    22    1
   22    22    23    1
   23    22    24    1
   24    22    25    1
@<TRIPOS>SUBSTRUCTURE
       1 MOL1            1 RESIDUE      1      MOL     
@<SCITEGIC>MOL_PROPERTY
VConf Rank
SciTegic.value.IntegerValue
367

@<SCITEGIC>MOL_PROPERTY
Conf_Id
SciTegic.value.IntegerValue
125

@<SCITEGIC>MOL_PROPERTY
Delta U+W
SciTegic.value.DoubleValue
2.314

@<SCITEGIC>MOL_PROPERTY
U+W
SciTegic.value.DoubleValue
-49.315

@<SCITEGIC>MOL_PROPERTY
Grad RMS
SciTegic.value.DoubleValue
0.000000

@<SCITEGIC>MOL_PROPERTY
U
SciTegic.value.DoubleValue
9.740

@<SCITEGIC>MOL_PROPERTY
W
SciTegic.value.DoubleValue
-59.054

@<SCITEGIC>MOL_PROPERTY
W(PB)
SciTegic.value.DoubleValue
-61.488

@<SCITEGIC>MOL_PROPERTY
W(SA)
SciTegic.value.DoubleValue
2.433

@<SCITEGIC>MOL_PROPERTY
Valence
SciTegic.value.DoubleValue
10.506

@<SCITEGIC>MOL_PROPERTY
Coulomb
SciTegic.value.DoubleValue
-1.761

@<SCITEGIC>MOL_PROPERTY
VdW
SciTegic.value.DoubleValue
0.994

@<SCITEGIC>MOL_PROPERTY
VdW6
SciTegic.value.DoubleValue
-9.209

@<SCITEGIC>MOL_PROPERTY
VdW12
SciTegic.value.DoubleValue
10.203

@<SCITEGIC>MOL_PROPERTY
Bond
SciTegic.value.DoubleValue
0.193

@<SCITEGIC>MOL_PROPERTY
Angle
SciTegic.value.DoubleValue
2.979

@<SCITEGIC>MOL_PROPERTY
Pdih
SciTegic.value.DoubleValue
7.334

@<SCITEGIC>MOL_PROPERTY
Idih
SciTegic.value.DoubleValue
0.001

@<SCITEGIC>MOL_PROPERTY
Tether
SciTegic.value.DoubleValue
0.000

@<TRIPOS>MOLECULE
guest-8_confgen4.mol2 : confsearch ligand conformer 368
          25          24           1
SMALL
USER_CHARGES
 
@<TRIPOS>ATOM
       1    C1      16.264369   20.472809   23.740964 C.2        1 MOL1         0.6168
       2    O1      16.007803   20.330691   24.920231 O.co2      1 MOL1        -0.6703
       3    O2      15.442911   20.802524   22.908357 O.co2      1 MOL1        -0.6703
       4    C2      17.690171   20.198927   23.276101 C.3        1 MOL1        -0.1963
       5    H1      18.366339   20.487511   24.088649 H          1 MOL1         0.0750
       6    H2      17.902976   20.857441   22.425556 H          1 MOL1         0.0750
       7    C3      17.916193   18.717691   22.875981 C.3        1 MOL1        -0.1860
       8    H3      17.745573   18.071883   23.748419 H          1 MOL1         0.0752
       9    H4      17.161455   18.435291   22.128943 H          1 MOL1         0.0752
      10    C4      19.321262   18.443167   22.288979 C.3        1 MOL1        -0.1858
      11    H5      19.484988   19.083347   21.411292 H          1 MOL1         0.0752
      12    H6      19.350617   17.406267   21.927196 H          1 MOL1         0.0752
      13    C5      20.465415   18.653769   23.307682 C.3        1 MOL1        -0.1858
      14    H7      20.487169   19.703634   23.623809 H          1 MOL1         0.0752
      15    H8      20.273483   18.050123   24.205089 H          1 MOL1         0.0752
      16    C6      21.838270   18.267576   22.709913 C.3        1 MOL1        -0.1858
      17    H9      22.054355   18.902066   21.839501 H          1 MOL1         0.0752
      18    H10     21.788941   17.235160   22.337717 H          1 MOL1         0.0752
      19    C7      23.001221   18.367713   23.724474 C.3        1 MOL1        -0.1834
      20    H11     22.790861   17.729947   24.594135 H          1 MOL1         0.0752
      21    H12     23.911183   17.965714   23.258007 H          1 MOL1         0.0752
      22    C8      23.280534   19.811814   24.194732 C.3        1 MOL1        -0.2849
      23    H13     22.438892   20.215539   24.771214 H          1 MOL1         0.0764
      24    H14     24.168392   19.840428   24.839546 H          1 MOL1         0.0764
      25    H15     23.462578   20.475377   23.339366 H          1 MOL1         0.0764
@<TRIPOS>BOND
    1     1     2    1
    2     1     3    2
    3     1     4    1
    4     4     5    1
    5     4     6    1
    6     4     7    1
    7     7     8    1
    8     7     9    1
    9     7    10    1
   10    10    11    1
   11    10    12    1
   12    10    13    1
   13    13    14    1
   14    13    15    1
   15    13    16    1
   16    16    17    1
   17    16    18    1
   18    16    19    1
   19    19    20    1
   20    19    21    1
   21    19    22    1
   22    22    23    1
   23    22    24    1
   24    22    25    1
@<TRIPOS>SUBSTRUCTURE
       1 MOL1            1 RESIDUE      1      MOL     
@<SCITEGIC>MOL_PROPERTY
VConf Rank
SciTegic.value.IntegerValue
368

@<SCITEGIC>MOL_PROPERTY
Conf_Id
SciTegic.value.IntegerValue
4

@<SCITEGIC>MOL_PROPERTY
Delta U+W
SciTegic.value.DoubleValue
0.189

@<SCITEGIC>MOL_PROPERTY
U+W
SciTegic.value.DoubleValue
-51.441

@<SCITEGIC>MOL_PROPERTY
Grad RMS
SciTegic.value.DoubleValue
0.000000

@<SCITEGIC>MOL_PROPERTY
U
SciTegic.value.DoubleValue
7.701

@<SCITEGIC>MOL_PROPERTY
W
SciTegic.value.DoubleValue
-59.141

@<SCITEGIC>MOL_PROPERTY
W(PB)
SciTegic.value.DoubleValue
-61.609

@<SCITEGIC>MOL_PROPERTY
W(SA)
SciTegic.value.DoubleValue
2.467

@<SCITEGIC>MOL_PROPERTY
Valence
SciTegic.value.DoubleValue
8.550

@<SCITEGIC>MOL_PROPERTY
Coulomb
SciTegic.value.DoubleValue
-1.988

@<SCITEGIC>MOL_PROPERTY
VdW
SciTegic.value.DoubleValue
1.139

@<SCITEGIC>MOL_PROPERTY
VdW6
SciTegic.value.DoubleValue
-8.988

@<SCITEGIC>MOL_PROPERTY
VdW12
SciTegic.value.DoubleValue
10.127

@<SCITEGIC>MOL_PROPERTY
Bond
SciTegic.value.DoubleValue
0.191

@<SCITEGIC>MOL_PROPERTY
Angle
SciTegic.value.DoubleValue
2.738

@<SCITEGIC>MOL_PROPERTY
Pdih
SciTegic.value.DoubleValue
5.621

@<SCITEGIC>MOL_PROPERTY
Idih
SciTegic.value.DoubleValue
0.001

@<SCITEGIC>MOL_PROPERTY
Tether
SciTegic.value.DoubleValue
0.000

@<TRIPOS>MOLECULE
guest-8_confgen4.mol2 : confsearch ligand conformer 369
          25          24           1
SMALL
USER_CHARGES
 
@<TRIPOS>ATOM
       1    C1      20.979231   22.463558   25.590385 C.2        1 MOL1         0.6168
       2    O1      19.946475   23.095572   25.693668 O.co2      1 MOL1        -0.6703
       3    O2      21.995741   22.730701   26.200372 O.co2      1 MOL1        -0.6703
       4    C2      20.993783   21.254434   24.662038 C.3        1 MOL1        -0.1963
       5    H1      22.005460   21.153064   24.251440 H          1 MOL1         0.0750
       6    H2      20.322099   21.470473   23.823654 H          1 MOL1         0.0750
       7    C3      20.572575   19.944363   25.377255 C.3        1 MOL1        -0.1860
       8    H3      21.204927   19.808794   26.265624 H          1 MOL1         0.0752
       9    H4      19.540988   20.041405   25.742962 H          1 MOL1         0.0752
      10    C4      20.694948   18.685963   24.485285 C.3        1 MOL1        -0.1858
      11    H5      20.492169   17.800531   25.103186 H          1 MOL1         0.0752
      12    H6      21.729529   18.586293   24.129362 H          1 MOL1         0.0752
      13    C5      19.727561   18.690591   23.278913 C.3        1 MOL1        -0.1858
      14    H7      18.698916   18.840267   23.633951 H          1 MOL1         0.0752
      15    H8      19.966915   19.533401   22.619362 H          1 MOL1         0.0752
      16    C6      19.810025   17.370458   22.477881 C.3        1 MOL1        -0.1858
      17    H9      19.631739   16.526949   23.158727 H          1 MOL1         0.0752
      18    H10     20.826517   17.241058   22.081793 H          1 MOL1         0.0752
      19    C7      18.789089   17.289142   21.319048 C.3        1 MOL1        -0.1834
      20    H11     18.832250   16.282154   20.881623 H          1 MOL1         0.0752
      21    H12     17.770646   17.412952   21.712432 H          1 MOL1         0.0752
      22    C8      19.044969   18.326386   20.204042 C.3        1 MOL1        -0.2849
      23    H13     20.068746   18.242601   19.816782 H          1 MOL1         0.0764
      24    H14     18.352991   18.168286   19.366746 H          1 MOL1         0.0764
      25    H15     18.896774   19.350791   20.567801 H          1 MOL1         0.0764
@<TRIPOS>BOND
    1     1     2    1
    2     1     3    2
    3     1     4    1
    4     4     5    1
    5     4     6    1
    6     4     7    1
    7     7     8    1
    8     7     9    1
    9     7    10    1
   10    10    11    1
   11    10    12    1
   12    10    13    1
   13    13    14    1
   14    13    15    1
   15    13    16    1
   16    16    17    1
   17    16    18    1
   18    16    19    1
   19    19    20    1
   20    19    21    1
   21    19    22    1
   22    22    23    1
   23    22    24    1
   24    22    25    1
@<TRIPOS>SUBSTRUCTURE
       1 MOL1            1 RESIDUE      1      MOL     
@<SCITEGIC>MOL_PROPERTY
VConf Rank
SciTegic.value.IntegerValue
369

@<SCITEGIC>MOL_PROPERTY
Conf_Id
SciTegic.value.IntegerValue
17

@<SCITEGIC>MOL_PROPERTY
Delta U+W
SciTegic.value.DoubleValue
0.219

@<SCITEGIC>MOL_PROPERTY
U+W
SciTegic.value.DoubleValue
-51.411

@<SCITEGIC>MOL_PROPERTY
Grad RMS
SciTegic.value.DoubleValue
0.000000

@<SCITEGIC>MOL_PROPERTY
U
SciTegic.value.DoubleValue
7.701

@<SCITEGIC>MOL_PROPERTY
W
SciTegic.value.DoubleValue
-59.111

@<SCITEGIC>MOL_PROPERTY
W(PB)
SciTegic.value.DoubleValue
-61.599

@<SCITEGIC>MOL_PROPERTY
W(SA)
SciTegic.value.DoubleValue
2.488

@<SCITEGIC>MOL_PROPERTY
Valence
SciTegic.value.DoubleValue
8.550

@<SCITEGIC>MOL_PROPERTY
Coulomb
SciTegic.value.DoubleValue
-1.988

@<SCITEGIC>MOL_PROPERTY
VdW
SciTegic.value.DoubleValue
1.139

@<SCITEGIC>MOL_PROPERTY
VdW6
SciTegic.value.DoubleValue
-8.988

@<SCITEGIC>MOL_PROPERTY
VdW12
SciTegic.value.DoubleValue
10.127

@<SCITEGIC>MOL_PROPERTY
Bond
SciTegic.value.DoubleValue
0.191

@<SCITEGIC>MOL_PROPERTY
Angle
SciTegic.value.DoubleValue
2.738

@<SCITEGIC>MOL_PROPERTY
Pdih
SciTegic.value.DoubleValue
5.621

@<SCITEGIC>MOL_PROPERTY
Idih
SciTegic.value.DoubleValue
0.001

@<SCITEGIC>MOL_PROPERTY
Tether
SciTegic.value.DoubleValue
0.000

@<TRIPOS>MOLECULE
guest-8_confgen4.mol2 : confsearch ligand conformer 370
          25          24           1
SMALL
USER_CHARGES
 
@<TRIPOS>ATOM
       1    C1      22.763739   18.409610   25.803089 C.2        1 MOL1         0.6168
       2    O1      22.743015   19.141547   26.773088 O.co2      1 MOL1        -0.6703
       3    O2      23.681873   18.372623   25.007640 O.co2      1 MOL1        -0.6703
       4    C2      21.581565   17.470572   25.580369 C.3        1 MOL1        -0.1963
       5    H1      21.039684   17.359374   26.527350 H          1 MOL1         0.0750
       6    H2      21.988601   16.483851   25.329998 H          1 MOL1         0.0750
       7    C3      20.614312   17.931809   24.459395 C.3        1 MOL1        -0.1860
       8    H3      21.182591   18.054406   23.527893 H          1 MOL1         0.0752
       9    H4      19.874310   17.140595   24.278720 H          1 MOL1         0.0752
      10    C4      19.879980   19.246676   24.815251 C.3        1 MOL1        -0.1858
      11    H5      20.608002   20.061803   24.928709 H          1 MOL1         0.0752
      12    H6      19.392198   19.129843   25.792628 H          1 MOL1         0.0752
      13    C5      18.808011   19.654180   23.776720 C.3        1 MOL1        -0.1858
      14    H7      18.073913   18.844152   23.668073 H          1 MOL1         0.0752
      15    H8      18.258115   20.521509   24.166865 H          1 MOL1         0.0752
      16    C6      19.396607   20.013822   22.392796 C.3        1 MOL1        -0.1858
      17    H9      19.885852   19.134774   21.953657 H          1 MOL1         0.0752
      18    H10     20.169567   20.785329   22.511974 H          1 MOL1         0.0752
      19    C7      18.307484   20.521166   21.424209 C.3        1 MOL1        -0.1834
      20    H11     17.531676   19.752276   21.304251 H          1 MOL1         0.0752
      21    H12     17.816032   21.407050   21.849778 H          1 MOL1         0.0752
      22    C8      18.895358   20.875851   20.043512 C.3        1 MOL1        -0.2849
      23    H13     19.365642   19.998840   19.579760 H          1 MOL1         0.0764
      24    H14     18.107822   21.234859   19.368266 H          1 MOL1         0.0764
      25    H15     19.653256   21.665415   20.130469 H          1 MOL1         0.0764
@<TRIPOS>BOND
    1     1     2    1
    2     1     3    2
    3     1     4    1
    4     4     5    1
    5     4     6    1
    6     4     7    1
    7     7     8    1
    8     7     9    1
    9     7    10    1
   10    10    11    1
   11    10    12    1
   12    10    13    1
   13    13    14    1
   14    13    15    1
   15    13    16    1
   16    16    17    1
   17    16    18    1
   18    16    19    1
   19    19    20    1
   20    19    21    1
   21    19    22    1
   22    22    23    1
   23    22    24    1
   24    22    25    1
@<TRIPOS>SUBSTRUCTURE
       1 MOL1            1 RESIDUE      1      MOL     
@<SCITEGIC>MOL_PROPERTY
VConf Rank
SciTegic.value.IntegerValue
370

@<SCITEGIC>MOL_PROPERTY
Conf_Id
SciTegic.value.IntegerValue
142

@<SCITEGIC>MOL_PROPERTY
Delta U+W
SciTegic.value.DoubleValue
0.593

@<SCITEGIC>MOL_PROPERTY
U+W
SciTegic.value.DoubleValue
-51.037

@<SCITEGIC>MOL_PROPERTY
Grad RMS
SciTegic.value.DoubleValue
0.000000

@<SCITEGIC>MOL_PROPERTY
U
SciTegic.value.DoubleValue
8.903

@<SCITEGIC>MOL_PROPERTY
W
SciTegic.value.DoubleValue
-59.940

@<SCITEGIC>MOL_PROPERTY
W(PB)
SciTegic.value.DoubleValue
-62.418

@<SCITEGIC>MOL_PROPERTY
W(SA)
SciTegic.value.DoubleValue
2.478

@<SCITEGIC>MOL_PROPERTY
Valence
SciTegic.value.DoubleValue
8.305

@<SCITEGIC>MOL_PROPERTY
Coulomb
SciTegic.value.DoubleValue
-0.223

@<SCITEGIC>MOL_PROPERTY
VdW
SciTegic.value.DoubleValue
0.821

@<SCITEGIC>MOL_PROPERTY
VdW6
SciTegic.value.DoubleValue
-9.236

@<SCITEGIC>MOL_PROPERTY
VdW12
SciTegic.value.DoubleValue
10.057

@<SCITEGIC>MOL_PROPERTY
Bond
SciTegic.value.DoubleValue
0.173

@<SCITEGIC>MOL_PROPERTY
Angle
SciTegic.value.DoubleValue
2.663

@<SCITEGIC>MOL_PROPERTY
Pdih
SciTegic.value.DoubleValue
5.469

@<SCITEGIC>MOL_PROPERTY
Idih
SciTegic.value.DoubleValue
0.001

@<SCITEGIC>MOL_PROPERTY
Tether
SciTegic.value.DoubleValue
0.000

@<TRIPOS>MOLECULE
guest-8_confgen4.mol2 : confsearch ligand conformer 371
          25          24           1
SMALL
USER_CHARGES
 
@<TRIPOS>ATOM
       1    C1      22.750084   19.979749   25.757809 C.2        1 MOL1         0.6168
       2    O1      23.345004   19.461514   26.682505 O.co2      1 MOL1        -0.6703
       3    O2      23.288966   20.668156   24.913560 O.co2      1 MOL1        -0.6703
       4    C2      21.240212   19.775788   25.670500 C.3        1 MOL1        -0.1963
       5    H1      20.825884   20.512294   24.972510 H          1 MOL1         0.0750
       6    H2      20.821551   20.011792   26.655661 H          1 MOL1         0.0750
       7    C3      20.817242   18.338068   25.262835 C.3        1 MOL1        -0.1860
       8    H3      21.190049   17.633808   26.019281 H          1 MOL1         0.0752
       9    H4      19.722766   18.260582   25.293913 H          1 MOL1         0.0752
      10    C4      21.332958   17.888887   23.871104 C.3        1 MOL1        -0.1858
      11    H5      20.987545   16.863604   23.681153 H          1 MOL1         0.0752
      12    H6      22.430144   17.837419   23.895978 H          1 MOL1         0.0752
      13    C5      20.906762   18.789718   22.684854 C.3        1 MOL1        -0.1858
      14    H7      21.339235   19.792283   22.803119 H          1 MOL1         0.0752
      15    H8      21.343779   18.378284   21.764925 H          1 MOL1         0.0752
      16    C6      19.374323   18.896599   22.509142 C.3        1 MOL1        -0.1858
      17    H9      18.929796   19.373576   23.392314 H          1 MOL1         0.0752
      18    H10     18.942086   17.889411   22.435530 H          1 MOL1         0.0752
      19    C7      18.999719   19.712056   21.253699 C.3        1 MOL1        -0.1834
      20    H11     19.433437   20.719232   21.324131 H          1 MOL1         0.0752
      21    H12     19.433103   19.239364   20.361447 H          1 MOL1         0.0752
      22    C8      17.471208   19.822889   21.083223 C.3        1 MOL1        -0.2849
      23    H13     17.014725   20.321625   21.948239 H          1 MOL1         0.0764
      24    H14     17.223127   20.405238   20.186362 H          1 MOL1         0.0764
      25    H15     17.014637   18.829824   20.979700 H          1 MOL1         0.0764
@<TRIPOS>BOND
    1     1     2    1
    2     1     3    2
    3     1     4    1
    4     4     5    1
    5     4     6    1
    6     4     7    1
    7     7     8    1
    8     7     9    1
    9     7    10    1
   10    10    11    1
   11    10    12    1
   12    10    13    1
   13    13    14    1
   14    13    15    1
   15    13    16    1
   16    16    17    1
   17    16    18    1
   18    16    19    1
   19    19    20    1
   20    19    21    1
   21    19    22    1
   22    22    23    1
   23    22    24    1
   24    22    25    1
@<TRIPOS>SUBSTRUCTURE
       1 MOL1            1 RESIDUE      1      MOL     
@<SCITEGIC>MOL_PROPERTY
VConf Rank
SciTegic.value.IntegerValue
371

@<SCITEGIC>MOL_PROPERTY
Conf_Id
SciTegic.value.IntegerValue
135

@<SCITEGIC>MOL_PROPERTY
Delta U+W
SciTegic.value.DoubleValue
1.314

@<SCITEGIC>MOL_PROPERTY
U+W
SciTegic.value.DoubleValue
-50.316

@<SCITEGIC>MOL_PROPERTY
Grad RMS
SciTegic.value.DoubleValue
0.000000

@<SCITEGIC>MOL_PROPERTY
U
SciTegic.value.DoubleValue
9.773

@<SCITEGIC>MOL_PROPERTY
W
SciTegic.value.DoubleValue
-60.088

@<SCITEGIC>MOL_PROPERTY
W(PB)
SciTegic.value.DoubleValue
-62.535

@<SCITEGIC>MOL_PROPERTY
W(SA)
SciTegic.value.DoubleValue
2.447

@<SCITEGIC>MOL_PROPERTY
Valence
SciTegic.value.DoubleValue
8.741

@<SCITEGIC>MOL_PROPERTY
Coulomb
SciTegic.value.DoubleValue
0.479

@<SCITEGIC>MOL_PROPERTY
VdW
SciTegic.value.DoubleValue
0.552

@<SCITEGIC>MOL_PROPERTY
VdW6
SciTegic.value.DoubleValue
-10.627

@<SCITEGIC>MOL_PROPERTY
VdW12
SciTegic.value.DoubleValue
11.179

@<SCITEGIC>MOL_PROPERTY
Bond
SciTegic.value.DoubleValue
0.227

@<SCITEGIC>MOL_PROPERTY
Angle
SciTegic.value.DoubleValue
3.155

@<SCITEGIC>MOL_PROPERTY
Pdih
SciTegic.value.DoubleValue
5.358

@<SCITEGIC>MOL_PROPERTY
Idih
SciTegic.value.DoubleValue
0.001

@<SCITEGIC>MOL_PROPERTY
Tether
SciTegic.value.DoubleValue
0.000

@<TRIPOS>MOLECULE
guest-8_confgen4.mol2 : confsearch ligand conformer 372
          25          24           1
SMALL
USER_CHARGES
 
@<TRIPOS>ATOM
       1    C1      20.454568   15.069076   22.505520 C.2        1 MOL1         0.6168
       2    O1      20.679608   14.411426   23.502312 O.co2      1 MOL1        -0.6703
       3    O2      20.009309   14.600567   21.476436 O.co2      1 MOL1        -0.6703
       4    C2      20.724341   16.568692   22.556059 C.3        1 MOL1        -0.1963
       5    H1      21.015723   16.895476   21.550744 H          1 MOL1         0.0750
       6    H2      21.586220   16.729058   23.213036 H          1 MOL1         0.0750
       7    C3      19.498585   17.381564   23.048591 C.3        1 MOL1        -0.1860
       8    H3      18.631992   17.119883   22.425705 H          1 MOL1         0.0752
       9    H4      19.244733   17.080443   24.074343 H          1 MOL1         0.0752
      10    C4      19.704298   18.914195   22.988121 C.3        1 MOL1        -0.1858
      11    H5      18.740290   19.391729   23.204083 H          1 MOL1         0.0752
      12    H6      19.982590   19.209881   21.967483 H          1 MOL1         0.0752
      13    C5      20.760076   19.434820   23.992483 C.3        1 MOL1        -0.1858
      14    H7      20.444042   19.186353   25.014726 H          1 MOL1         0.0752
      15    H8      21.711286   18.913477   23.828545 H          1 MOL1         0.0752
      16    C6      21.033310   20.957052   23.894397 C.3        1 MOL1        -0.1858
      17    H9      21.439541   21.203077   22.903764 H          1 MOL1         0.0752
      18    H10     21.831124   21.195835   24.610881 H          1 MOL1         0.0752
      19    C7      19.814143   21.858167   24.213496 C.3        1 MOL1        -0.1834
      20    H11     19.119359   21.336005   24.885700 H          1 MOL1         0.0752
      21    H12     20.164671   22.742081   24.764066 H          1 MOL1         0.0752
      22    C8      19.072121   22.346362   22.949243 C.3        1 MOL1        -0.2849
      23    H13     18.686137   21.510838   22.354234 H          1 MOL1         0.0764
      24    H14     18.221658   22.983176   23.224902 H          1 MOL1         0.0764
      25    H15     19.739988   22.937143   22.308921 H          1 MOL1         0.0764
@<TRIPOS>BOND
    1     1     2    1
    2     1     3    2
    3     1     4    1
    4     4     5    1
    5     4     6    1
    6     4     7    1
    7     7     8    1
    8     7     9    1
    9     7    10    1
   10    10    11    1
   11    10    12    1
   12    10    13    1
   13    13    14    1
   14    13    15    1
   15    13    16    1
   16    16    17    1
   17    16    18    1
   18    16    19    1
   19    19    20    1
   20    19    21    1
   21    19    22    1
   22    22    23    1
   23    22    24    1
   24    22    25    1
@<TRIPOS>SUBSTRUCTURE
       1 MOL1            1 RESIDUE      1      MOL     
@<SCITEGIC>MOL_PROPERTY
VConf Rank
SciTegic.value.IntegerValue
372

@<SCITEGIC>MOL_PROPERTY
Conf_Id
SciTegic.value.IntegerValue
19

@<SCITEGIC>MOL_PROPERTY
Delta U+W
SciTegic.value.DoubleValue
3.222

@<SCITEGIC>MOL_PROPERTY
U+W
SciTegic.value.DoubleValue
-48.407

@<SCITEGIC>MOL_PROPERTY
Grad RMS
SciTegic.value.DoubleValue
0.000000

@<SCITEGIC>MOL_PROPERTY
U
SciTegic.value.DoubleValue
10.617

@<SCITEGIC>MOL_PROPERTY
W
SciTegic.value.DoubleValue
-59.025

@<SCITEGIC>MOL_PROPERTY
W(PB)
SciTegic.value.DoubleValue
-61.462

@<SCITEGIC>MOL_PROPERTY
W(SA)
SciTegic.value.DoubleValue
2.437

@<SCITEGIC>MOL_PROPERTY
Valence
SciTegic.value.DoubleValue
11.188

@<SCITEGIC>MOL_PROPERTY
Coulomb
SciTegic.value.DoubleValue
-1.778

@<SCITEGIC>MOL_PROPERTY
VdW
SciTegic.value.DoubleValue
1.208

@<SCITEGIC>MOL_PROPERTY
VdW6
SciTegic.value.DoubleValue
-9.786

@<SCITEGIC>MOL_PROPERTY
VdW12
SciTegic.value.DoubleValue
10.993

@<SCITEGIC>MOL_PROPERTY
Bond
SciTegic.value.DoubleValue
0.241

@<SCITEGIC>MOL_PROPERTY
Angle
SciTegic.value.DoubleValue
3.294

@<SCITEGIC>MOL_PROPERTY
Pdih
SciTegic.value.DoubleValue
7.653

@<SCITEGIC>MOL_PROPERTY
Idih
SciTegic.value.DoubleValue
0.001

@<SCITEGIC>MOL_PROPERTY
Tether
SciTegic.value.DoubleValue
0.000

@<TRIPOS>MOLECULE
guest-8_confgen4.mol2 : confsearch ligand conformer 373
          25          24           1
SMALL
USER_CHARGES
 
@<TRIPOS>ATOM
       1    C1      18.860791   16.781880   20.033483 C.2        1 MOL1         0.6168
       2    O1      17.718768   16.994168   19.676470 O.co2      1 MOL1        -0.6703
       3    O2      19.467762   15.761123   19.775782 O.co2      1 MOL1        -0.6703
       4    C2      19.562957   17.844945   20.870763 C.3        1 MOL1        -0.1963
       5    H1      19.197431   18.823222   20.539800 H          1 MOL1         0.0750
       6    H2      20.634757   17.803504   20.643002 H          1 MOL1         0.0750
       7    C3      19.331836   17.657709   22.393049 C.3        1 MOL1        -0.1860
       8    H3      18.260017   17.748905   22.617033 H          1 MOL1         0.0752
       9    H4      19.619304   16.633185   22.667204 H          1 MOL1         0.0752
      10    C4      20.136462   18.646846   23.270045 C.3        1 MOL1        -0.1858
      11    H5      21.204969   18.571907   23.026616 H          1 MOL1         0.0752
      12    H6      20.027642   18.334098   24.316150 H          1 MOL1         0.0752
      13    C5      19.667751   20.115113   23.132325 C.3        1 MOL1        -0.1858
      14    H7      19.708846   20.416341   22.078261 H          1 MOL1         0.0752
      15    H8      18.614347   20.191074   23.434260 H          1 MOL1         0.0752
      16    C6      20.510385   21.129564   23.946163 C.3        1 MOL1        -0.1858
      17    H9      20.120357   22.132996   23.727364 H          1 MOL1         0.0752
      18    H10     21.548772   21.129154   23.587473 H          1 MOL1         0.0752
      19    C7      20.472643   20.922508   25.481059 C.3        1 MOL1        -0.1834
      20    H11     20.462666   21.907132   25.968620 H          1 MOL1         0.0752
      21    H12     19.537646   20.426646   25.776245 H          1 MOL1         0.0752
      22    C8      21.689402   20.136107   26.018029 C.3        1 MOL1        -0.2849
      23    H13     22.624882   20.665784   25.795766 H          1 MOL1         0.0764
      24    H14     21.620791   20.019027   27.107245 H          1 MOL1         0.0764
      25    H15     21.755462   19.135036   25.576882 H          1 MOL1         0.0764
@<TRIPOS>BOND
    1     1     2    1
    2     1     3    2
    3     1     4    1
    4     4     5    1
    5     4     6    1
    6     4     7    1
    7     7     8    1
    8     7     9    1
    9     7    10    1
   10    10    11    1
   11    10    12    1
   12    10    13    1
   13    13    14    1
   14    13    15    1
   15    13    16    1
   16    16    17    1
   17    16    18    1
   18    16    19    1
   19    19    20    1
   20    19    21    1
   21    19    22    1
   22    22    23    1
   23    22    24    1
   24    22    25    1
@<TRIPOS>SUBSTRUCTURE
       1 MOL1            1 RESIDUE      1      MOL     
@<SCITEGIC>MOL_PROPERTY
VConf Rank
SciTegic.value.IntegerValue
373

@<SCITEGIC>MOL_PROPERTY
Conf_Id
SciTegic.value.IntegerValue
20

@<SCITEGIC>MOL_PROPERTY
Delta U+W
SciTegic.value.DoubleValue
3.224

@<SCITEGIC>MOL_PROPERTY
U+W
SciTegic.value.DoubleValue
-48.406

@<SCITEGIC>MOL_PROPERTY
Grad RMS
SciTegic.value.DoubleValue
0.000000

@<SCITEGIC>MOL_PROPERTY
U
SciTegic.value.DoubleValue
10.617

@<SCITEGIC>MOL_PROPERTY
W
SciTegic.value.DoubleValue
-59.023

@<SCITEGIC>MOL_PROPERTY
W(PB)
SciTegic.value.DoubleValue
-61.467

@<SCITEGIC>MOL_PROPERTY
W(SA)
SciTegic.value.DoubleValue
2.444

@<SCITEGIC>MOL_PROPERTY
Valence
SciTegic.value.DoubleValue
11.188

@<SCITEGIC>MOL_PROPERTY
Coulomb
SciTegic.value.DoubleValue
-1.778

@<SCITEGIC>MOL_PROPERTY
VdW
SciTegic.value.DoubleValue
1.208

@<SCITEGIC>MOL_PROPERTY
VdW6
SciTegic.value.DoubleValue
-9.786

@<SCITEGIC>MOL_PROPERTY
VdW12
SciTegic.value.DoubleValue
10.993

@<SCITEGIC>MOL_PROPERTY
Bond
SciTegic.value.DoubleValue
0.241

@<SCITEGIC>MOL_PROPERTY
Angle
SciTegic.value.DoubleValue
3.294

@<SCITEGIC>MOL_PROPERTY
Pdih
SciTegic.value.DoubleValue
7.653

@<SCITEGIC>MOL_PROPERTY
Idih
SciTegic.value.DoubleValue
0.001

@<SCITEGIC>MOL_PROPERTY
Tether
SciTegic.value.DoubleValue
0.000

@<TRIPOS>MOLECULE
guest-8_confgen4.mol2 : confsearch ligand conformer 374
          25          24           1
SMALL
USER_CHARGES
 
@<TRIPOS>ATOM
       1    C1      18.618406   22.163496   24.091397 C.2        1 MOL1         0.6168
       2    O1      19.183033   22.923250   23.328760 O.co2      1 MOL1        -0.6703
       3    O2      18.877954   22.087030   25.276304 O.co2      1 MOL1        -0.6703
       4    C2      17.477117   21.305987   23.547771 C.3        1 MOL1        -0.1963
       5    H1      16.698155   22.003121   23.218091 H          1 MOL1         0.0750
       6    H2      17.047433   20.721405   24.370221 H          1 MOL1         0.0750
       7    C3      17.854814   20.372462   22.363294 C.3        1 MOL1        -0.1860
       8    H3      16.929863   20.102808   21.835865 H          1 MOL1         0.0752
       9    H4      18.468591   20.920859   21.635192 H          1 MOL1         0.0752
      10    C4      18.564457   19.058011   22.772820 C.3        1 MOL1        -0.1858
      11    H5      18.642647   18.419839   21.881975 H          1 MOL1         0.0752
      12    H6      17.940489   18.509373   23.491496 H          1 MOL1         0.0752
      13    C5      19.978279   19.262436   23.362690 C.3        1 MOL1        -0.1858
      14    H7      20.569627   19.899801   22.691036 H          1 MOL1         0.0752
      15    H8      19.908726   19.786064   24.324449 H          1 MOL1         0.0752
      16    C6      20.707914   17.918355   23.576340 C.3        1 MOL1        -0.1858
      17    H9      20.791044   17.388297   22.617646 H          1 MOL1         0.0752
      18    H10     20.112821   17.280571   24.244269 H          1 MOL1         0.0752
      19    C7      22.115357   18.120699   24.175952 C.3        1 MOL1        -0.1834
      20    H11     22.713499   18.757718   23.509701 H          1 MOL1         0.0752
      21    H12     22.036082   18.649284   25.136118 H          1 MOL1         0.0752
      22    C8      22.841241   16.777007   24.388675 C.3        1 MOL1        -0.2849
      23    H13     22.962184   16.241120   23.438113 H          1 MOL1         0.0764
      24    H14     23.839495   16.939855   24.815328 H          1 MOL1         0.0764
      25    H15     22.279583   16.131875   25.076948 H          1 MOL1         0.0764
@<TRIPOS>BOND
    1     1     2    1
    2     1     3    2
    3     1     4    1
    4     4     5    1
    5     4     6    1
    6     4     7    1
    7     7     8    1
    8     7     9    1
    9     7    10    1
   10    10    11    1
   11    10    12    1
   12    10    13    1
   13    13    14    1
   14    13    15    1
   15    13    16    1
   16    16    17    1
   17    16    18    1
   18    16    19    1
   19    19    20    1
   20    19    21    1
   21    19    22    1
   22    22    23    1
   23    22    24    1
   24    22    25    1
@<TRIPOS>SUBSTRUCTURE
       1 MOL1            1 RESIDUE      1      MOL     
@<SCITEGIC>MOL_PROPERTY
VConf Rank
SciTegic.value.IntegerValue
374

@<SCITEGIC>MOL_PROPERTY
Conf_Id
SciTegic.value.IntegerValue
24

@<SCITEGIC>MOL_PROPERTY
Delta U+W
SciTegic.value.DoubleValue
1.784

@<SCITEGIC>MOL_PROPERTY
U+W
SciTegic.value.DoubleValue
-49.846

@<SCITEGIC>MOL_PROPERTY
Grad RMS
SciTegic.value.DoubleValue
0.000000

@<SCITEGIC>MOL_PROPERTY
U
SciTegic.value.DoubleValue
10.904

@<SCITEGIC>MOL_PROPERTY
W
SciTegic.value.DoubleValue
-60.749

@<SCITEGIC>MOL_PROPERTY
W(PB)
SciTegic.value.DoubleValue
-63.220

@<SCITEGIC>MOL_PROPERTY
W(SA)
SciTegic.value.DoubleValue
2.471

@<SCITEGIC>MOL_PROPERTY
Valence
SciTegic.value.DoubleValue
9.445

@<SCITEGIC>MOL_PROPERTY
Coulomb
SciTegic.value.DoubleValue
0.780

@<SCITEGIC>MOL_PROPERTY
VdW
SciTegic.value.DoubleValue
0.679

@<SCITEGIC>MOL_PROPERTY
VdW6
SciTegic.value.DoubleValue
-10.008

@<SCITEGIC>MOL_PROPERTY
VdW12
SciTegic.value.DoubleValue
10.687

@<SCITEGIC>MOL_PROPERTY
Bond
SciTegic.value.DoubleValue
0.201

@<SCITEGIC>MOL_PROPERTY
Angle
SciTegic.value.DoubleValue
3.198

@<SCITEGIC>MOL_PROPERTY
Pdih
SciTegic.value.DoubleValue
6.039

@<SCITEGIC>MOL_PROPERTY
Idih
SciTegic.value.DoubleValue
0.006

@<SCITEGIC>MOL_PROPERTY
Tether
SciTegic.value.DoubleValue
0.000

@<TRIPOS>MOLECULE
guest-8_confgen4.mol2 : confsearch ligand conformer 375
          25          24           1
SMALL
USER_CHARGES
 
@<TRIPOS>ATOM
       1    C1      20.113661   21.699158   25.290597 C.2        1 MOL1         0.6168
       2    O1      19.785971   22.583316   24.523442 O.co2      1 MOL1        -0.6703
       3    O2      19.357767   21.200278   26.101128 O.co2      1 MOL1        -0.6703
       4    C2      21.569053   21.235299   25.283091 C.3        1 MOL1        -0.1963
       5    H1      21.705427   20.476532   26.063131 H          1 MOL1         0.0750
       6    H2      22.170168   22.102325   25.580403 H          1 MOL1         0.0750
       7    C3      22.088790   20.703607   23.917705 C.3        1 MOL1        -0.1860
       8    H3      21.764998   21.371961   23.107731 H          1 MOL1         0.0752
       9    H4      23.185957   20.753680   23.929782 H          1 MOL1         0.0752
      10    C4      21.686939   19.243264   23.593672 C.3        1 MOL1        -0.1858
      11    H5      22.024037   18.579165   24.401244 H          1 MOL1         0.0752
      12    H6      22.230023   18.931523   22.690976 H          1 MOL1         0.0752
      13    C5      20.172875   19.044236   23.355715 C.3        1 MOL1        -0.1858
      14    H7      19.622307   19.224293   24.287628 H          1 MOL1         0.0752
      15    H8      19.814746   19.780153   22.622764 H          1 MOL1         0.0752
      16    C6      19.855954   17.618330   22.854794 C.3        1 MOL1        -0.1858
      17    H9      20.219117   16.883765   23.586612 H          1 MOL1         0.0752
      18    H10     20.395631   17.429404   21.916699 H          1 MOL1         0.0752
      19    C7      18.343168   17.414990   22.627845 C.3        1 MOL1        -0.1834
      20    H11     17.800033   17.601424   23.564782 H          1 MOL1         0.0752
      21    H12     17.976875   18.147933   21.895669 H          1 MOL1         0.0752
      22    C8      18.029698   15.990319   22.128129 C.3        1 MOL1        -0.2849
      23    H13     18.357611   15.237486   22.856888 H          1 MOL1         0.0764
      24    H14     16.950453   15.863692   21.972370 H          1 MOL1         0.0764
      25    H15     18.535749   15.788166   21.175019 H          1 MOL1         0.0764
@<TRIPOS>BOND
    1     1     2    1
    2     1     3    2
    3     1     4    1
    4     4     5    1
    5     4     6    1
    6     4     7    1
    7     7     8    1
    8     7     9    1
    9     7    10    1
   10    10    11    1
   11    10    12    1
   12    10    13    1
   13    13    14    1
   14    13    15    1
   15    13    16    1
   16    16    17    1
   17    16    18    1
   18    16    19    1
   19    19    20    1
   20    19    21    1
   21    19    22    1
   22    22    23    1
   23    22    24    1
   24    22    25    1
@<TRIPOS>SUBSTRUCTURE
       1 MOL1            1 RESIDUE      1      MOL     
@<SCITEGIC>MOL_PROPERTY
VConf Rank
SciTegic.value.IntegerValue
375

@<SCITEGIC>MOL_PROPERTY
Conf_Id
SciTegic.value.IntegerValue
9

@<SCITEGIC>MOL_PROPERTY
Delta U+W
SciTegic.value.DoubleValue
1.764

@<SCITEGIC>MOL_PROPERTY
U+W
SciTegic.value.DoubleValue
-49.865

@<SCITEGIC>MOL_PROPERTY
Grad RMS
SciTegic.value.DoubleValue
0.000000

@<SCITEGIC>MOL_PROPERTY
U
SciTegic.value.DoubleValue
10.902

@<SCITEGIC>MOL_PROPERTY
W
SciTegic.value.DoubleValue
-60.768

@<SCITEGIC>MOL_PROPERTY
W(PB)
SciTegic.value.DoubleValue
-63.223

@<SCITEGIC>MOL_PROPERTY
W(SA)
SciTegic.value.DoubleValue
2.456

@<SCITEGIC>MOL_PROPERTY
Valence
SciTegic.value.DoubleValue
9.445

@<SCITEGIC>MOL_PROPERTY
Coulomb
SciTegic.value.DoubleValue
0.778

@<SCITEGIC>MOL_PROPERTY
VdW
SciTegic.value.DoubleValue
0.679

@<SCITEGIC>MOL_PROPERTY
VdW6
SciTegic.value.DoubleValue
-10.007

@<SCITEGIC>MOL_PROPERTY
VdW12
SciTegic.value.DoubleValue
10.687

@<SCITEGIC>MOL_PROPERTY
Bond
SciTegic.value.DoubleValue
0.201

@<SCITEGIC>MOL_PROPERTY
Angle
SciTegic.value.DoubleValue
3.198

@<SCITEGIC>MOL_PROPERTY
Pdih
SciTegic.value.DoubleValue
6.040

@<SCITEGIC>MOL_PROPERTY
Idih
SciTegic.value.DoubleValue
0.006

@<SCITEGIC>MOL_PROPERTY
Tether
SciTegic.value.DoubleValue
0.000

@<TRIPOS>MOLECULE
guest-8_confgen4.mol2 : confsearch ligand conformer 376
          25          24           1
SMALL
USER_CHARGES
 
@<TRIPOS>ATOM
       1    C1      21.613560   16.901818   25.839697 C.2        1 MOL1         0.6168
       2    O1      22.235834   16.340760   24.959586 O.co2      1 MOL1        -0.6703
       3    O2      21.883110   16.806222   27.020820 O.co2      1 MOL1        -0.6703
       4    C2      20.442309   17.791319   25.438855 C.3        1 MOL1        -0.1963
       5    H1      19.689341   17.737226   26.234072 H          1 MOL1         0.0750
       6    H2      19.988517   17.362160   24.540323 H          1 MOL1         0.0750
       7    C3      20.862664   19.266386   25.204062 C.3        1 MOL1        -0.1860
       8    H3      21.302875   19.644448   26.137185 H          1 MOL1         0.0752
       9    H4      21.658744   19.317303   24.448364 H          1 MOL1         0.0752
      10    C4      19.683234   20.188874   24.803749 C.3        1 MOL1        -0.1858
      11    H5      19.855867   21.177115   25.251518 H          1 MOL1         0.0752
      12    H6      18.745728   19.822032   25.243463 H          1 MOL1         0.0752
      13    C5      19.512051   20.393851   23.277498 C.3        1 MOL1        -0.1858
      14    H7      18.708336   21.124906   23.115784 H          1 MOL1         0.0752
      15    H8      20.426993   20.845463   22.872094 H          1 MOL1         0.0752
      16    C6      19.178644   19.100857   22.496359 C.3        1 MOL1        -0.1858
      17    H9      18.357257   18.576422   23.003004 H          1 MOL1         0.0752
      18    H10     20.044215   18.425680   22.509477 H          1 MOL1         0.0752
      19    C7      18.766231   19.361868   21.028939 C.3        1 MOL1        -0.1834
      20    H11     18.452613   18.411220   20.576084 H          1 MOL1         0.0752
      21    H12     17.888852   20.022700   21.001757 H          1 MOL1         0.0752
      22    C8      19.900802   19.969870   20.176057 C.3        1 MOL1        -0.2849
      23    H13     20.798105   19.338261   20.208654 H          1 MOL1         0.0764
      24    H14     19.587849   20.059113   19.127750 H          1 MOL1         0.0764
      25    H15     20.172618   20.972733   20.528554 H          1 MOL1         0.0764
@<TRIPOS>BOND
    1     1     2    1
    2     1     3    2
    3     1     4    1
    4     4     5    1
    5     4     6    1
    6     4     7    1
    7     7     8    1
    8     7     9    1
    9     7    10    1
   10    10    11    1
   11    10    12    1
   12    10    13    1
   13    13    14    1
   14    13    15    1
   15    13    16    1
   16    16    17    1
   17    16    18    1
   18    16    19    1
   19    19    20    1
   20    19    21    1
   21    19    22    1
   22    22    23    1
   23    22    24    1
   24    22    25    1
@<TRIPOS>SUBSTRUCTURE
       1 MOL1            1 RESIDUE      1      MOL     
@<SCITEGIC>MOL_PROPERTY
VConf Rank
SciTegic.value.IntegerValue
376

@<SCITEGIC>MOL_PROPERTY
Conf_Id
SciTegic.value.IntegerValue
89

@<SCITEGIC>MOL_PROPERTY
Delta U+W
SciTegic.value.DoubleValue
2.903

@<SCITEGIC>MOL_PROPERTY
U+W
SciTegic.value.DoubleValue
-48.726

@<SCITEGIC>MOL_PROPERTY
Grad RMS
SciTegic.value.DoubleValue
0.000000

@<SCITEGIC>MOL_PROPERTY
U
SciTegic.value.DoubleValue
10.996

@<SCITEGIC>MOL_PROPERTY
W
SciTegic.value.DoubleValue
-59.723

@<SCITEGIC>MOL_PROPERTY
W(PB)
SciTegic.value.DoubleValue
-62.151

@<SCITEGIC>MOL_PROPERTY
W(SA)
SciTegic.value.DoubleValue
2.428

@<SCITEGIC>MOL_PROPERTY
Valence
SciTegic.value.DoubleValue
10.985

@<SCITEGIC>MOL_PROPERTY
Coulomb
SciTegic.value.DoubleValue
-0.995

@<SCITEGIC>MOL_PROPERTY
VdW
SciTegic.value.DoubleValue
1.006

@<SCITEGIC>MOL_PROPERTY
VdW6
SciTegic.value.DoubleValue
-10.062

@<SCITEGIC>MOL_PROPERTY
VdW12
SciTegic.value.DoubleValue
11.069

@<SCITEGIC>MOL_PROPERTY
Bond
SciTegic.value.DoubleValue
0.238

@<SCITEGIC>MOL_PROPERTY
Angle
SciTegic.value.DoubleValue
3.202

@<SCITEGIC>MOL_PROPERTY
Pdih
SciTegic.value.DoubleValue
7.544

@<SCITEGIC>MOL_PROPERTY
Idih
SciTegic.value.DoubleValue
0.001

@<SCITEGIC>MOL_PROPERTY
Tether
SciTegic.value.DoubleValue
0.000

@<TRIPOS>MOLECULE
guest-8_confgen4.mol2 : confsearch ligand conformer 377
          25          24           1
SMALL
USER_CHARGES
 
@<TRIPOS>ATOM
       1    C1      19.818287   20.300934   20.262533 C.2        1 MOL1         0.6168
       2    O1      18.818380   19.706958   19.909490 O.co2      1 MOL1        -0.6703
       3    O2      19.872631   21.509201   20.383957 O.co2      1 MOL1        -0.6703
       4    C2      21.090073   19.489851   20.503264 C.3        1 MOL1        -0.1963
       5    H1      21.811333   19.817483   19.745690 H          1 MOL1         0.0750
       6    H2      20.882378   18.432035   20.301625 H          1 MOL1         0.0750
       7    C3      21.726662   19.655506   21.912127 C.3        1 MOL1        -0.1860
       8    H3      22.782850   19.362291   21.841878 H          1 MOL1         0.0752
       9    H4      21.726852   20.715561   22.201711 H          1 MOL1         0.0752
      10    C4      21.074892   18.800272   23.027341 C.3        1 MOL1        -0.1858
      11    H5      21.712039   18.873867   23.917367 H          1 MOL1         0.0752
      12    H6      21.078562   17.742474   22.731359 H          1 MOL1         0.0752
      13    C5      19.634133   19.233110   23.392373 C.3        1 MOL1        -0.1858
      14    H7      19.614952   20.305409   23.630229 H          1 MOL1         0.0752
      15    H8      18.983690   19.095481   22.520125 H          1 MOL1         0.0752
      16    C6      19.025472   18.428269   24.565889 C.3        1 MOL1        -0.1858
      17    H9      19.074983   17.354159   24.340807 H          1 MOL1         0.0752
      18    H10     17.958803   18.680234   24.640952 H          1 MOL1         0.0752
      19    C7      19.700275   18.709601   25.927848 C.3        1 MOL1        -0.1834
      20    H11     20.749757   18.388925   25.905849 H          1 MOL1         0.0752
      21    H12     19.699183   19.790398   26.125496 H          1 MOL1         0.0752
      22    C8      18.978359   17.978495   27.077812 C.3        1 MOL1        -0.2849
      23    H13     18.987912   16.892150   26.919286 H          1 MOL1         0.0764
      24    H14     19.470496   18.185430   28.036993 H          1 MOL1         0.0764
      25    H15     17.932942   18.304498   27.156354 H          1 MOL1         0.0764
@<TRIPOS>BOND
    1     1     2    1
    2     1     3    2
    3     1     4    1
    4     4     5    1
    5     4     6    1
    6     4     7    1
    7     7     8    1
    8     7     9    1
    9     7    10    1
   10    10    11    1
   11    10    12    1
   12    10    13    1
   13    13    14    1
   14    13    15    1
   15    13    16    1
   16    16    17    1
   17    16    18    1
   18    16    19    1
   19    19    20    1
   20    19    21    1
   21    19    22    1
   22    22    23    1
   23    22    24    1
   24    22    25    1
@<TRIPOS>SUBSTRUCTURE
       1 MOL1            1 RESIDUE      1      MOL     
@<SCITEGIC>MOL_PROPERTY
VConf Rank
SciTegic.value.IntegerValue
377

@<SCITEGIC>MOL_PROPERTY
Conf_Id
SciTegic.value.IntegerValue
114

@<SCITEGIC>MOL_PROPERTY
Delta U+W
SciTegic.value.DoubleValue
2.758

@<SCITEGIC>MOL_PROPERTY
U+W
SciTegic.value.DoubleValue
-48.871

@<SCITEGIC>MOL_PROPERTY
Grad RMS
SciTegic.value.DoubleValue
0.000000

@<SCITEGIC>MOL_PROPERTY
U
SciTegic.value.DoubleValue
11.422

@<SCITEGIC>MOL_PROPERTY
W
SciTegic.value.DoubleValue
-60.293

@<SCITEGIC>MOL_PROPERTY
W(PB)
SciTegic.value.DoubleValue
-62.719

@<SCITEGIC>MOL_PROPERTY
W(SA)
SciTegic.value.DoubleValue
2.425

@<SCITEGIC>MOL_PROPERTY
Valence
SciTegic.value.DoubleValue
10.135

@<SCITEGIC>MOL_PROPERTY
Coulomb
SciTegic.value.DoubleValue
0.369

@<SCITEGIC>MOL_PROPERTY
VdW
SciTegic.value.DoubleValue
0.918

@<SCITEGIC>MOL_PROPERTY
VdW6
SciTegic.value.DoubleValue
-10.482

@<SCITEGIC>MOL_PROPERTY
VdW12
SciTegic.value.DoubleValue
11.400

@<SCITEGIC>MOL_PROPERTY
Bond
SciTegic.value.DoubleValue
0.245

@<SCITEGIC>MOL_PROPERTY
Angle
SciTegic.value.DoubleValue
3.539

@<SCITEGIC>MOL_PROPERTY
Pdih
SciTegic.value.DoubleValue
6.346

@<SCITEGIC>MOL_PROPERTY
Idih
SciTegic.value.DoubleValue
0.006

@<SCITEGIC>MOL_PROPERTY
Tether
SciTegic.value.DoubleValue
0.000

@<TRIPOS>MOLECULE
guest-8_confgen4.mol2 : confsearch ligand conformer 378
          25          24           1
SMALL
USER_CHARGES
 
@<TRIPOS>ATOM
       1    C1      21.297577   16.542470   20.751493 C.2        1 MOL1         0.6168
       2    O1      20.493792   16.647862   19.846018 O.co2      1 MOL1        -0.6703
       3    O2      22.486535   16.760009   20.624390 O.co2      1 MOL1        -0.6703
       4    C2      20.791438   16.092399   22.119048 C.3        1 MOL1        -0.1963
       5    H1      21.482846   15.326330   22.489280 H          1 MOL1         0.0750
       6    H2      19.817763   15.604796   21.988755 H          1 MOL1         0.0750
       7    C3      20.683078   17.238458   23.158174 C.3        1 MOL1        -0.1860
       8    H3      20.439532   16.808621   24.139080 H          1 MOL1         0.0752
       9    H4      21.664117   17.721245   23.257204 H          1 MOL1         0.0752
      10    C4      19.606921   18.283205   22.776541 C.3        1 MOL1        -0.1858
      11    H5      18.656955   17.763510   22.591276 H          1 MOL1         0.0752
      12    H6      19.880002   18.773221   21.831759 H          1 MOL1         0.0752
      13    C5      19.373026   19.357422   23.865593 C.3        1 MOL1        -0.1858
      14    H7      18.501497   19.955093   23.569939 H          1 MOL1         0.0752
      15    H8      19.108975   18.869396   24.813555 H          1 MOL1         0.0752
      16    C6      20.588557   20.292950   24.079636 C.3        1 MOL1        -0.1858
      17    H9      20.854402   20.777934   23.130532 H          1 MOL1         0.0752
      18    H10     21.459798   19.697156   24.379690 H          1 MOL1         0.0752
      19    C7      20.350919   21.371132   25.162913 C.3        1 MOL1        -0.1834
      20    H11     20.073391   20.889966   26.110935 H          1 MOL1         0.0752
      21    H12     21.297461   21.897440   25.348107 H          1 MOL1         0.0752
      22    C8      19.276341   22.408971   24.771661 C.3        1 MOL1        -0.2849
      23    H13     19.215957   23.202054   25.528150 H          1 MOL1         0.0764
      24    H14     19.515654   22.878461   23.808633 H          1 MOL1         0.0764
      25    H15     18.283279   21.949418   24.693896 H          1 MOL1         0.0764
@<TRIPOS>BOND
    1     1     2    1
    2     1     3    2
    3     1     4    1
    4     4     5    1
    5     4     6    1
    6     4     7    1
    7     7     8    1
    8     7     9    1
    9     7    10    1
   10    10    11    1
   11    10    12    1
   12    10    13    1
   13    13    14    1
   14    13    15    1
   15    13    16    1
   16    16    17    1
   17    16    18    1
   18    16    19    1
   19    19    20    1
   20    19    21    1
   21    19    22    1
   22    22    23    1
   23    22    24    1
   24    22    25    1
@<TRIPOS>SUBSTRUCTURE
       1 MOL1            1 RESIDUE      1      MOL     
@<SCITEGIC>MOL_PROPERTY
VConf Rank
SciTegic.value.IntegerValue
378

@<SCITEGIC>MOL_PROPERTY
Conf_Id
SciTegic.value.IntegerValue
87

@<SCITEGIC>MOL_PROPERTY
Delta U+W
SciTegic.value.DoubleValue
1.453

@<SCITEGIC>MOL_PROPERTY
U+W
SciTegic.value.DoubleValue
-50.176

@<SCITEGIC>MOL_PROPERTY
Grad RMS
SciTegic.value.DoubleValue
0.000000

@<SCITEGIC>MOL_PROPERTY
U
SciTegic.value.DoubleValue
9.763

@<SCITEGIC>MOL_PROPERTY
W
SciTegic.value.DoubleValue
-59.940

@<SCITEGIC>MOL_PROPERTY
W(PB)
SciTegic.value.DoubleValue
-62.392

@<SCITEGIC>MOL_PROPERTY
W(SA)
SciTegic.value.DoubleValue
2.452

@<SCITEGIC>MOL_PROPERTY
Valence
SciTegic.value.DoubleValue
8.883

@<SCITEGIC>MOL_PROPERTY
Coulomb
SciTegic.value.DoubleValue
-0.122

@<SCITEGIC>MOL_PROPERTY
VdW
SciTegic.value.DoubleValue
1.003

@<SCITEGIC>MOL_PROPERTY
VdW6
SciTegic.value.DoubleValue
-9.782

@<SCITEGIC>MOL_PROPERTY
VdW12
SciTegic.value.DoubleValue
10.785

@<SCITEGIC>MOL_PROPERTY
Bond
SciTegic.value.DoubleValue
0.212

@<SCITEGIC>MOL_PROPERTY
Angle
SciTegic.value.DoubleValue
2.940

@<SCITEGIC>MOL_PROPERTY
Pdih
SciTegic.value.DoubleValue
5.730

@<SCITEGIC>MOL_PROPERTY
Idih
SciTegic.value.DoubleValue
0.001

@<SCITEGIC>MOL_PROPERTY
Tether
SciTegic.value.DoubleValue
0.000

@<TRIPOS>MOLECULE
guest-8_confgen4.mol2 : confsearch ligand conformer 379
          25          24           1
SMALL
USER_CHARGES
 
@<TRIPOS>ATOM
       1    C1      17.874296   17.506137   20.450243 C.2        1 MOL1         0.6168
       2    O1      17.509613   18.490943   19.838812 O.co2      1 MOL1        -0.6703
       3    O2      18.079705   16.427787   19.928983 O.co2      1 MOL1        -0.6703
       4    C2      18.104605   17.635269   21.951725 C.3        1 MOL1        -0.1963
       5    H1      17.857602   16.674031   22.418086 H          1 MOL1         0.0750
       6    H2      17.397503   18.376867   22.342383 H          1 MOL1         0.0750
       7    C3      19.555899   18.044264   22.304457 C.3        1 MOL1        -0.1860
       8    H3      20.252782   17.297407   21.899857 H          1 MOL1         0.0752
       9    H4      19.785921   18.997859   21.810968 H          1 MOL1         0.0752
      10    C4      19.760041   18.174890   23.831510 C.3        1 MOL1        -0.1858
      11    H5      19.459033   17.235064   24.313944 H          1 MOL1         0.0752
      12    H6      19.092272   18.949490   24.230864 H          1 MOL1         0.0752
      13    C5      21.224262   18.482447   24.233757 C.3        1 MOL1        -0.1858
      14    H7      21.294760   18.499818   25.329251 H          1 MOL1         0.0752
      15    H8      21.863034   17.650172   23.908551 H          1 MOL1         0.0752
      16    C6      21.804757   19.803626   23.663379 C.3        1 MOL1        -0.1858
      17    H9      21.887734   19.722670   22.571671 H          1 MOL1         0.0752
      18    H10     22.833297   19.920903   24.030585 H          1 MOL1         0.0752
      19    C7      21.002355   21.081338   24.012282 C.3        1 MOL1        -0.1834
      20    H11     21.491085   21.942638   23.536664 H          1 MOL1         0.0752
      21    H12     19.995405   21.025519   23.577806 H          1 MOL1         0.0752
      22    C8      20.901534   21.342927   25.530652 C.3        1 MOL1        -0.2849
      23    H13     21.898143   21.386211   25.988725 H          1 MOL1         0.0764
      24    H14     20.398216   22.299096   25.723369 H          1 MOL1         0.0764
      25    H15     20.325153   20.555999   26.033122 H          1 MOL1         0.0764
@<TRIPOS>BOND
    1     1     2    1
    2     1     3    2
    3     1     4    1
    4     4     5    1
    5     4     6    1
    6     4     7    1
    7     7     8    1
    8     7     9    1
    9     7    10    1
   10    10    11    1
   11    10    12    1
   12    10    13    1
   13    13    14    1
   14    13    15    1
   15    13    16    1
   16    16    17    1
   17    16    18    1
   18    16    19    1
   19    19    20    1
   20    19    21    1
   21    19    22    1
   22    22    23    1
   23    22    24    1
   24    22    25    1
@<TRIPOS>SUBSTRUCTURE
       1 MOL1            1 RESIDUE      1      MOL     
@<SCITEGIC>MOL_PROPERTY
VConf Rank
SciTegic.value.IntegerValue
379

@<SCITEGIC>MOL_PROPERTY
Conf_Id
SciTegic.value.IntegerValue
29

@<SCITEGIC>MOL_PROPERTY
Delta U+W
SciTegic.value.DoubleValue
0.850

@<SCITEGIC>MOL_PROPERTY
U+W
SciTegic.value.DoubleValue
-50.780

@<SCITEGIC>MOL_PROPERTY
Grad RMS
SciTegic.value.DoubleValue
0.000000

@<SCITEGIC>MOL_PROPERTY
U
SciTegic.value.DoubleValue
8.646

@<SCITEGIC>MOL_PROPERTY
W
SciTegic.value.DoubleValue
-59.426

@<SCITEGIC>MOL_PROPERTY
W(PB)
SciTegic.value.DoubleValue
-61.868

@<SCITEGIC>MOL_PROPERTY
W(SA)
SciTegic.value.DoubleValue
2.442

@<SCITEGIC>MOL_PROPERTY
Valence
SciTegic.value.DoubleValue
8.924

@<SCITEGIC>MOL_PROPERTY
Coulomb
SciTegic.value.DoubleValue
-1.171

@<SCITEGIC>MOL_PROPERTY
VdW
SciTegic.value.DoubleValue
0.894

@<SCITEGIC>MOL_PROPERTY
VdW6
SciTegic.value.DoubleValue
-10.223

@<SCITEGIC>MOL_PROPERTY
VdW12
SciTegic.value.DoubleValue
11.117

@<SCITEGIC>MOL_PROPERTY
Bond
SciTegic.value.DoubleValue
0.231

@<SCITEGIC>MOL_PROPERTY
Angle
SciTegic.value.DoubleValue
3.232

@<SCITEGIC>MOL_PROPERTY
Pdih
SciTegic.value.DoubleValue
5.461

@<SCITEGIC>MOL_PROPERTY
Idih
SciTegic.value.DoubleValue
0.001

@<SCITEGIC>MOL_PROPERTY
Tether
SciTegic.value.DoubleValue
0.000

@<TRIPOS>MOLECULE
guest-8_confgen4.mol2 : confsearch ligand conformer 380
          25          24           1
SMALL
USER_CHARGES
 
@<TRIPOS>ATOM
       1    C1      23.617334   17.930648   22.335267 C.2        1 MOL1         0.6168
       2    O1      23.923404   17.251260   23.295183 O.co2      1 MOL1        -0.6703
       3    O2      24.418012   18.563308   21.675423 O.co2      1 MOL1        -0.6703
       4    C2      22.144701   18.008783   21.948717 C.3        1 MOL1        -0.1963
       5    H1      21.674939   17.050489   22.200845 H          1 MOL1         0.0750
       6    H2      22.084029   18.123541   20.859850 H          1 MOL1         0.0750
       7    C3      21.399232   19.169764   22.651820 C.3        1 MOL1        -0.1860
       8    H3      21.490922   19.043883   23.738804 H          1 MOL1         0.0752
       9    H4      21.885502   20.121466   22.396969 H          1 MOL1         0.0752
      10    C4      19.907583   19.221572   22.248170 C.3        1 MOL1        -0.1858
      11    H5      19.411233   18.286337   22.538650 H          1 MOL1         0.0752
      12    H6      19.835345   19.277385   21.153507 H          1 MOL1         0.0752
      13    C5      19.147741   20.430516   22.849363 C.3        1 MOL1        -0.1858
      14    H7      19.600520   21.356966   22.471008 H          1 MOL1         0.0752
      15    H8      18.117931   20.426826   22.468758 H          1 MOL1         0.0752
      16    C6      19.119293   20.491108   24.399635 C.3        1 MOL1        -0.1858
      17    H9      18.540283   21.373315   24.704511 H          1 MOL1         0.0752
      18    H10     20.136801   20.660624   24.775410 H          1 MOL1         0.0752
      19    C7      18.528248   19.241512   25.097710 C.3        1 MOL1        -0.1834
      20    H11     19.144588   18.359462   24.878738 H          1 MOL1         0.0752
      21    H12     18.583816   19.388578   26.184994 H          1 MOL1         0.0752
      22    C8      17.060524   18.961983   24.708242 C.3        1 MOL1        -0.2849
      23    H13     16.972520   18.704163   23.645354 H          1 MOL1         0.0764
      24    H14     16.662307   18.120224   25.289271 H          1 MOL1         0.0764
      25    H15     16.428613   19.837936   24.904023 H          1 MOL1         0.0764
@<TRIPOS>BOND
    1     1     2    1
    2     1     3    2
    3     1     4    1
    4     4     5    1
    5     4     6    1
    6     4     7    1
    7     7     8    1
    8     7     9    1
    9     7    10    1
   10    10    11    1
   11    10    12    1
   12    10    13    1
   13    13    14    1
   14    13    15    1
   15    13    16    1
   16    16    17    1
   17    16    18    1
   18    16    19    1
   19    19    20    1
   20    19    21    1
   21    19    22    1
   22    22    23    1
   23    22    24    1
   24    22    25    1
@<TRIPOS>SUBSTRUCTURE
       1 MOL1            1 RESIDUE      1      MOL     
@<SCITEGIC>MOL_PROPERTY
VConf Rank
SciTegic.value.IntegerValue
380

@<SCITEGIC>MOL_PROPERTY
Conf_Id
SciTegic.value.IntegerValue
30

@<SCITEGIC>MOL_PROPERTY
Delta U+W
SciTegic.value.DoubleValue
0.843

@<SCITEGIC>MOL_PROPERTY
U+W
SciTegic.value.DoubleValue
-50.787

@<SCITEGIC>MOL_PROPERTY
Grad RMS
SciTegic.value.DoubleValue
0.000000

@<SCITEGIC>MOL_PROPERTY
U
SciTegic.value.DoubleValue
8.647

@<SCITEGIC>MOL_PROPERTY
W
SciTegic.value.DoubleValue
-59.434

@<SCITEGIC>MOL_PROPERTY
W(PB)
SciTegic.value.DoubleValue
-61.861

@<SCITEGIC>MOL_PROPERTY
W(SA)
SciTegic.value.DoubleValue
2.428

@<SCITEGIC>MOL_PROPERTY
Valence
SciTegic.value.DoubleValue
8.924

@<SCITEGIC>MOL_PROPERTY
Coulomb
SciTegic.value.DoubleValue
-1.170

@<SCITEGIC>MOL_PROPERTY
VdW
SciTegic.value.DoubleValue
0.894

@<SCITEGIC>MOL_PROPERTY
VdW6
SciTegic.value.DoubleValue
-10.224

@<SCITEGIC>MOL_PROPERTY
VdW12
SciTegic.value.DoubleValue
11.118

@<SCITEGIC>MOL_PROPERTY
Bond
SciTegic.value.DoubleValue
0.231

@<SCITEGIC>MOL_PROPERTY
Angle
SciTegic.value.DoubleValue
3.232

@<SCITEGIC>MOL_PROPERTY
Pdih
SciTegic.value.DoubleValue
5.460

@<SCITEGIC>MOL_PROPERTY
Idih
SciTegic.value.DoubleValue
0.000

@<SCITEGIC>MOL_PROPERTY
Tether
SciTegic.value.DoubleValue
0.000

@<TRIPOS>MOLECULE
guest-8_confgen4.mol2 : confsearch ligand conformer 381
          25          24           1
SMALL
USER_CHARGES
 
@<TRIPOS>ATOM
       1    C1      16.027544   19.128936   25.528972 C.2        1 MOL1         0.6168
       2    O1      15.423064   18.545624   24.649795 O.co2      1 MOL1        -0.6703
       3    O2      15.512730   19.468366   26.575811 O.co2      1 MOL1        -0.6703
       4    C2      17.507170   19.465695   25.337405 C.3        1 MOL1        -0.1963
       5    H1      18.057160   19.005457   26.166620 H          1 MOL1         0.0750
       6    H2      17.611996   20.551558   25.446130 H          1 MOL1         0.0750
       7    C3      18.119877   19.012162   23.985622 C.3        1 MOL1        -0.1860
       8    H3      18.005685   17.924324   23.880393 H          1 MOL1         0.0752
       9    H4      17.560163   19.471862   23.159243 H          1 MOL1         0.0752
      10    C4      19.612924   19.390861   23.875880 C.3        1 MOL1        -0.1858
      11    H5      20.170441   18.930254   24.703015 H          1 MOL1         0.0752
      12    H6      19.724637   20.478759   23.981393 H          1 MOL1         0.0752
      13    C5      20.220367   18.938763   22.530477 C.3        1 MOL1        -0.1858
      14    H7      20.108826   17.850887   22.424702 H          1 MOL1         0.0752
      15    H8      19.663075   19.399253   21.703145 H          1 MOL1         0.0752
      16    C6      21.713215   19.317095   22.420103 C.3        1 MOL1        -0.1858
      17    H9      22.270713   18.856660   23.247321 H          1 MOL1         0.0752
      18    H10     21.824980   20.404956   22.525746 H          1 MOL1         0.0752
      19    C7      22.320507   18.865208   21.075351 C.3        1 MOL1        -0.1834
      20    H11     22.212222   17.777083   20.966970 H          1 MOL1         0.0752
      21    H12     21.766502   19.325368   20.245400 H          1 MOL1         0.0752
      22    C8      23.811215   19.244792   20.969012 C.3        1 MOL1        -0.2849
      23    H13     24.395053   18.771974   21.769620 H          1 MOL1         0.0764
      24    H14     24.226505   18.916189   20.007429 H          1 MOL1         0.0764
      25    H15     23.945980   20.331908   21.042598 H          1 MOL1         0.0764
@<TRIPOS>BOND
    1     1     2    1
    2     1     3    2
    3     1     4    1
    4     4     5    1
    5     4     6    1
    6     4     7    1
    7     7     8    1
    8     7     9    1
    9     7    10    1
   10    10    11    1
   11    10    12    1
   12    10    13    1
   13    13    14    1
   14    13    15    1
   15    13    16    1
   16    16    17    1
   17    16    18    1
   18    16    19    1
   19    19    20    1
   20    19    21    1
   21    19    22    1
   22    22    23    1
   23    22    24    1
   24    22    25    1
@<TRIPOS>SUBSTRUCTURE
       1 MOL1            1 RESIDUE      1      MOL     
@<SCITEGIC>MOL_PROPERTY
VConf Rank
SciTegic.value.IntegerValue
381

@<SCITEGIC>MOL_PROPERTY
Conf_Id
SciTegic.value.IntegerValue
0

@<SCITEGIC>MOL_PROPERTY
Delta U+W
SciTegic.value.DoubleValue
0.000

@<SCITEGIC>MOL_PROPERTY
U+W
SciTegic.value.DoubleValue
-51.629

@<SCITEGIC>MOL_PROPERTY
Grad RMS
SciTegic.value.DoubleValue
0.000000

@<SCITEGIC>MOL_PROPERTY
U
SciTegic.value.DoubleValue
6.586

@<SCITEGIC>MOL_PROPERTY
W
SciTegic.value.DoubleValue
-58.216

@<SCITEGIC>MOL_PROPERTY
W(PB)
SciTegic.value.DoubleValue
-60.757

@<SCITEGIC>MOL_PROPERTY
W(SA)
SciTegic.value.DoubleValue
2.541

@<SCITEGIC>MOL_PROPERTY
Valence
SciTegic.value.DoubleValue
8.027

@<SCITEGIC>MOL_PROPERTY
Coulomb
SciTegic.value.DoubleValue
-2.892

@<SCITEGIC>MOL_PROPERTY
VdW
SciTegic.value.DoubleValue
1.451

@<SCITEGIC>MOL_PROPERTY
VdW6
SciTegic.value.DoubleValue
-7.931

@<SCITEGIC>MOL_PROPERTY
VdW12
SciTegic.value.DoubleValue
9.383

@<SCITEGIC>MOL_PROPERTY
Bond
SciTegic.value.DoubleValue
0.149

@<SCITEGIC>MOL_PROPERTY
Angle
SciTegic.value.DoubleValue
2.726

@<SCITEGIC>MOL_PROPERTY
Pdih
SciTegic.value.DoubleValue
5.152

@<SCITEGIC>MOL_PROPERTY
Idih
SciTegic.value.DoubleValue
0.000

@<SCITEGIC>MOL_PROPERTY
Tether
SciTegic.value.DoubleValue
0.000

@<TRIPOS>MOLECULE
guest-8_confgen4.mol2 : confsearch ligand conformer 382
          25          24           1
SMALL
USER_CHARGES
 
@<TRIPOS>ATOM
       1    C1      20.663818   17.882181   18.674286 C.2        1 MOL1         0.6168
       2    O1      21.804556   17.966068   18.264041 O.co2      1 MOL1        -0.6703
       3    O2      19.868793   17.048352   18.287912 O.co2      1 MOL1        -0.6703
       4    C2      20.212050   18.863117   19.750275 C.3        1 MOL1        -0.1963
       5    H1      19.141868   19.055667   19.608006 H          1 MOL1         0.0750
       6    H2      20.736766   19.812273   19.587850 H          1 MOL1         0.0750
       7    C3      20.476013   18.344925   21.185484 C.3        1 MOL1        -0.1860
       8    H3      19.954752   17.387981   21.327392 H          1 MOL1         0.0752
       9    H4      21.549597   18.144422   21.307172 H          1 MOL1         0.0752
      10    C4      20.010399   19.355234   22.256233 C.3        1 MOL1        -0.1858
      11    H5      18.937136   19.554343   22.131164 H          1 MOL1         0.0752
      12    H6      20.532277   20.311092   22.110774 H          1 MOL1         0.0752
      13    C5      20.275001   18.836041   23.685881 C.3        1 MOL1        -0.1858
      14    H7      19.753169   17.880237   23.831596 H          1 MOL1         0.0752
      15    H8      21.348196   18.636889   23.811162 H          1 MOL1         0.0752
      16    C6      19.809698   19.845853   24.757166 C.3        1 MOL1        -0.1858
      17    H9      18.736494   20.045145   24.632219 H          1 MOL1         0.0752
      18    H10     20.331374   20.801780   24.611722 H          1 MOL1         0.0752
      19    C7      20.074178   19.327087   26.186254 C.3        1 MOL1        -0.1834
      20    H11     19.552296   18.371747   26.336092 H          1 MOL1         0.0752
      21    H12     21.147157   19.128405   26.315606 H          1 MOL1         0.0752
      22    C8      19.608160   20.338219   27.253044 C.3        1 MOL1        -0.2849
      23    H13     19.803674   19.953442   28.262405 H          1 MOL1         0.0764
      24    H14     20.137731   21.294016   27.146251 H          1 MOL1         0.0764
      25    H15     18.530870   20.531657   27.166886 H          1 MOL1         0.0764
@<TRIPOS>BOND
    1     1     2    1
    2     1     3    2
    3     1     4    1
    4     4     5    1
    5     4     6    1
    6     4     7    1
    7     7     8    1
    8     7     9    1
    9     7    10    1
   10    10    11    1
   11    10    12    1
   12    10    13    1
   13    13    14    1
   14    13    15    1
   15    13    16    1
   16    16    17    1
   17    16    18    1
   18    16    19    1
   19    19    20    1
   20    19    21    1
   21    19    22    1
   22    22    23    1
   23    22    24    1
   24    22    25    1
@<TRIPOS>SUBSTRUCTURE
       1 MOL1            1 RESIDUE      1      MOL     
@<SCITEGIC>MOL_PROPERTY
VConf Rank
SciTegic.value.IntegerValue
382

@<SCITEGIC>MOL_PROPERTY
Conf_Id
SciTegic.value.IntegerValue
27

@<SCITEGIC>MOL_PROPERTY
Delta U+W
SciTegic.value.DoubleValue
-1.297

@<SCITEGIC>MOL_PROPERTY
U+W
SciTegic.value.DoubleValue
-52.926

@<SCITEGIC>MOL_PROPERTY
Grad RMS
SciTegic.value.DoubleValue
0.000000

@<SCITEGIC>MOL_PROPERTY
U
SciTegic.value.DoubleValue
5.617

@<SCITEGIC>MOL_PROPERTY
W
SciTegic.value.DoubleValue
-58.543

@<SCITEGIC>MOL_PROPERTY
W(PB)
SciTegic.value.DoubleValue
-61.065

@<SCITEGIC>MOL_PROPERTY
W(SA)
SciTegic.value.DoubleValue
2.522

@<SCITEGIC>MOL_PROPERTY
Valence
SciTegic.value.DoubleValue
7.531

@<SCITEGIC>MOL_PROPERTY
Coulomb
SciTegic.value.DoubleValue
-2.818

@<SCITEGIC>MOL_PROPERTY
VdW
SciTegic.value.DoubleValue
0.904

@<SCITEGIC>MOL_PROPERTY
VdW6
SciTegic.value.DoubleValue
-7.640

@<SCITEGIC>MOL_PROPERTY
VdW12
SciTegic.value.DoubleValue
8.544

@<SCITEGIC>MOL_PROPERTY
Bond
SciTegic.value.DoubleValue
0.115

@<SCITEGIC>MOL_PROPERTY
Angle
SciTegic.value.DoubleValue
2.271

@<SCITEGIC>MOL_PROPERTY
Pdih
SciTegic.value.DoubleValue
5.144

@<SCITEGIC>MOL_PROPERTY
Idih
SciTegic.value.DoubleValue
0.001

@<SCITEGIC>MOL_PROPERTY
Tether
SciTegic.value.DoubleValue
0.000

@<TRIPOS>MOLECULE
guest-8_confgen4.mol2 : confsearch ligand conformer 383
          25          24           1
SMALL
USER_CHARGES
 
@<TRIPOS>ATOM
       1    C1      18.222791   22.259533   24.815013 C.2        1 MOL1         0.6168
       2    O1      17.149019   22.449603   24.278394 O.co2      1 MOL1        -0.6703
       3    O2      18.344223   21.921927   25.976151 O.co2      1 MOL1        -0.6703
       4    C2      19.487393   22.473545   23.988004 C.3        1 MOL1        -0.1963
       5    H1      20.335088   22.603026   24.671740 H          1 MOL1         0.0750
       6    H2      19.368883   23.419489   23.446590 H          1 MOL1         0.0750
       7    C3      19.781734   21.332652   22.979703 C.3        1 MOL1        -0.1860
       8    H3      18.913213   21.196698   22.320263 H          1 MOL1         0.0752
       9    H4      20.621825   21.631753   22.338350 H          1 MOL1         0.0752
      10    C4      20.123597   19.996766   23.677060 C.3        1 MOL1        -0.1858
      11    H5      19.280441   19.681761   24.307363 H          1 MOL1         0.0752
      12    H6      20.983733   20.141104   24.345159 H          1 MOL1         0.0752
      13    C5      20.444062   18.884217   22.655704 C.3        1 MOL1        -0.1858
      14    H7      19.583383   18.740599   21.988101 H          1 MOL1         0.0752
      15    H8      21.288907   19.195762   22.026249 H          1 MOL1         0.0752
      16    C6      20.784919   17.548870   23.351783 C.3        1 MOL1        -0.1858
      17    H9      19.940153   17.237217   23.981364 H          1 MOL1         0.0752
      18    H10     21.645361   17.692350   24.019716 H          1 MOL1         0.0752
      19    C7      21.104803   16.436376   22.331293 C.3        1 MOL1        -0.1834
      20    H11     20.245433   16.288855   21.662560 H          1 MOL1         0.0752
      21    H12     21.950715   16.743933   21.700959 H          1 MOL1         0.0752
      22    C8      21.444438   15.104653   23.030412 C.3        1 MOL1        -0.2849
      23    H13     20.602691   14.757106   23.643658 H          1 MOL1         0.0764
      24    H14     21.669048   14.325477   22.290469 H          1 MOL1         0.0764
      25    H15     22.320792   15.215603   23.682399 H          1 MOL1         0.0764
@<TRIPOS>BOND
    1     1     2    1
    2     1     3    2
    3     1     4    1
    4     4     5    1
    5     4     6    1
    6     4     7    1
    7     7     8    1
    8     7     9    1
    9     7    10    1
   10    10    11    1
   11    10    12    1
   12    10    13    1
   13    13    14    1
   14    13    15    1
   15    13    16    1
   16    16    17    1
   17    16    18    1
   18    16    19    1
   19    19    20    1
   20    19    21    1
   21    19    22    1
   22    22    23    1
   23    22    24    1
   24    22    25    1
@<TRIPOS>SUBSTRUCTURE
       1 MOL1            1 RESIDUE      1      MOL     
@<SCITEGIC>MOL_PROPERTY
VConf Rank
SciTegic.value.IntegerValue
383

@<SCITEGIC>MOL_PROPERTY
Conf_Id
SciTegic.value.IntegerValue
37

@<SCITEGIC>MOL_PROPERTY
Delta U+W
SciTegic.value.DoubleValue
-0.230

@<SCITEGIC>MOL_PROPERTY
U+W
SciTegic.value.DoubleValue
-51.860

@<SCITEGIC>MOL_PROPERTY
Grad RMS
SciTegic.value.DoubleValue
0.000000

@<SCITEGIC>MOL_PROPERTY
U
SciTegic.value.DoubleValue
7.816

@<SCITEGIC>MOL_PROPERTY
W
SciTegic.value.DoubleValue
-59.675

@<SCITEGIC>MOL_PROPERTY
W(PB)
SciTegic.value.DoubleValue
-62.180

@<SCITEGIC>MOL_PROPERTY
W(SA)
SciTegic.value.DoubleValue
2.505

@<SCITEGIC>MOL_PROPERTY
Valence
SciTegic.value.DoubleValue
7.785

@<SCITEGIC>MOL_PROPERTY
Coulomb
SciTegic.value.DoubleValue
-0.713

@<SCITEGIC>MOL_PROPERTY
VdW
SciTegic.value.DoubleValue
0.744

@<SCITEGIC>MOL_PROPERTY
VdW6
SciTegic.value.DoubleValue
-8.514

@<SCITEGIC>MOL_PROPERTY
VdW12
SciTegic.value.DoubleValue
9.259

@<SCITEGIC>MOL_PROPERTY
Bond
SciTegic.value.DoubleValue
0.136

@<SCITEGIC>MOL_PROPERTY
Angle
SciTegic.value.DoubleValue
2.433

@<SCITEGIC>MOL_PROPERTY
Pdih
SciTegic.value.DoubleValue
5.216

@<SCITEGIC>MOL_PROPERTY
Idih
SciTegic.value.DoubleValue
0.000

@<SCITEGIC>MOL_PROPERTY
Tether
SciTegic.value.DoubleValue
0.000

@<TRIPOS>MOLECULE
guest-8_confgen4.mol2 : confsearch ligand conformer 384
          25          24           1
SMALL
USER_CHARGES
 
@<TRIPOS>ATOM
       1    C1      18.044193   16.882366   25.868765 C.2        1 MOL1         0.6168
       2    O1      17.964735   17.316151   27.001281 O.co2      1 MOL1        -0.6703
       3    O2      18.690666   15.897820   25.569256 O.co2      1 MOL1        -0.6703
       4    C2      17.275906   17.605985   24.766460 C.3        1 MOL1        -0.1963
       5    H1      16.267144   17.805542   25.146669 H          1 MOL1         0.0750
       6    H2      17.164883   16.926244   23.912954 H          1 MOL1         0.0750
       7    C3      17.930450   18.935922   24.310625 C.3        1 MOL1        -0.1860
       8    H3      17.247155   19.452001   23.622643 H          1 MOL1         0.0752
       9    H4      18.060294   19.594591   25.180664 H          1 MOL1         0.0752
      10    C4      19.290834   18.719363   23.610464 C.3        1 MOL1        -0.1858
      11    H5      19.158070   18.049795   22.749606 H          1 MOL1         0.0752
      12    H6      19.985932   18.218783   24.298708 H          1 MOL1         0.0752
      13    C5      19.908944   20.052612   23.137159 C.3        1 MOL1        -0.1858
      14    H7      19.216831   20.553602   22.446489 H          1 MOL1         0.0752
      15    H8      20.041428   20.721425   23.998683 H          1 MOL1         0.0752
      16    C6      21.268609   19.837072   22.438081 C.3        1 MOL1        -0.1858
      17    H9      21.136400   19.168043   21.576686 H          1 MOL1         0.0752
      18    H10     21.960830   19.335947   23.128610 H          1 MOL1         0.0752
      19    C7      21.887123   21.169491   21.965359 C.3        1 MOL1        -0.1834
      20    H11     21.198093   21.672739   21.272930 H          1 MOL1         0.0752
      21    H12     22.022614   21.840571   22.824880 H          1 MOL1         0.0752
      22    C8      23.244655   20.949863   21.267884 C.3        1 MOL1        -0.2849
      23    H13     23.133186   20.306838   20.384998 H          1 MOL1         0.0764
      24    H14     23.669790   21.906891   20.938580 H          1 MOL1         0.0764
      25    H15     23.963889   20.475858   21.948633 H          1 MOL1         0.0764
@<TRIPOS>BOND
    1     1     2    1
    2     1     3    2
    3     1     4    1
    4     4     5    1
    5     4     6    1
    6     4     7    1
    7     7     8    1
    8     7     9    1
    9     7    10    1
   10    10    11    1
   11    10    12    1
   12    10    13    1
   13    13    14    1
   14    13    15    1
   15    13    16    1
   16    16    17    1
   17    16    18    1
   18    16    19    1
   19    19    20    1
   20    19    21    1
   21    19    22    1
   22    22    23    1
   23    22    24    1
   24    22    25    1
@<TRIPOS>SUBSTRUCTURE
       1 MOL1            1 RESIDUE      1      MOL     
@<SCITEGIC>MOL_PROPERTY
VConf Rank
SciTegic.value.IntegerValue
384

@<SCITEGIC>MOL_PROPERTY
Conf_Id
SciTegic.value.IntegerValue
54

@<SCITEGIC>MOL_PROPERTY
Delta U+W
SciTegic.value.DoubleValue
-0.224

@<SCITEGIC>MOL_PROPERTY
U+W
SciTegic.value.DoubleValue
-51.854

@<SCITEGIC>MOL_PROPERTY
Grad RMS
SciTegic.value.DoubleValue
0.000000

@<SCITEGIC>MOL_PROPERTY
U
SciTegic.value.DoubleValue
7.816

@<SCITEGIC>MOL_PROPERTY
W
SciTegic.value.DoubleValue
-59.670

@<SCITEGIC>MOL_PROPERTY
W(PB)
SciTegic.value.DoubleValue
-62.157

@<SCITEGIC>MOL_PROPERTY
W(SA)
SciTegic.value.DoubleValue
2.487

@<SCITEGIC>MOL_PROPERTY
Valence
SciTegic.value.DoubleValue
7.785

@<SCITEGIC>MOL_PROPERTY
Coulomb
SciTegic.value.DoubleValue
-0.713

@<SCITEGIC>MOL_PROPERTY
VdW
SciTegic.value.DoubleValue
0.744

@<SCITEGIC>MOL_PROPERTY
VdW6
SciTegic.value.DoubleValue
-8.515

@<SCITEGIC>MOL_PROPERTY
VdW12
SciTegic.value.DoubleValue
9.259

@<SCITEGIC>MOL_PROPERTY
Bond
SciTegic.value.DoubleValue
0.136

@<SCITEGIC>MOL_PROPERTY
Angle
SciTegic.value.DoubleValue
2.433

@<SCITEGIC>MOL_PROPERTY
Pdih
SciTegic.value.DoubleValue
5.215

@<SCITEGIC>MOL_PROPERTY
Idih
SciTegic.value.DoubleValue
0.000

@<SCITEGIC>MOL_PROPERTY
Tether
SciTegic.value.DoubleValue
0.000

@<TRIPOS>MOLECULE
guest-8_confgen4.mol2 : confsearch ligand conformer 385
          25          24           1
SMALL
USER_CHARGES
 
@<TRIPOS>ATOM
       1    C1      21.329693   22.030625   20.752638 C.2        1 MOL1         0.6168
       2    O1      20.785097   23.040715   21.152865 O.co2      1 MOL1        -0.6703
       3    O2      22.517710   21.959507   20.506327 O.co2      1 MOL1        -0.6703
       4    C2      20.473346   20.787364   20.528683 C.3        1 MOL1        -0.1963
       5    H1      20.747808   20.373274   19.551355 H          1 MOL1         0.0750
       6    H2      19.422376   21.093272   20.460036 H          1 MOL1         0.0750
       7    C3      20.643667   19.697331   21.618859 C.3        1 MOL1        -0.1860
       8    H3      20.115916   18.793289   21.290237 H          1 MOL1         0.0752
       9    H4      21.706402   19.431457   21.704331 H          1 MOL1         0.0752
      10    C4      20.102536   20.146912   22.997628 C.3        1 MOL1        -0.1858
      11    H5      19.029344   20.368692   22.921138 H          1 MOL1         0.0752
      12    H6      20.592062   21.087161   23.286198 H          1 MOL1         0.0752
      13    C5      20.339490   19.112277   24.123834 C.3        1 MOL1        -0.1858
      14    H7      21.410496   18.876703   24.187304 H          1 MOL1         0.0752
      15    H8      20.067533   19.582438   25.077332 H          1 MOL1         0.0752
      16    C6      19.525929   17.806454   23.945579 C.3        1 MOL1        -0.1858
      17    H9      19.801468   17.330483   22.996156 H          1 MOL1         0.0752
      18    H10     18.455454   18.043114   23.877084 H          1 MOL1         0.0752
      19    C7      19.756892   16.779355   25.078809 C.3        1 MOL1        -0.1834
      20    H11     19.257707   15.838917   24.807449 H          1 MOL1         0.0752
      21    H12     20.828365   16.549443   25.158721 H          1 MOL1         0.0752
      22    C8      19.220825   17.245931   26.449895 C.3        1 MOL1        -0.2849
      23    H13     19.774740   18.116196   26.823016 H          1 MOL1         0.0764
      24    H14     18.158400   17.514715   26.385713 H          1 MOL1         0.0764
      25    H15     19.322110   16.445112   27.193760 H          1 MOL1         0.0764
@<TRIPOS>BOND
    1     1     2    1
    2     1     3    2
    3     1     4    1
    4     4     5    1
    5     4     6    1
    6     4     7    1
    7     7     8    1
    8     7     9    1
    9     7    10    1
   10    10    11    1
   11    10    12    1
   12    10    13    1
   13    13    14    1
   14    13    15    1
   15    13    16    1
   16    16    17    1
   17    16    18    1
   18    16    19    1
   19    19    20    1
   20    19    21    1
   21    19    22    1
   22    22    23    1
   23    22    24    1
   24    22    25    1
@<TRIPOS>SUBSTRUCTURE
       1 MOL1            1 RESIDUE      1      MOL     
@<SCITEGIC>MOL_PROPERTY
VConf Rank
SciTegic.value.IntegerValue
385

@<SCITEGIC>MOL_PROPERTY
Conf_Id
SciTegic.value.IntegerValue
101

@<SCITEGIC>MOL_PROPERTY
Delta U+W
SciTegic.value.DoubleValue
1.534

@<SCITEGIC>MOL_PROPERTY
U+W
SciTegic.value.DoubleValue
-50.095

@<SCITEGIC>MOL_PROPERTY
Grad RMS
SciTegic.value.DoubleValue
0.000000

@<SCITEGIC>MOL_PROPERTY
U
SciTegic.value.DoubleValue
9.416

@<SCITEGIC>MOL_PROPERTY
W
SciTegic.value.DoubleValue
-59.512

@<SCITEGIC>MOL_PROPERTY
W(PB)
SciTegic.value.DoubleValue
-61.988

@<SCITEGIC>MOL_PROPERTY
W(SA)
SciTegic.value.DoubleValue
2.476

@<SCITEGIC>MOL_PROPERTY
Valence
SciTegic.value.DoubleValue
8.939

@<SCITEGIC>MOL_PROPERTY
Coulomb
SciTegic.value.DoubleValue
-0.615

@<SCITEGIC>MOL_PROPERTY
VdW
SciTegic.value.DoubleValue
1.092

@<SCITEGIC>MOL_PROPERTY
VdW6
SciTegic.value.DoubleValue
-9.710

@<SCITEGIC>MOL_PROPERTY
VdW12
SciTegic.value.DoubleValue
10.802

@<SCITEGIC>MOL_PROPERTY
Bond
SciTegic.value.DoubleValue
0.216

@<SCITEGIC>MOL_PROPERTY
Angle
SciTegic.value.DoubleValue
2.979

@<SCITEGIC>MOL_PROPERTY
Pdih
SciTegic.value.DoubleValue
5.743

@<SCITEGIC>MOL_PROPERTY
Idih
SciTegic.value.DoubleValue
0.000

@<SCITEGIC>MOL_PROPERTY
Tether
SciTegic.value.DoubleValue
0.000

@<TRIPOS>MOLECULE
guest-8_confgen4.mol2 : confsearch ligand conformer 386
          25          24           1
SMALL
USER_CHARGES
 
@<TRIPOS>ATOM
       1    C1      23.898123   20.148038   24.741169 C.2        1 MOL1         0.6168
       2    O1      23.987893   19.670649   25.855071 O.co2      1 MOL1        -0.6703
       3    O2      24.857367   20.455869   24.061561 O.co2      1 MOL1        -0.6703
       4    C2      22.505638   20.351100   24.154724 C.3        1 MOL1        -0.1963
       5    H1      22.539558   21.224974   23.493263 H          1 MOL1         0.0750
       6    H2      21.829171   20.594385   24.981505 H          1 MOL1         0.0750
       7    C3      21.996612   19.110002   23.376184 C.3        1 MOL1        -0.1860
       8    H3      22.746900   18.837478   22.621051 H          1 MOL1         0.0752
       9    H4      21.919797   18.253104   24.059650 H          1 MOL1         0.0752
      10    C4      20.640442   19.335510   22.665793 C.3        1 MOL1        -0.1858
      11    H5      20.439982   18.460975   22.033737 H          1 MOL1         0.0752
      12    H6      20.716794   20.198465   21.990482 H          1 MOL1         0.0752
      13    C5      19.458892   19.540440   23.645510 C.3        1 MOL1        -0.1858
      14    H7      19.382065   18.677703   24.319898 H          1 MOL1         0.0752
      15    H8      19.660706   20.409207   24.284440 H          1 MOL1         0.0752
      16    C6      18.101749   19.780301   22.936294 C.3        1 MOL1        -0.1858
      17    H9      18.172399   20.696500   22.334410 H          1 MOL1         0.0752
      18    H10     17.337582   19.978574   23.700104 H          1 MOL1         0.0752
      19    C7      17.609786   18.624864   22.029431 C.3        1 MOL1        -0.1834
      20    H11     16.648073   18.915672   21.584929 H          1 MOL1         0.0752
      21    H12     18.300213   18.481993   21.187861 H          1 MOL1         0.0752
      22    C8      17.424232   17.290470   22.783687 C.3        1 MOL1        -0.2849
      23    H13     16.755356   17.415621   23.645036 H          1 MOL1         0.0764
      24    H14     16.985996   16.532534   22.121683 H          1 MOL1         0.0764
      25    H15     18.383977   16.900697   23.145688 H          1 MOL1         0.0764
@<TRIPOS>BOND
    1     1     2    1
    2     1     3    2
    3     1     4    1
    4     4     5    1
    5     4     6    1
    6     4     7    1
    7     7     8    1
    8     7     9    1
    9     7    10    1
   10    10    11    1
   11    10    12    1
   12    10    13    1
   13    13    14    1
   14    13    15    1
   15    13    16    1
   16    16    17    1
   17    16    18    1
   18    16    19    1
   19    19    20    1
   20    19    21    1
   21    19    22    1
   22    22    23    1
   23    22    24    1
   24    22    25    1
@<TRIPOS>SUBSTRUCTURE
       1 MOL1            1 RESIDUE      1      MOL     
@<SCITEGIC>MOL_PROPERTY
VConf Rank
SciTegic.value.IntegerValue
386

@<SCITEGIC>MOL_PROPERTY
Conf_Id
SciTegic.value.IntegerValue
75

@<SCITEGIC>MOL_PROPERTY
Delta U+W
SciTegic.value.DoubleValue
1.014

@<SCITEGIC>MOL_PROPERTY
U+W
SciTegic.value.DoubleValue
-50.615

@<SCITEGIC>MOL_PROPERTY
Grad RMS
SciTegic.value.DoubleValue
0.000000

@<SCITEGIC>MOL_PROPERTY
U
SciTegic.value.DoubleValue
8.474

@<SCITEGIC>MOL_PROPERTY
W
SciTegic.value.DoubleValue
-59.089

@<SCITEGIC>MOL_PROPERTY
W(PB)
SciTegic.value.DoubleValue
-61.530

@<SCITEGIC>MOL_PROPERTY
W(SA)
SciTegic.value.DoubleValue
2.441

@<SCITEGIC>MOL_PROPERTY
Valence
SciTegic.value.DoubleValue
9.080

@<SCITEGIC>MOL_PROPERTY
Coulomb
SciTegic.value.DoubleValue
-1.772

@<SCITEGIC>MOL_PROPERTY
VdW
SciTegic.value.DoubleValue
1.165

@<SCITEGIC>MOL_PROPERTY
VdW6
SciTegic.value.DoubleValue
-9.830

@<SCITEGIC>MOL_PROPERTY
VdW12
SciTegic.value.DoubleValue
10.996

@<SCITEGIC>MOL_PROPERTY
Bond
SciTegic.value.DoubleValue
0.240

@<SCITEGIC>MOL_PROPERTY
Angle
SciTegic.value.DoubleValue
3.225

@<SCITEGIC>MOL_PROPERTY
Pdih
SciTegic.value.DoubleValue
5.615

@<SCITEGIC>MOL_PROPERTY
Idih
SciTegic.value.DoubleValue
0.001

@<SCITEGIC>MOL_PROPERTY
Tether
SciTegic.value.DoubleValue
0.000

@<TRIPOS>MOLECULE
guest-8_confgen4.mol2 : confsearch ligand conformer 387
          25          24           1
SMALL
USER_CHARGES
 
@<TRIPOS>ATOM
       1    C1      20.098394   14.940611   23.190537 C.2        1 MOL1         0.6168
       2    O1      21.140882   14.573090   22.685762 O.co2      1 MOL1        -0.6703
       3    O2      19.453215   14.267073   23.969485 O.co2      1 MOL1        -0.6703
       4    C2      19.582215   16.332522   22.843806 C.3        1 MOL1        -0.1963
       5    H1      18.486208   16.305291   22.868060 H          1 MOL1         0.0750
       6    H2      19.878319   16.558456   21.812359 H          1 MOL1         0.0750
       7    C3      20.111236   17.426617   23.803585 C.3        1 MOL1        -0.1860
       8    H3      19.817734   17.179245   24.833225 H          1 MOL1         0.0752
       9    H4      21.209789   17.431809   23.777330 H          1 MOL1         0.0752
      10    C4      19.576022   18.826170   23.430829 C.3        1 MOL1        -0.1858
      11    H5      18.477852   18.816097   23.457929 H          1 MOL1         0.0752
      12    H6      19.862907   19.060938   22.398940 H          1 MOL1         0.0752
      13    C5      20.102411   19.914416   24.395906 C.3        1 MOL1        -0.1858
      14    H7      19.768619   19.661168   25.411467 H          1 MOL1         0.0752
      15    H8      21.200573   19.903097   24.422927 H          1 MOL1         0.0752
      16    C6      19.594183   21.337898   24.052644 C.3        1 MOL1        -0.1858
      17    H9      19.426284   21.876803   24.995119 H          1 MOL1         0.0752
      18    H10     18.613217   21.284202   23.561057 H          1 MOL1         0.0752
      19    C7      20.570860   22.185079   23.199830 C.3        1 MOL1        -0.1834
      20    H11     20.149827   23.193590   23.086658 H          1 MOL1         0.0752
      21    H12     21.519929   22.307412   23.739776 H          1 MOL1         0.0752
      22    C8      20.851062   21.606509   21.797292 C.3        1 MOL1        -0.2849
      23    H13     19.915523   21.410816   21.257447 H          1 MOL1         0.0764
      24    H14     21.444357   22.312708   21.202280 H          1 MOL1         0.0764
      25    H15     21.419560   20.670431   21.862052 H          1 MOL1         0.0764
@<TRIPOS>BOND
    1     1     2    1
    2     1     3    2
    3     1     4    1
    4     4     5    1
    5     4     6    1
    6     4     7    1
    7     7     8    1
    8     7     9    1
    9     7    10    1
   10    10    11    1
   11    10    12    1
   12    10    13    1
   13    13    14    1
   14    13    15    1
   15    13    16    1
   16    16    17    1
   17    16    18    1
   18    16    19    1
   19    19    20    1
   20    19    21    1
   21    19    22    1
   22    22    23    1
   23    22    24    1
   24    22    25    1
@<TRIPOS>SUBSTRUCTURE
       1 MOL1            1 RESIDUE      1      MOL     
@<SCITEGIC>MOL_PROPERTY
VConf Rank
SciTegic.value.IntegerValue
387

@<SCITEGIC>MOL_PROPERTY
Conf_Id
SciTegic.value.IntegerValue
125

@<SCITEGIC>MOL_PROPERTY
Delta U+W
SciTegic.value.DoubleValue
2.314

@<SCITEGIC>MOL_PROPERTY
U+W
SciTegic.value.DoubleValue
-49.315

@<SCITEGIC>MOL_PROPERTY
Grad RMS
SciTegic.value.DoubleValue
0.000000

@<SCITEGIC>MOL_PROPERTY
U
SciTegic.value.DoubleValue
9.740

@<SCITEGIC>MOL_PROPERTY
W
SciTegic.value.DoubleValue
-59.054

@<SCITEGIC>MOL_PROPERTY
W(PB)
SciTegic.value.DoubleValue
-61.488

@<SCITEGIC>MOL_PROPERTY
W(SA)
SciTegic.value.DoubleValue
2.433

@<SCITEGIC>MOL_PROPERTY
Valence
SciTegic.value.DoubleValue
10.506

@<SCITEGIC>MOL_PROPERTY
Coulomb
SciTegic.value.DoubleValue
-1.761

@<SCITEGIC>MOL_PROPERTY
VdW
SciTegic.value.DoubleValue
0.994

@<SCITEGIC>MOL_PROPERTY
VdW6
SciTegic.value.DoubleValue
-9.209

@<SCITEGIC>MOL_PROPERTY
VdW12
SciTegic.value.DoubleValue
10.203

@<SCITEGIC>MOL_PROPERTY
Bond
SciTegic.value.DoubleValue
0.193

@<SCITEGIC>MOL_PROPERTY
Angle
SciTegic.value.DoubleValue
2.979

@<SCITEGIC>MOL_PROPERTY
Pdih
SciTegic.value.DoubleValue
7.334

@<SCITEGIC>MOL_PROPERTY
Idih
SciTegic.value.DoubleValue
0.001

@<SCITEGIC>MOL_PROPERTY
Tether
SciTegic.value.DoubleValue
0.000

@<TRIPOS>MOLECULE
guest-8_confgen4.mol2 : confsearch ligand conformer 388
          25          24           1
SMALL
USER_CHARGES
 
@<TRIPOS>ATOM
       1    C1      19.835598   22.451422   20.915052 C.2        1 MOL1         0.6168
       2    O1      19.928465   22.036714   19.776594 O.co2      1 MOL1        -0.6703
       3    O2      19.824110   23.632088   21.202518 O.co2      1 MOL1        -0.6703
       4    C2      19.753240   21.434210   22.047535 C.3        1 MOL1        -0.1963
       5    H1      19.214452   20.558156   21.669440 H          1 MOL1         0.0750
       6    H2      19.146451   21.868296   22.851109 H          1 MOL1         0.0750
       7    C3      21.147845   21.026920   22.590152 C.3        1 MOL1        -0.1860
       8    H3      21.728855   20.550960   21.788144 H          1 MOL1         0.0752
       9    H4      21.695869   21.936713   22.871917 H          1 MOL1         0.0752
      10    C4      21.083484   20.087123   23.817667 C.3        1 MOL1        -0.1858
      11    H5      20.510247   20.569748   24.621062 H          1 MOL1         0.0752
      12    H6      22.102754   19.948284   24.203314 H          1 MOL1         0.0752
      13    C5      20.471826   18.702636   23.501022 C.3        1 MOL1        -0.1858
      14    H7      19.430578   18.825857   23.179702 H          1 MOL1         0.0752
      15    H8      21.015897   18.243743   22.664381 H          1 MOL1         0.0752
      16    C6      20.524184   17.762933   24.727978 C.3        1 MOL1        -0.1858
      17    H9      19.941404   18.197365   25.551704 H          1 MOL1         0.0752
      18    H10     21.561636   17.695102   25.082855 H          1 MOL1         0.0752
      19    C7      20.013532   16.333731   24.430599 C.3        1 MOL1        -0.1834
      20    H11     20.597957   15.894043   23.610581 H          1 MOL1         0.0752
      21    H12     20.194756   15.704287   25.312747 H          1 MOL1         0.0752
      22    C8      18.509819   16.280992   24.083253 C.3        1 MOL1        -0.2849
      23    H13     18.297735   16.800290   23.140365 H          1 MOL1         0.0764
      24    H14     18.178206   15.240653   23.970904 H          1 MOL1         0.0764
      25    H15     17.907056   16.744147   24.875258 H          1 MOL1         0.0764
@<TRIPOS>BOND
    1     1     2    1
    2     1     3    2
    3     1     4    1
    4     4     5    1
    5     4     6    1
    6     4     7    1
    7     7     8    1
    8     7     9    1
    9     7    10    1
   10    10    11    1
   11    10    12    1
   12    10    13    1
   13    13    14    1
   14    13    15    1
   15    13    16    1
   16    16    17    1
   17    16    18    1
   18    16    19    1
   19    19    20    1
   20    19    21    1
   21    19    22    1
   22    22    23    1
   23    22    24    1
   24    22    25    1
@<TRIPOS>SUBSTRUCTURE
       1 MOL1            1 RESIDUE      1      MOL     
@<SCITEGIC>MOL_PROPERTY
VConf Rank
SciTegic.value.IntegerValue
388

@<SCITEGIC>MOL_PROPERTY
Conf_Id
SciTegic.value.IntegerValue
4

@<SCITEGIC>MOL_PROPERTY
Delta U+W
SciTegic.value.DoubleValue
0.189

@<SCITEGIC>MOL_PROPERTY
U+W
SciTegic.value.DoubleValue
-51.441

@<SCITEGIC>MOL_PROPERTY
Grad RMS
SciTegic.value.DoubleValue
0.000000

@<SCITEGIC>MOL_PROPERTY
U
SciTegic.value.DoubleValue
7.701

@<SCITEGIC>MOL_PROPERTY
W
SciTegic.value.DoubleValue
-59.141

@<SCITEGIC>MOL_PROPERTY
W(PB)
SciTegic.value.DoubleValue
-61.609

@<SCITEGIC>MOL_PROPERTY
W(SA)
SciTegic.value.DoubleValue
2.467

@<SCITEGIC>MOL_PROPERTY
Valence
SciTegic.value.DoubleValue
8.550

@<SCITEGIC>MOL_PROPERTY
Coulomb
SciTegic.value.DoubleValue
-1.988

@<SCITEGIC>MOL_PROPERTY
VdW
SciTegic.value.DoubleValue
1.139

@<SCITEGIC>MOL_PROPERTY
VdW6
SciTegic.value.DoubleValue
-8.988

@<SCITEGIC>MOL_PROPERTY
VdW12
SciTegic.value.DoubleValue
10.127

@<SCITEGIC>MOL_PROPERTY
Bond
SciTegic.value.DoubleValue
0.191

@<SCITEGIC>MOL_PROPERTY
Angle
SciTegic.value.DoubleValue
2.738

@<SCITEGIC>MOL_PROPERTY
Pdih
SciTegic.value.DoubleValue
5.621

@<SCITEGIC>MOL_PROPERTY
Idih
SciTegic.value.DoubleValue
0.001

@<SCITEGIC>MOL_PROPERTY
Tether
SciTegic.value.DoubleValue
0.000

@<TRIPOS>MOLECULE
guest-8_confgen4.mol2 : confsearch ligand conformer 389
          25          24           1
SMALL
USER_CHARGES
 
@<TRIPOS>ATOM
       1    C1      22.359714   20.232022   20.092164 C.2        1 MOL1         0.6168
       2    O1      23.431788   20.558226   20.562209 O.co2      1 MOL1        -0.6703
       3    O2      22.155279   20.114092   18.900091 O.co2      1 MOL1        -0.6703
       4    C2      21.214157   19.931213   21.051973 C.3        1 MOL1        -0.1963
       5    H1      20.274745   20.203518   20.556280 H          1 MOL1         0.0750
       6    H2      21.326589   20.589214   21.920947 H          1 MOL1         0.0750
       7    C3      21.175709   18.444682   21.492409 C.3        1 MOL1        -0.1860
       8    H3      21.158554   17.811392   20.594581 H          1 MOL1         0.0752
       9    H4      22.102101   18.196923   22.028825 H          1 MOL1         0.0752
      10    C4      19.952164   18.091526   22.371258 C.3        1 MOL1        -0.1858
      11    H5      19.943624   17.005287   22.535340 H          1 MOL1         0.0752
      12    H6      19.027599   18.331143   21.828363 H          1 MOL1         0.0752
      13    C5      19.951757   18.807951   23.741634 C.3        1 MOL1        -0.1858
      14    H7      20.898515   18.606990   24.261083 H          1 MOL1         0.0752
      15    H8      19.891384   19.892273   23.589235 H          1 MOL1         0.0752
      16    C6      18.770046   18.345712   24.625432 C.3        1 MOL1        -0.1858
      17    H9      18.801078   17.251753   24.721001 H          1 MOL1         0.0752
      18    H10     17.820269   18.587822   24.129254 H          1 MOL1         0.0752
      19    C7      18.784541   18.962165   26.043738 C.3        1 MOL1        -0.1834
      20    H11     17.988405   18.494430   26.639237 H          1 MOL1         0.0752
      21    H12     19.731198   18.717467   26.545008 H          1 MOL1         0.0752
      22    C8      18.574606   20.492033   26.048304 C.3        1 MOL1        -0.2849
      23    H13     17.648959   20.763247   25.524157 H          1 MOL1         0.0764
      24    H14     18.502139   20.866330   27.077646 H          1 MOL1         0.0764
      25    H15     19.410144   21.012773   25.564162 H          1 MOL1         0.0764
@<TRIPOS>BOND
    1     1     2    1
    2     1     3    2
    3     1     4    1
    4     4     5    1
    5     4     6    1
    6     4     7    1
    7     7     8    1
    8     7     9    1
    9     7    10    1
   10    10    11    1
   11    10    12    1
   12    10    13    1
   13    13    14    1
   14    13    15    1
   15    13    16    1
   16    16    17    1
   17    16    18    1
   18    16    19    1
   19    19    20    1
   20    19    21    1
   21    19    22    1
   22    22    23    1
   23    22    24    1
   24    22    25    1
@<TRIPOS>SUBSTRUCTURE
       1 MOL1            1 RESIDUE      1      MOL     
@<SCITEGIC>MOL_PROPERTY
VConf Rank
SciTegic.value.IntegerValue
389

@<SCITEGIC>MOL_PROPERTY
Conf_Id
SciTegic.value.IntegerValue
17

@<SCITEGIC>MOL_PROPERTY
Delta U+W
SciTegic.value.DoubleValue
0.219

@<SCITEGIC>MOL_PROPERTY
U+W
SciTegic.value.DoubleValue
-51.411

@<SCITEGIC>MOL_PROPERTY
Grad RMS
SciTegic.value.DoubleValue
0.000000

@<SCITEGIC>MOL_PROPERTY
U
SciTegic.value.DoubleValue
7.701

@<SCITEGIC>MOL_PROPERTY
W
SciTegic.value.DoubleValue
-59.111

@<SCITEGIC>MOL_PROPERTY
W(PB)
SciTegic.value.DoubleValue
-61.599

@<SCITEGIC>MOL_PROPERTY
W(SA)
SciTegic.value.DoubleValue
2.488

@<SCITEGIC>MOL_PROPERTY
Valence
SciTegic.value.DoubleValue
8.550

@<SCITEGIC>MOL_PROPERTY
Coulomb
SciTegic.value.DoubleValue
-1.988

@<SCITEGIC>MOL_PROPERTY
VdW
SciTegic.value.DoubleValue
1.139

@<SCITEGIC>MOL_PROPERTY
VdW6
SciTegic.value.DoubleValue
-8.988

@<SCITEGIC>MOL_PROPERTY
VdW12
SciTegic.value.DoubleValue
10.127

@<SCITEGIC>MOL_PROPERTY
Bond
SciTegic.value.DoubleValue
0.191

@<SCITEGIC>MOL_PROPERTY
Angle
SciTegic.value.DoubleValue
2.738

@<SCITEGIC>MOL_PROPERTY
Pdih
SciTegic.value.DoubleValue
5.621

@<SCITEGIC>MOL_PROPERTY
Idih
SciTegic.value.DoubleValue
0.001

@<SCITEGIC>MOL_PROPERTY
Tether
SciTegic.value.DoubleValue
0.000

@<TRIPOS>MOLECULE
guest-8_confgen4.mol2 : confsearch ligand conformer 390
          25          24           1
SMALL
USER_CHARGES
 
@<TRIPOS>ATOM
       1    C1      21.057686   21.136086   20.249494 C.2        1 MOL1         0.6168
       2    O1      20.800211   20.465776   19.268956 O.co2      1 MOL1        -0.6703
       3    O2      22.188203   21.427078   20.587624 O.co2      1 MOL1        -0.6703
       4    C2      19.898245   21.658419   21.093173 C.3        1 MOL1        -0.1963
       5    H1      18.984039   21.629014   20.488080 H          1 MOL1         0.0750
       6    H2      20.100326   22.713614   21.311599 H          1 MOL1         0.0750
       7    C3      19.688189   20.885343   22.421001 C.3        1 MOL1        -0.1860
       8    H3      20.621114   20.912533   22.999429 H          1 MOL1         0.0752
       9    H4      18.927578   21.404384   23.019611 H          1 MOL1         0.0752
      10    C4      19.244573   19.420980   22.189494 C.3        1 MOL1        -0.1858
      11    H5      20.031041   18.873287   21.652072 H          1 MOL1         0.0752
      12    H6      18.361741   19.414568   21.535725 H          1 MOL1         0.0752
      13    C5      18.894109   18.669554   23.495732 C.3        1 MOL1        -0.1858
      14    H7      18.101630   19.210690   24.030520 H          1 MOL1         0.0752
      15    H8      18.476293   17.688630   23.231012 H          1 MOL1         0.0752
      16    C6      20.107463   18.462558   24.431658 C.3        1 MOL1        -0.1858
      17    H9      20.492019   19.434363   24.767279 H          1 MOL1         0.0752
      18    H10     20.918491   17.970351   23.877709 H          1 MOL1         0.0752
      19    C7      19.737317   17.613229   25.665911 C.3        1 MOL1        -0.1834
      20    H11     18.924881   18.102047   26.221304 H          1 MOL1         0.0752
      21    H12     19.358688   16.633796   25.342224 H          1 MOL1         0.0752
      22    C8      20.947323   17.410833   26.600065 C.3        1 MOL1        -0.2849
      23    H13     21.327103   18.374057   26.965233 H          1 MOL1         0.0764
      24    H14     20.666455   16.804987   27.471340 H          1 MOL1         0.0764
      25    H15     21.764484   16.895755   26.078218 H          1 MOL1         0.0764
@<TRIPOS>BOND
    1     1     2    1
    2     1     3    2
    3     1     4    1
    4     4     5    1
    5     4     6    1
    6     4     7    1
    7     7     8    1
    8     7     9    1
    9     7    10    1
   10    10    11    1
   11    10    12    1
   12    10    13    1
   13    13    14    1
   14    13    15    1
   15    13    16    1
   16    16    17    1
   17    16    18    1
   18    16    19    1
   19    19    20    1
   20    19    21    1
   21    19    22    1
   22    22    23    1
   23    22    24    1
   24    22    25    1
@<TRIPOS>SUBSTRUCTURE
       1 MOL1            1 RESIDUE      1      MOL     
@<SCITEGIC>MOL_PROPERTY
VConf Rank
SciTegic.value.IntegerValue
390

@<SCITEGIC>MOL_PROPERTY
Conf_Id
SciTegic.value.IntegerValue
142

@<SCITEGIC>MOL_PROPERTY
Delta U+W
SciTegic.value.DoubleValue
0.593

@<SCITEGIC>MOL_PROPERTY
U+W
SciTegic.value.DoubleValue
-51.037

@<SCITEGIC>MOL_PROPERTY
Grad RMS
SciTegic.value.DoubleValue
0.000000

@<SCITEGIC>MOL_PROPERTY
U
SciTegic.value.DoubleValue
8.903

@<SCITEGIC>MOL_PROPERTY
W
SciTegic.value.DoubleValue
-59.940

@<SCITEGIC>MOL_PROPERTY
W(PB)
SciTegic.value.DoubleValue
-62.418

@<SCITEGIC>MOL_PROPERTY
W(SA)
SciTegic.value.DoubleValue
2.478

@<SCITEGIC>MOL_PROPERTY
Valence
SciTegic.value.DoubleValue
8.305

@<SCITEGIC>MOL_PROPERTY
Coulomb
SciTegic.value.DoubleValue
-0.223

@<SCITEGIC>MOL_PROPERTY
VdW
SciTegic.value.DoubleValue
0.821

@<SCITEGIC>MOL_PROPERTY
VdW6
SciTegic.value.DoubleValue
-9.236

@<SCITEGIC>MOL_PROPERTY
VdW12
SciTegic.value.DoubleValue
10.057

@<SCITEGIC>MOL_PROPERTY
Bond
SciTegic.value.DoubleValue
0.173

@<SCITEGIC>MOL_PROPERTY
Angle
SciTegic.value.DoubleValue
2.663

@<SCITEGIC>MOL_PROPERTY
Pdih
SciTegic.value.DoubleValue
5.469

@<SCITEGIC>MOL_PROPERTY
Idih
SciTegic.value.DoubleValue
0.001

@<SCITEGIC>MOL_PROPERTY
Tether
SciTegic.value.DoubleValue
0.000

@<TRIPOS>MOLECULE
guest-8_confgen4.mol2 : confsearch ligand conformer 391
          25          24           1
SMALL
USER_CHARGES
 
@<TRIPOS>ATOM
       1    C1      22.266956   18.064497   26.076741 C.2        1 MOL1         0.6168
       2    O1      22.144194   17.568861   27.179842 O.co2      1 MOL1        -0.6703
       3    O2      23.098370   17.704109   25.266847 O.co2      1 MOL1        -0.6703
       4    C2      21.343722   19.220300   25.701647 C.3        1 MOL1        -0.1963
       5    H1      21.753865   19.725749   24.819829 H          1 MOL1         0.0750
       6    H2      21.380980   19.946964   26.521458 H          1 MOL1         0.0750
       7    C3      19.869409   18.799332   25.454018 C.3        1 MOL1        -0.1860
       8    H3      19.469144   18.359560   26.377904 H          1 MOL1         0.0752
       9    H4      19.265006   19.695131   25.261435 H          1 MOL1         0.0752
      10    C4      19.678823   17.782817   24.298588 C.3        1 MOL1        -0.1858
      11    H5      18.609786   17.546516   24.209603 H          1 MOL1         0.0752
      12    H6      20.174530   16.839716   24.566768 H          1 MOL1         0.0752
      13    C5      20.207328   18.244071   22.917192 C.3        1 MOL1        -0.1858
      14    H7      21.296660   18.377160   22.959594 H          1 MOL1         0.0752
      15    H8      20.028995   17.437768   22.192896 H          1 MOL1         0.0752
      16    C6      19.540003   19.539856   22.401165 C.3        1 MOL1        -0.1858
      17    H9      19.770248   20.373150   23.077710 H          1 MOL1         0.0752
      18    H10     18.448480   19.416366   22.402562 H          1 MOL1         0.0752
      19    C7      20.016955   19.899349   20.978239 C.3        1 MOL1        -0.1834
      20    H11     21.109074   20.020733   20.974100 H          1 MOL1         0.0752
      21    H12     19.784610   19.075021   20.289855 H          1 MOL1         0.0752
      22    C8      19.355201   21.195060   20.467449 C.3        1 MOL1        -0.2849
      23    H13     19.597797   22.043705   21.120377 H          1 MOL1         0.0764
      24    H14     19.705357   21.435304   19.455170 H          1 MOL1         0.0764
      25    H15     18.262848   21.090667   20.432503 H          1 MOL1         0.0764
@<TRIPOS>BOND
    1     1     2    1
    2     1     3    2
    3     1     4    1
    4     4     5    1
    5     4     6    1
    6     4     7    1
    7     7     8    1
    8     7     9    1
    9     7    10    1
   10    10    11    1
   11    10    12    1
   12    10    13    1
   13    13    14    1
   14    13    15    1
   15    13    16    1
   16    16    17    1
   17    16    18    1
   18    16    19    1
   19    19    20    1
   20    19    21    1
   21    19    22    1
   22    22    23    1
   23    22    24    1
   24    22    25    1
@<TRIPOS>SUBSTRUCTURE
       1 MOL1            1 RESIDUE      1      MOL     
@<SCITEGIC>MOL_PROPERTY
VConf Rank
SciTegic.value.IntegerValue
391

@<SCITEGIC>MOL_PROPERTY
Conf_Id
SciTegic.value.IntegerValue
135

@<SCITEGIC>MOL_PROPERTY
Delta U+W
SciTegic.value.DoubleValue
1.314

@<SCITEGIC>MOL_PROPERTY
U+W
SciTegic.value.DoubleValue
-50.316

@<SCITEGIC>MOL_PROPERTY
Grad RMS
SciTegic.value.DoubleValue
0.000000

@<SCITEGIC>MOL_PROPERTY
U
SciTegic.value.DoubleValue
9.773

@<SCITEGIC>MOL_PROPERTY
W
SciTegic.value.DoubleValue
-60.088

@<SCITEGIC>MOL_PROPERTY
W(PB)
SciTegic.value.DoubleValue
-62.535

@<SCITEGIC>MOL_PROPERTY
W(SA)
SciTegic.value.DoubleValue
2.447

@<SCITEGIC>MOL_PROPERTY
Valence
SciTegic.value.DoubleValue
8.741

@<SCITEGIC>MOL_PROPERTY
Coulomb
SciTegic.value.DoubleValue
0.479

@<SCITEGIC>MOL_PROPERTY
VdW
SciTegic.value.DoubleValue
0.552

@<SCITEGIC>MOL_PROPERTY
VdW6
SciTegic.value.DoubleValue
-10.627

@<SCITEGIC>MOL_PROPERTY
VdW12
SciTegic.value.DoubleValue
11.179

@<SCITEGIC>MOL_PROPERTY
Bond
SciTegic.value.DoubleValue
0.227

@<SCITEGIC>MOL_PROPERTY
Angle
SciTegic.value.DoubleValue
3.155

@<SCITEGIC>MOL_PROPERTY
Pdih
SciTegic.value.DoubleValue
5.358

@<SCITEGIC>MOL_PROPERTY
Idih
SciTegic.value.DoubleValue
0.001

@<SCITEGIC>MOL_PROPERTY
Tether
SciTegic.value.DoubleValue
0.000

@<TRIPOS>MOLECULE
guest-8_confgen4.mol2 : confsearch ligand conformer 392
          25          24           1
SMALL
USER_CHARGES
 
@<TRIPOS>ATOM
       1    C1      18.211223   20.970065   19.929747 C.2        1 MOL1         0.6168
       2    O1      18.498929   22.140526   19.774866 O.co2      1 MOL1        -0.6703
       3    O2      17.750578   20.268265   19.051081 O.co2      1 MOL1        -0.6703
       4    C2      18.463244   20.341148   21.295445 C.3        1 MOL1        -0.1963
       5    H1      17.705731   19.564987   21.456987 H          1 MOL1         0.0750
       6    H2      18.301871   21.116129   22.052766 H          1 MOL1         0.0750
       7    C3      19.885479   19.735449   21.422738 C.3        1 MOL1        -0.1860
       8    H3      20.043852   19.036273   20.589961 H          1 MOL1         0.0752
       9    H4      20.635952   20.529621   21.307139 H          1 MOL1         0.0752
      10    C4      20.122494   18.980054   22.752451 C.3        1 MOL1        -0.1858
      11    H5      21.087599   18.463273   22.678297 H          1 MOL1         0.0752
      12    H6      19.356114   18.203219   22.878019 H          1 MOL1         0.0752
      13    C5      20.141040   19.905397   23.992555 C.3        1 MOL1        -0.1858
      14    H7      20.948750   20.642078   23.885322 H          1 MOL1         0.0752
      15    H8      19.206049   20.477422   24.037883 H          1 MOL1         0.0752
      16    C6      20.302571   19.157731   25.340284 C.3        1 MOL1        -0.1858
      17    H9      19.449101   18.485110   25.501767 H          1 MOL1         0.0752
      18    H10     20.246880   19.906891   26.141864 H          1 MOL1         0.0752
      19    C7      21.634475   18.382224   25.497828 C.3        1 MOL1        -0.1834
      20    H11     22.417999   18.839918   24.878277 H          1 MOL1         0.0752
      21    H12     21.974977   18.475835   26.538307 H          1 MOL1         0.0752
      22    C8      21.503593   16.877617   25.171800 C.3        1 MOL1        -0.2849
      23    H13     21.173896   16.710652   24.140034 H          1 MOL1         0.0764
      24    H14     22.468620   16.371059   25.301906 H          1 MOL1         0.0764
      25    H15     20.778700   16.395432   25.840463 H          1 MOL1         0.0764
@<TRIPOS>BOND
    1     1     2    1
    2     1     3    2
    3     1     4    1
    4     4     5    1
    5     4     6    1
    6     4     7    1
    7     7     8    1
    8     7     9    1
    9     7    10    1
   10    10    11    1
   11    10    12    1
   12    10    13    1
   13    13    14    1
   14    13    15    1
   15    13    16    1
   16    16    17    1
   17    16    18    1
   18    16    19    1
   19    19    20    1
   20    19    21    1
   21    19    22    1
   22    22    23    1
   23    22    24    1
   24    22    25    1
@<TRIPOS>SUBSTRUCTURE
       1 MOL1            1 RESIDUE      1      MOL     
@<SCITEGIC>MOL_PROPERTY
VConf Rank
SciTegic.value.IntegerValue
392

@<SCITEGIC>MOL_PROPERTY
Conf_Id
SciTegic.value.IntegerValue
19

@<SCITEGIC>MOL_PROPERTY
Delta U+W
SciTegic.value.DoubleValue
3.222

@<SCITEGIC>MOL_PROPERTY
U+W
SciTegic.value.DoubleValue
-48.407

@<SCITEGIC>MOL_PROPERTY
Grad RMS
SciTegic.value.DoubleValue
0.000000

@<SCITEGIC>MOL_PROPERTY
U
SciTegic.value.DoubleValue
10.617

@<SCITEGIC>MOL_PROPERTY
W
SciTegic.value.DoubleValue
-59.025

@<SCITEGIC>MOL_PROPERTY
W(PB)
SciTegic.value.DoubleValue
-61.462

@<SCITEGIC>MOL_PROPERTY
W(SA)
SciTegic.value.DoubleValue
2.437

@<SCITEGIC>MOL_PROPERTY
Valence
SciTegic.value.DoubleValue
11.188

@<SCITEGIC>MOL_PROPERTY
Coulomb
SciTegic.value.DoubleValue
-1.778

@<SCITEGIC>MOL_PROPERTY
VdW
SciTegic.value.DoubleValue
1.208

@<SCITEGIC>MOL_PROPERTY
VdW6
SciTegic.value.DoubleValue
-9.786

@<SCITEGIC>MOL_PROPERTY
VdW12
SciTegic.value.DoubleValue
10.993

@<SCITEGIC>MOL_PROPERTY
Bond
SciTegic.value.DoubleValue
0.241

@<SCITEGIC>MOL_PROPERTY
Angle
SciTegic.value.DoubleValue
3.294

@<SCITEGIC>MOL_PROPERTY
Pdih
SciTegic.value.DoubleValue
7.653

@<SCITEGIC>MOL_PROPERTY
Idih
SciTegic.value.DoubleValue
0.001

@<SCITEGIC>MOL_PROPERTY
Tether
SciTegic.value.DoubleValue
0.000

@<TRIPOS>MOLECULE
guest-8_confgen4.mol2 : confsearch ligand conformer 393
          25          24           1
SMALL
USER_CHARGES
 
@<TRIPOS>ATOM
       1    C1      23.982747   20.792870   23.554983 C.2        1 MOL1         0.6168
       2    O1      24.134806   21.822024   22.926921 O.co2      1 MOL1        -0.6703
       3    O2      24.900763   20.084768   23.919137 O.co2      1 MOL1        -0.6703
       4    C2      22.560488   20.353573   23.884192 C.3        1 MOL1        -0.1963
       5    H1      21.960684   21.257524   24.036767 H          1 MOL1         0.0750
       6    H2      22.584062   19.813350   24.838106 H          1 MOL1         0.0750
       7    C3      21.938307   19.460760   22.778929 C.3        1 MOL1        -0.1860
       8    H3      21.875013   20.027390   21.839671 H          1 MOL1         0.0752
       9    H4      22.616651   18.617900   22.586879 H          1 MOL1         0.0752
      10    C4      20.544354   18.897830   23.146274 C.3        1 MOL1        -0.1858
      11    H5      20.604740   18.353174   24.098263 H          1 MOL1         0.0752
      12    H6      20.265014   18.164448   22.379392 H          1 MOL1         0.0752
      13    C5      19.443804   19.982368   23.230132 C.3        1 MOL1        -0.1858
      14    H7      19.745370   20.756926   23.946089 H          1 MOL1         0.0752
      15    H8      19.349660   20.481878   22.256365 H          1 MOL1         0.0752
      16    C6      18.057450   19.447419   23.669820 C.3        1 MOL1        -0.1858
      17    H9      17.380057   20.309028   23.744929 H          1 MOL1         0.0752
      18    H10     18.120196   19.028929   24.683642 H          1 MOL1         0.0752
      19    C7      17.421380   18.417833   22.702571 C.3        1 MOL1        -0.1834
      20    H11     16.338174   18.597284   22.660570 H          1 MOL1         0.0752
      21    H12     17.795788   18.572038   21.681164 H          1 MOL1         0.0752
      22    C8      17.646114   16.953323   23.140713 C.3        1 MOL1        -0.2849
      23    H13     17.204596   16.769899   24.128894 H          1 MOL1         0.0764
      24    H14     17.174852   16.262942   22.429311 H          1 MOL1         0.0764
      25    H15     18.711578   16.702493   23.195376 H          1 MOL1         0.0764
@<TRIPOS>BOND
    1     1     2    1
    2     1     3    2
    3     1     4    1
    4     4     5    1
    5     4     6    1
    6     4     7    1
    7     7     8    1
    8     7     9    1
    9     7    10    1
   10    10    11    1
   11    10    12    1
   12    10    13    1
   13    13    14    1
   14    13    15    1
   15    13    16    1
   16    16    17    1
   17    16    18    1
   18    16    19    1
   19    19    20    1
   20    19    21    1
   21    19    22    1
   22    22    23    1
   23    22    24    1
   24    22    25    1
@<TRIPOS>SUBSTRUCTURE
       1 MOL1            1 RESIDUE      1      MOL     
@<SCITEGIC>MOL_PROPERTY
VConf Rank
SciTegic.value.IntegerValue
393

@<SCITEGIC>MOL_PROPERTY
Conf_Id
SciTegic.value.IntegerValue
20

@<SCITEGIC>MOL_PROPERTY
Delta U+W
SciTegic.value.DoubleValue
3.224

@<SCITEGIC>MOL_PROPERTY
U+W
SciTegic.value.DoubleValue
-48.406

@<SCITEGIC>MOL_PROPERTY
Grad RMS
SciTegic.value.DoubleValue
0.000000

@<SCITEGIC>MOL_PROPERTY
U
SciTegic.value.DoubleValue
10.617

@<SCITEGIC>MOL_PROPERTY
W
SciTegic.value.DoubleValue
-59.023

@<SCITEGIC>MOL_PROPERTY
W(PB)
SciTegic.value.DoubleValue
-61.467

@<SCITEGIC>MOL_PROPERTY
W(SA)
SciTegic.value.DoubleValue
2.444

@<SCITEGIC>MOL_PROPERTY
Valence
SciTegic.value.DoubleValue
11.188

@<SCITEGIC>MOL_PROPERTY
Coulomb
SciTegic.value.DoubleValue
-1.778

@<SCITEGIC>MOL_PROPERTY
VdW
SciTegic.value.DoubleValue
1.208

@<SCITEGIC>MOL_PROPERTY
VdW6
SciTegic.value.DoubleValue
-9.786

@<SCITEGIC>MOL_PROPERTY
VdW12
SciTegic.value.DoubleValue
10.993

@<SCITEGIC>MOL_PROPERTY
Bond
SciTegic.value.DoubleValue
0.241

@<SCITEGIC>MOL_PROPERTY
Angle
SciTegic.value.DoubleValue
3.294

@<SCITEGIC>MOL_PROPERTY
Pdih
SciTegic.value.DoubleValue
7.653

@<SCITEGIC>MOL_PROPERTY
Idih
SciTegic.value.DoubleValue
0.001

@<SCITEGIC>MOL_PROPERTY
Tether
SciTegic.value.DoubleValue
0.000

@<TRIPOS>MOLECULE
guest-8_confgen4.mol2 : confsearch ligand conformer 394
          25          24           1
SMALL
USER_CHARGES
 
@<TRIPOS>ATOM
       1    C1      20.438630   22.341052   22.846621 C.2        1 MOL1         0.6168
       2    O1      21.355691   22.696186   23.561132 O.co2      1 MOL1        -0.6703
       3    O2      19.275507   22.623034   23.058391 O.co2      1 MOL1        -0.6703
       4    C2      20.769405   21.554802   21.579424 C.3        1 MOL1        -0.1963
       5    H1      21.372271   22.221368   20.951961 H          1 MOL1         0.0750
       6    H2      19.841378   21.359570   21.028571 H          1 MOL1         0.0750
       7    C3      21.550369   20.229674   21.805789 C.3        1 MOL1        -0.1860
       8    H3      22.038253   19.957867   20.859999 H          1 MOL1         0.0752
       9    H4      22.362151   20.392114   22.528435 H          1 MOL1         0.0752
      10    C4      20.677880   19.028875   22.248430 C.3        1 MOL1        -0.1858
      11    H5      21.303453   18.125970   22.228344 H          1 MOL1         0.0752
      12    H6      19.875765   18.864763   21.515960 H          1 MOL1         0.0752
      13    C5      20.068526   19.179311   23.660764 C.3        1 MOL1        -0.1858
      14    H7      20.857897   19.446895   24.376543 H          1 MOL1         0.0752
      15    H8      19.338249   19.998254   23.666304 H          1 MOL1         0.0752
      16    C6      19.369261   17.882175   24.122321 C.3        1 MOL1        -0.1858
      17    H9      20.093412   17.056022   24.128846 H          1 MOL1         0.0752
      18    H10     18.583581   17.613582   23.402878 H          1 MOL1         0.0752
      19    C7      18.750595   18.035006   25.527763 C.3        1 MOL1        -0.1834
      20    H11     19.534187   18.302941   26.250018 H          1 MOL1         0.0752
      21    H12     18.024251   18.859641   25.524714 H          1 MOL1         0.0752
      22    C8      18.052647   16.738548   25.985730 C.3        1 MOL1        -0.2849
      23    H13     18.764038   15.903386   26.028116 H          1 MOL1         0.0764
      24    H14     17.618832   16.865333   26.986127 H          1 MOL1         0.0764
      25    H15     17.242581   16.464354   25.297265 H          1 MOL1         0.0764
@<TRIPOS>BOND
    1     1     2    1
    2     1     3    2
    3     1     4    1
    4     4     5    1
    5     4     6    1
    6     4     7    1
    7     7     8    1
    8     7     9    1
    9     7    10    1
   10    10    11    1
   11    10    12    1
   12    10    13    1
   13    13    14    1
   14    13    15    1
   15    13    16    1
   16    16    17    1
   17    16    18    1
   18    16    19    1
   19    19    20    1
   20    19    21    1
   21    19    22    1
   22    22    23    1
   23    22    24    1
   24    22    25    1
@<TRIPOS>SUBSTRUCTURE
       1 MOL1            1 RESIDUE      1      MOL     
@<SCITEGIC>MOL_PROPERTY
VConf Rank
SciTegic.value.IntegerValue
394

@<SCITEGIC>MOL_PROPERTY
Conf_Id
SciTegic.value.IntegerValue
24

@<SCITEGIC>MOL_PROPERTY
Delta U+W
SciTegic.value.DoubleValue
1.784

@<SCITEGIC>MOL_PROPERTY
U+W
SciTegic.value.DoubleValue
-49.846

@<SCITEGIC>MOL_PROPERTY
Grad RMS
SciTegic.value.DoubleValue
0.000000

@<SCITEGIC>MOL_PROPERTY
U
SciTegic.value.DoubleValue
10.904

@<SCITEGIC>MOL_PROPERTY
W
SciTegic.value.DoubleValue
-60.749

@<SCITEGIC>MOL_PROPERTY
W(PB)
SciTegic.value.DoubleValue
-63.220

@<SCITEGIC>MOL_PROPERTY
W(SA)
SciTegic.value.DoubleValue
2.471

@<SCITEGIC>MOL_PROPERTY
Valence
SciTegic.value.DoubleValue
9.445

@<SCITEGIC>MOL_PROPERTY
Coulomb
SciTegic.value.DoubleValue
0.780

@<SCITEGIC>MOL_PROPERTY
VdW
SciTegic.value.DoubleValue
0.679

@<SCITEGIC>MOL_PROPERTY
VdW6
SciTegic.value.DoubleValue
-10.008

@<SCITEGIC>MOL_PROPERTY
VdW12
SciTegic.value.DoubleValue
10.687

@<SCITEGIC>MOL_PROPERTY
Bond
SciTegic.value.DoubleValue
0.201

@<SCITEGIC>MOL_PROPERTY
Angle
SciTegic.value.DoubleValue
3.198

@<SCITEGIC>MOL_PROPERTY
Pdih
SciTegic.value.DoubleValue
6.039

@<SCITEGIC>MOL_PROPERTY
Idih
SciTegic.value.DoubleValue
0.006

@<SCITEGIC>MOL_PROPERTY
Tether
SciTegic.value.DoubleValue
0.000

@<TRIPOS>MOLECULE
guest-8_confgen4.mol2 : confsearch ligand conformer 395
          25          24           1
SMALL
USER_CHARGES
 
@<TRIPOS>ATOM
       1    C1      20.334511   21.632216   21.763539 C.2        1 MOL1         0.6168
       2    O1      19.517446   21.490514   20.874737 O.co2      1 MOL1        -0.6703
       3    O2      20.152500   22.339099   22.735345 O.co2      1 MOL1        -0.6703
       4    C2      21.688267   20.939074   21.621098 C.3        1 MOL1        -0.1963
       5    H1      22.319329   21.210205   22.476104 H          1 MOL1         0.0750
       6    H2      22.162815   21.369908   20.731911 H          1 MOL1         0.0750
       7    C3      21.628882   19.393455   21.464131 C.3        1 MOL1        -0.1860
       8    H3      20.840809   19.119640   20.748897 H          1 MOL1         0.0752
       9    H4      22.573992   19.061884   21.013291 H          1 MOL1         0.0752
      10    C4      21.438666   18.612807   22.788326 C.3        1 MOL1        -0.1858
      11    H5      22.236282   18.882084   23.494113 H          1 MOL1         0.0752
      12    H6      21.563827   17.542358   22.575122 H          1 MOL1         0.0752
      13    C5      20.061011   18.828508   23.454782 C.3        1 MOL1        -0.1858
      14    H7      19.970151   19.867780   23.794878 H          1 MOL1         0.0752
      15    H8      19.264094   18.660102   22.717483 H          1 MOL1         0.0752
      16    C6      19.856759   17.887320   24.661851 C.3        1 MOL1        -0.1858
      17    H9      20.657238   18.053708   25.395731 H          1 MOL1         0.0752
      18    H10     19.937232   16.842593   24.331645 H          1 MOL1         0.0752
      19    C7      18.486114   18.109880   25.335032 C.3        1 MOL1        -0.1834
      20    H11     18.402642   19.153689   25.668346 H          1 MOL1         0.0752
      21    H12     17.683102   17.943516   24.603628 H          1 MOL1         0.0752
      22    C8      18.285141   17.169097   26.540107 C.3        1 MOL1        -0.2849
      23    H13     19.057520   17.336568   27.302181 H          1 MOL1         0.0764
      24    H14     17.306245   17.341131   27.006187 H          1 MOL1         0.0764
      25    H15     18.332433   16.117163   26.229351 H          1 MOL1         0.0764
@<TRIPOS>BOND
    1     1     2    1
    2     1     3    2
    3     1     4    1
    4     4     5    1
    5     4     6    1
    6     4     7    1
    7     7     8    1
    8     7     9    1
    9     7    10    1
   10    10    11    1
   11    10    12    1
   12    10    13    1
   13    13    14    1
   14    13    15    1
   15    13    16    1
   16    16    17    1
   17    16    18    1
   18    16    19    1
   19    19    20    1
   20    19    21    1
   21    19    22    1
   22    22    23    1
   23    22    24    1
   24    22    25    1
@<TRIPOS>SUBSTRUCTURE
       1 MOL1            1 RESIDUE      1      MOL     
@<SCITEGIC>MOL_PROPERTY
VConf Rank
SciTegic.value.IntegerValue
395

@<SCITEGIC>MOL_PROPERTY
Conf_Id
SciTegic.value.IntegerValue
9

@<SCITEGIC>MOL_PROPERTY
Delta U+W
SciTegic.value.DoubleValue
1.764

@<SCITEGIC>MOL_PROPERTY
U+W
SciTegic.value.DoubleValue
-49.865

@<SCITEGIC>MOL_PROPERTY
Grad RMS
SciTegic.value.DoubleValue
0.000000

@<SCITEGIC>MOL_PROPERTY
U
SciTegic.value.DoubleValue
10.902

@<SCITEGIC>MOL_PROPERTY
W
SciTegic.value.DoubleValue
-60.768

@<SCITEGIC>MOL_PROPERTY
W(PB)
SciTegic.value.DoubleValue
-63.223

@<SCITEGIC>MOL_PROPERTY
W(SA)
SciTegic.value.DoubleValue
2.456

@<SCITEGIC>MOL_PROPERTY
Valence
SciTegic.value.DoubleValue
9.445

@<SCITEGIC>MOL_PROPERTY
Coulomb
SciTegic.value.DoubleValue
0.778

@<SCITEGIC>MOL_PROPERTY
VdW
SciTegic.value.DoubleValue
0.679

@<SCITEGIC>MOL_PROPERTY
VdW6
SciTegic.value.DoubleValue
-10.007

@<SCITEGIC>MOL_PROPERTY
VdW12
SciTegic.value.DoubleValue
10.687

@<SCITEGIC>MOL_PROPERTY
Bond
SciTegic.value.DoubleValue
0.201

@<SCITEGIC>MOL_PROPERTY
Angle
SciTegic.value.DoubleValue
3.198

@<SCITEGIC>MOL_PROPERTY
Pdih
SciTegic.value.DoubleValue
6.040

@<SCITEGIC>MOL_PROPERTY
Idih
SciTegic.value.DoubleValue
0.006

@<SCITEGIC>MOL_PROPERTY
Tether
SciTegic.value.DoubleValue
0.000

@<TRIPOS>MOLECULE
guest-8_confgen4.mol2 : confsearch ligand conformer 396
          25          24           1
SMALL
USER_CHARGES
 
@<TRIPOS>ATOM
       1    C1      20.367008   22.829734   23.179074 C.2        1 MOL1         0.6168
       2    O1      20.007677   22.831753   22.018263 O.co2      1 MOL1        -0.6703
       3    O2      20.419291   23.828490   23.869437 O.co2      1 MOL1        -0.6703
       4    C2      20.754282   21.497551   23.810757 C.3        1 MOL1        -0.1963
       5    H1      21.543638   21.689590   24.547165 H          1 MOL1         0.0750
       6    H2      21.193726   20.871461   23.028221 H          1 MOL1         0.0750
       7    C3      19.554984   20.785176   24.490355 C.3        1 MOL1        -0.1860
       8    H3      19.161186   21.454635   25.267649 H          1 MOL1         0.0752
       9    H4      18.739643   20.643876   23.767398 H          1 MOL1         0.0752
      10    C4      19.930802   19.432099   25.146278 C.3        1 MOL1        -0.1858
      11    H5      19.327977   19.315483   26.057278 H          1 MOL1         0.0752
      12    H6      20.976974   19.447989   25.481106 H          1 MOL1         0.0752
      13    C5      19.674266   18.189336   24.257183 C.3        1 MOL1        -0.1858
      14    H7      19.894405   17.290571   24.849053 H          1 MOL1         0.0752
      15    H8      18.606013   18.141625   24.008215 H          1 MOL1         0.0752
      16    C6      20.514269   18.152960   22.958629 C.3        1 MOL1        -0.1858
      17    H9      21.565384   18.355599   23.204580 H          1 MOL1         0.0752
      18    H10     20.185482   18.952029   22.281402 H          1 MOL1         0.0752
      19    C7      20.433853   16.798963   22.215824 C.3        1 MOL1        -0.1834
      20    H11     21.129628   16.820918   21.365777 H          1 MOL1         0.0752
      21    H12     20.777555   15.991656   22.877154 H          1 MOL1         0.0752
      22    C8      19.017853   16.474148   21.692601 C.3        1 MOL1        -0.2849
      23    H13     18.642827   17.280159   21.048516 H          1 MOL1         0.0764
      24    H14     19.028961   15.547946   21.103638 H          1 MOL1         0.0764
      25    H15     18.308669   16.334865   22.518151 H          1 MOL1         0.0764
@<TRIPOS>BOND
    1     1     2    1
    2     1     3    2
    3     1     4    1
    4     4     5    1
    5     4     6    1
    6     4     7    1
    7     7     8    1
    8     7     9    1
    9     7    10    1
   10    10    11    1
   11    10    12    1
   12    10    13    1
   13    13    14    1
   14    13    15    1
   15    13    16    1
   16    16    17    1
   17    16    18    1
   18    16    19    1
   19    19    20    1
   20    19    21    1
   21    19    22    1
   22    22    23    1
   23    22    24    1
   24    22    25    1
@<TRIPOS>SUBSTRUCTURE
       1 MOL1            1 RESIDUE      1      MOL     
@<SCITEGIC>MOL_PROPERTY
VConf Rank
SciTegic.value.IntegerValue
396

@<SCITEGIC>MOL_PROPERTY
Conf_Id
SciTegic.value.IntegerValue
89

@<SCITEGIC>MOL_PROPERTY
Delta U+W
SciTegic.value.DoubleValue
2.903

@<SCITEGIC>MOL_PROPERTY
U+W
SciTegic.value.DoubleValue
-48.726

@<SCITEGIC>MOL_PROPERTY
Grad RMS
SciTegic.value.DoubleValue
0.000000

@<SCITEGIC>MOL_PROPERTY
U
SciTegic.value.DoubleValue
10.996

@<SCITEGIC>MOL_PROPERTY
W
SciTegic.value.DoubleValue
-59.723

@<SCITEGIC>MOL_PROPERTY
W(PB)
SciTegic.value.DoubleValue
-62.151

@<SCITEGIC>MOL_PROPERTY
W(SA)
SciTegic.value.DoubleValue
2.428

@<SCITEGIC>MOL_PROPERTY
Valence
SciTegic.value.DoubleValue
10.985

@<SCITEGIC>MOL_PROPERTY
Coulomb
SciTegic.value.DoubleValue
-0.995

@<SCITEGIC>MOL_PROPERTY
VdW
SciTegic.value.DoubleValue
1.006

@<SCITEGIC>MOL_PROPERTY
VdW6
SciTegic.value.DoubleValue
-10.062

@<SCITEGIC>MOL_PROPERTY
VdW12
SciTegic.value.DoubleValue
11.069

@<SCITEGIC>MOL_PROPERTY
Bond
SciTegic.value.DoubleValue
0.238

@<SCITEGIC>MOL_PROPERTY
Angle
SciTegic.value.DoubleValue
3.202

@<SCITEGIC>MOL_PROPERTY
Pdih
SciTegic.value.DoubleValue
7.544

@<SCITEGIC>MOL_PROPERTY
Idih
SciTegic.value.DoubleValue
0.001

@<SCITEGIC>MOL_PROPERTY
Tether
SciTegic.value.DoubleValue
0.000

@<TRIPOS>MOLECULE
guest-8_confgen4.mol2 : confsearch ligand conformer 397
          25          24           1
SMALL
USER_CHARGES
 
@<TRIPOS>ATOM
       1    C1      18.147737   21.210466   25.353937 C.2        1 MOL1         0.6168
       2    O1      18.012738   22.095544   24.531944 O.co2      1 MOL1        -0.6703
       3    O2      17.224697   20.542766   25.777945 O.co2      1 MOL1        -0.6703
       4    C2      19.541676   20.970002   25.930442 C.3        1 MOL1        -0.1963
       5    H1      19.480209   21.218043   26.996358 H          1 MOL1         0.0750
       6    H2      20.241720   21.685268   25.481996 H          1 MOL1         0.0750
       7    C3      20.081691   19.519777   25.779408 C.3        1 MOL1        -0.1860
       8    H3      20.866291   19.371501   26.533636 H          1 MOL1         0.0752
       9    H4      19.290078   18.797243   26.022038 H          1 MOL1         0.0752
      10    C4      20.693574   19.192250   24.394396 C.3        1 MOL1        -0.1858
      11    H5      21.185252   18.214581   24.471441 H          1 MOL1         0.0752
      12    H6      21.483892   19.917828   24.158835 H          1 MOL1         0.0752
      13    C5      19.660628   19.156007   23.241967 C.3        1 MOL1        -0.1858
      14    H7      18.836444   18.477098   23.499989 H          1 MOL1         0.0752
      15    H8      19.218069   20.152306   23.122106 H          1 MOL1         0.0752
      16    C6      20.268454   18.743274   21.879772 C.3        1 MOL1        -0.1858
      17    H9      21.113320   19.402636   21.638381 H          1 MOL1         0.0752
      18    H10     19.512897   18.909680   21.099808 H          1 MOL1         0.0752
      19    C7      20.723787   17.267106   21.824640 C.3        1 MOL1        -0.1834
      20    H11     21.538578   17.093405   22.539255 H          1 MOL1         0.0752
      21    H12     19.892791   16.611905   22.120181 H          1 MOL1         0.0752
      22    C8      21.205754   16.876858   20.412723 C.3        1 MOL1        -0.2849
      23    H13     22.055070   17.499370   20.102061 H          1 MOL1         0.0764
      24    H14     21.528295   15.827803   20.390339 H          1 MOL1         0.0764
      25    H15     20.402253   16.999872   19.674756 H          1 MOL1         0.0764
@<TRIPOS>BOND
    1     1     2    1
    2     1     3    2
    3     1     4    1
    4     4     5    1
    5     4     6    1
    6     4     7    1
    7     7     8    1
    8     7     9    1
    9     7    10    1
   10    10    11    1
   11    10    12    1
   12    10    13    1
   13    13    14    1
   14    13    15    1
   15    13    16    1
   16    16    17    1
   17    16    18    1
   18    16    19    1
   19    19    20    1
   20    19    21    1
   21    19    22    1
   22    22    23    1
   23    22    24    1
   24    22    25    1
@<TRIPOS>SUBSTRUCTURE
       1 MOL1            1 RESIDUE      1      MOL     
@<SCITEGIC>MOL_PROPERTY
VConf Rank
SciTegic.value.IntegerValue
397

@<SCITEGIC>MOL_PROPERTY
Conf_Id
SciTegic.value.IntegerValue
114

@<SCITEGIC>MOL_PROPERTY
Delta U+W
SciTegic.value.DoubleValue
2.758

@<SCITEGIC>MOL_PROPERTY
U+W
SciTegic.value.DoubleValue
-48.871

@<SCITEGIC>MOL_PROPERTY
Grad RMS
SciTegic.value.DoubleValue
0.000000

@<SCITEGIC>MOL_PROPERTY
U
SciTegic.value.DoubleValue
11.422

@<SCITEGIC>MOL_PROPERTY
W
SciTegic.value.DoubleValue
-60.293

@<SCITEGIC>MOL_PROPERTY
W(PB)
SciTegic.value.DoubleValue
-62.719

@<SCITEGIC>MOL_PROPERTY
W(SA)
SciTegic.value.DoubleValue
2.425

@<SCITEGIC>MOL_PROPERTY
Valence
SciTegic.value.DoubleValue
10.135

@<SCITEGIC>MOL_PROPERTY
Coulomb
SciTegic.value.DoubleValue
0.369

@<SCITEGIC>MOL_PROPERTY
VdW
SciTegic.value.DoubleValue
0.918

@<SCITEGIC>MOL_PROPERTY
VdW6
SciTegic.value.DoubleValue
-10.482

@<SCITEGIC>MOL_PROPERTY
VdW12
SciTegic.value.DoubleValue
11.400

@<SCITEGIC>MOL_PROPERTY
Bond
SciTegic.value.DoubleValue
0.245

@<SCITEGIC>MOL_PROPERTY
Angle
SciTegic.value.DoubleValue
3.539

@<SCITEGIC>MOL_PROPERTY
Pdih
SciTegic.value.DoubleValue
6.346

@<SCITEGIC>MOL_PROPERTY
Idih
SciTegic.value.DoubleValue
0.006

@<SCITEGIC>MOL_PROPERTY
Tether
SciTegic.value.DoubleValue
0.000

@<TRIPOS>MOLECULE
guest-8_confgen4.mol2 : confsearch ligand conformer 398
          25          24           1
SMALL
USER_CHARGES
 
@<TRIPOS>ATOM
       1    C1      16.749525   19.899641   24.808654 C.2        1 MOL1         0.6168
       2    O1      16.574480   19.111533   25.717118 O.co2      1 MOL1        -0.6703
       3    O2      16.784158   21.104929   24.960898 O.co2      1 MOL1        -0.6703
       4    C2      16.914577   19.348724   23.395078 C.3        1 MOL1        -0.1963
       5    H1      16.287763   19.955357   22.730939 H          1 MOL1         0.0750
       6    H2      16.511817   18.329015   23.367636 H          1 MOL1         0.0750
       7    C3      18.377838   19.361917   22.881590 C.3        1 MOL1        -0.1860
       8    H3      18.386443   19.074286   21.821663 H          1 MOL1         0.0752
       9    H4      18.763382   20.388442   22.935713 H          1 MOL1         0.0752
      10    C4      19.293292   18.402113   23.679070 C.3        1 MOL1        -0.1858
      11    H5      18.837543   17.402594   23.689027 H          1 MOL1         0.0752
      12    H6      19.350965   18.725465   24.727602 H          1 MOL1         0.0752
      13    C5      20.722182   18.282883   23.097056 C.3        1 MOL1        -0.1858
      14    H7      21.240912   17.479351   23.635052 H          1 MOL1         0.0752
      15    H8      20.666684   17.968720   22.045987 H          1 MOL1         0.0752
      16    C6      21.544573   19.590387   23.209521 C.3        1 MOL1        -0.1858
      17    H9      21.596665   19.906012   24.260401 H          1 MOL1         0.0752
      18    H10     21.029293   20.393830   22.668200 H          1 MOL1         0.0752
      19    C7      22.975232   19.467854   22.634510 C.3        1 MOL1        -0.1834
      20    H11     22.927361   19.141013   21.586573 H          1 MOL1         0.0752
      21    H12     23.437351   20.464665   22.627300 H          1 MOL1         0.0752
      22    C8      23.880478   18.508890   23.438142 C.3        1 MOL1        -0.2849
      23    H13     24.906103   18.532538   23.047710 H          1 MOL1         0.0764
      24    H14     23.915562   18.796498   24.496993 H          1 MOL1         0.0764
      25    H15     23.525633   17.472861   23.373827 H          1 MOL1         0.0764
@<TRIPOS>BOND
    1     1     2    1
    2     1     3    2
    3     1     4    1
    4     4     5    1
    5     4     6    1
    6     4     7    1
    7     7     8    1
    8     7     9    1
    9     7    10    1
   10    10    11    1
   11    10    12    1
   12    10    13    1
   13    13    14    1
   14    13    15    1
   15    13    16    1
   16    16    17    1
   17    16    18    1
   18    16    19    1
   19    19    20    1
   20    19    21    1
   21    19    22    1
   22    22    23    1
   23    22    24    1
   24    22    25    1
@<TRIPOS>SUBSTRUCTURE
       1 MOL1            1 RESIDUE      1      MOL     
@<SCITEGIC>MOL_PROPERTY
VConf Rank
SciTegic.value.IntegerValue
398

@<SCITEGIC>MOL_PROPERTY
Conf_Id
SciTegic.value.IntegerValue
87

@<SCITEGIC>MOL_PROPERTY
Delta U+W
SciTegic.value.DoubleValue
1.453

@<SCITEGIC>MOL_PROPERTY
U+W
SciTegic.value.DoubleValue
-50.176

@<SCITEGIC>MOL_PROPERTY
Grad RMS
SciTegic.value.DoubleValue
0.000000

@<SCITEGIC>MOL_PROPERTY
U
SciTegic.value.DoubleValue
9.763

@<SCITEGIC>MOL_PROPERTY
W
SciTegic.value.DoubleValue
-59.940

@<SCITEGIC>MOL_PROPERTY
W(PB)
SciTegic.value.DoubleValue
-62.392

@<SCITEGIC>MOL_PROPERTY
W(SA)
SciTegic.value.DoubleValue
2.452

@<SCITEGIC>MOL_PROPERTY
Valence
SciTegic.value.DoubleValue
8.883

@<SCITEGIC>MOL_PROPERTY
Coulomb
SciTegic.value.DoubleValue
-0.122

@<SCITEGIC>MOL_PROPERTY
VdW
SciTegic.value.DoubleValue
1.003

@<SCITEGIC>MOL_PROPERTY
VdW6
SciTegic.value.DoubleValue
-9.782

@<SCITEGIC>MOL_PROPERTY
VdW12
SciTegic.value.DoubleValue
10.785

@<SCITEGIC>MOL_PROPERTY
Bond
SciTegic.value.DoubleValue
0.212

@<SCITEGIC>MOL_PROPERTY
Angle
SciTegic.value.DoubleValue
2.940

@<SCITEGIC>MOL_PROPERTY
Pdih
SciTegic.value.DoubleValue
5.730

@<SCITEGIC>MOL_PROPERTY
Idih
SciTegic.value.DoubleValue
0.001

@<SCITEGIC>MOL_PROPERTY
Tether
SciTegic.value.DoubleValue
0.000

@<TRIPOS>MOLECULE
guest-8_confgen4.mol2 : confsearch ligand conformer 399
          25          24           1
SMALL
USER_CHARGES
 
@<TRIPOS>ATOM
       1    C1      23.746327   20.564080   23.390535 C.2        1 MOL1         0.6168
       2    O1      24.243173   20.028684   22.419361 O.co2      1 MOL1        -0.6703
       3    O2      24.053599   21.674027   23.778278 O.co2      1 MOL1        -0.6703
       4    C2      22.664341   19.808877   24.154172 C.3        1 MOL1        -0.1963
       5    H1      22.735764   20.088704   25.212036 H          1 MOL1         0.0750
       6    H2      22.884676   18.736763   24.086357 H          1 MOL1         0.0750
       7    C3      21.239613   20.095644   23.619509 C.3        1 MOL1        -0.1860
       8    H3      21.036382   21.173353   23.685707 H          1 MOL1         0.0752
       9    H4      21.198760   19.826446   22.555719 H          1 MOL1         0.0752
      10    C4      20.163264   19.312534   24.406172 C.3        1 MOL1        -0.1858
      11    H5      20.264984   19.541565   25.475667 H          1 MOL1         0.0752
      12    H6      20.342123   18.233788   24.307573 H          1 MOL1         0.0752
      13    C5      18.714852   19.648790   23.971000 C.3        1 MOL1        -0.1858
      14    H7      18.014889   19.099553   24.614249 H          1 MOL1         0.0752
      15    H8      18.524545   20.712829   24.166128 H          1 MOL1         0.0752
      16    C6      18.383486   19.351529   22.484510 C.3        1 MOL1        -0.1858
      17    H9      18.968819   20.021064   21.840790 H          1 MOL1         0.0752
      18    H10     17.331688   19.610338   22.302226 H          1 MOL1         0.0752
      19    C7      18.621739   17.888730   22.035528 C.3        1 MOL1        -0.1834
      20    H11     18.378646   17.806205   20.967352 H          1 MOL1         0.0752
      21    H12     19.686275   17.634640   22.125163 H          1 MOL1         0.0752
      22    C8      17.773138   16.864060   22.819090 C.3        1 MOL1        -0.2849
      23    H13     16.704950   17.108953   22.756343 H          1 MOL1         0.0764
      24    H14     17.914107   15.855327   22.410052 H          1 MOL1         0.0764
      25    H15     18.058868   16.836888   23.878130 H          1 MOL1         0.0764
@<TRIPOS>BOND
    1     1     2    1
    2     1     3    2
    3     1     4    1
    4     4     5    1
    5     4     6    1
    6     4     7    1
    7     7     8    1
    8     7     9    1
    9     7    10    1
   10    10    11    1
   11    10    12    1
   12    10    13    1
   13    13    14    1
   14    13    15    1
   15    13    16    1
   16    16    17    1
   17    16    18    1
   18    16    19    1
   19    19    20    1
   20    19    21    1
   21    19    22    1
   22    22    23    1
   23    22    24    1
   24    22    25    1
@<TRIPOS>SUBSTRUCTURE
       1 MOL1            1 RESIDUE      1      MOL     
@<SCITEGIC>MOL_PROPERTY
VConf Rank
SciTegic.value.IntegerValue
399

@<SCITEGIC>MOL_PROPERTY
Conf_Id
SciTegic.value.IntegerValue
29

@<SCITEGIC>MOL_PROPERTY
Delta U+W
SciTegic.value.DoubleValue
0.850

@<SCITEGIC>MOL_PROPERTY
U+W
SciTegic.value.DoubleValue
-50.780

@<SCITEGIC>MOL_PROPERTY
Grad RMS
SciTegic.value.DoubleValue
0.000000

@<SCITEGIC>MOL_PROPERTY
U
SciTegic.value.DoubleValue
8.646

@<SCITEGIC>MOL_PROPERTY
W
SciTegic.value.DoubleValue
-59.426

@<SCITEGIC>MOL_PROPERTY
W(PB)
SciTegic.value.DoubleValue
-61.868

@<SCITEGIC>MOL_PROPERTY
W(SA)
SciTegic.value.DoubleValue
2.442

@<SCITEGIC>MOL_PROPERTY
Valence
SciTegic.value.DoubleValue
8.924

@<SCITEGIC>MOL_PROPERTY
Coulomb
SciTegic.value.DoubleValue
-1.171

@<SCITEGIC>MOL_PROPERTY
VdW
SciTegic.value.DoubleValue
0.894

@<SCITEGIC>MOL_PROPERTY
VdW6
SciTegic.value.DoubleValue
-10.223

@<SCITEGIC>MOL_PROPERTY
VdW12
SciTegic.value.DoubleValue
11.117

@<SCITEGIC>MOL_PROPERTY
Bond
SciTegic.value.DoubleValue
0.231

@<SCITEGIC>MOL_PROPERTY
Angle
SciTegic.value.DoubleValue
3.232

@<SCITEGIC>MOL_PROPERTY
Pdih
SciTegic.value.DoubleValue
5.461

@<SCITEGIC>MOL_PROPERTY
Idih
SciTegic.value.DoubleValue
0.001

@<SCITEGIC>MOL_PROPERTY
Tether
SciTegic.value.DoubleValue
0.000

@<TRIPOS>MOLECULE
guest-8_confgen4.mol2 : confsearch ligand conformer 400
          25          24           1
SMALL
USER_CHARGES
 
@<TRIPOS>ATOM
       1    C1      21.190279   16.781971   20.417433 C.2        1 MOL1         0.6168
       2    O1      21.935500   16.022935   21.004967 O.co2      1 MOL1        -0.6703
       3    O2      21.343581   17.113145   19.258312 O.co2      1 MOL1        -0.6703
       4    C2      20.008043   17.366061   21.182501 C.3        1 MOL1        -0.1963
       5    H1      19.676817   16.622479   21.917313 H          1 MOL1         0.0750
       6    H2      19.183372   17.512807   20.474784 H          1 MOL1         0.0750
       7    C3      20.349883   18.700214   21.890412 C.3        1 MOL1        -0.1860
       8    H3      21.189690   18.532429   22.577695 H          1 MOL1         0.0752
       9    H4      20.687717   19.431995   21.143749 H          1 MOL1         0.0752
      10    C4      19.136790   19.266368   22.664047 C.3        1 MOL1        -0.1858
      11    H5      18.823301   18.552913   23.437424 H          1 MOL1         0.0752
      12    H6      18.286537   19.361798   21.975146 H          1 MOL1         0.0752
      13    C5      19.404957   20.652199   23.302716 C.3        1 MOL1        -0.1858
      14    H7      19.623635   21.373787   22.503991 H          1 MOL1         0.0752
      15    H8      18.481780   21.007697   23.778894 H          1 MOL1         0.0752
      16    C6      20.561507   20.692995   24.336423 C.3        1 MOL1        -0.1858
      17    H9      20.641897   21.714913   24.731025 H          1 MOL1         0.0752
      18    H10     21.513081   20.497567   23.824972 H          1 MOL1         0.0752
      19    C7      20.419175   19.709851   25.524405 C.3        1 MOL1        -0.1834
      20    H11     20.426196   18.673864   25.160375 H          1 MOL1         0.0752
      21    H12     21.302066   19.810838   26.170322 H          1 MOL1         0.0752
      22    C8      19.152330   19.956318   26.371986 C.3        1 MOL1        -0.2849
      23    H13     18.241142   19.761988   25.792402 H          1 MOL1         0.0764
      24    H14     19.139281   19.292225   27.245793 H          1 MOL1         0.0764
      25    H15     19.116864   20.992296   26.733133 H          1 MOL1         0.0764
@<TRIPOS>BOND
    1     1     2    1
    2     1     3    2
    3     1     4    1
    4     4     5    1
    5     4     6    1
    6     4     7    1
    7     7     8    1
    8     7     9    1
    9     7    10    1
   10    10    11    1
   11    10    12    1
   12    10    13    1
   13    13    14    1
   14    13    15    1
   15    13    16    1
   16    16    17    1
   17    16    18    1
   18    16    19    1
   19    19    20    1
   20    19    21    1
   21    19    22    1
   22    22    23    1
   23    22    24    1
   24    22    25    1
@<TRIPOS>SUBSTRUCTURE
       1 MOL1            1 RESIDUE      1      MOL     
@<SCITEGIC>MOL_PROPERTY
VConf Rank
SciTegic.value.IntegerValue
400

@<SCITEGIC>MOL_PROPERTY
Conf_Id
SciTegic.value.IntegerValue
30

@<SCITEGIC>MOL_PROPERTY
Delta U+W
SciTegic.value.DoubleValue
0.843

@<SCITEGIC>MOL_PROPERTY
U+W
SciTegic.value.DoubleValue
-50.787

@<SCITEGIC>MOL_PROPERTY
Grad RMS
SciTegic.value.DoubleValue
0.000000

@<SCITEGIC>MOL_PROPERTY
U
SciTegic.value.DoubleValue
8.647

@<SCITEGIC>MOL_PROPERTY
W
SciTegic.value.DoubleValue
-59.434

@<SCITEGIC>MOL_PROPERTY
W(PB)
SciTegic.value.DoubleValue
-61.861

@<SCITEGIC>MOL_PROPERTY
W(SA)
SciTegic.value.DoubleValue
2.428

@<SCITEGIC>MOL_PROPERTY
Valence
SciTegic.value.DoubleValue
8.924

@<SCITEGIC>MOL_PROPERTY
Coulomb
SciTegic.value.DoubleValue
-1.170

@<SCITEGIC>MOL_PROPERTY
VdW
SciTegic.value.DoubleValue
0.894

@<SCITEGIC>MOL_PROPERTY
VdW6
SciTegic.value.DoubleValue
-10.224

@<SCITEGIC>MOL_PROPERTY
VdW12
SciTegic.value.DoubleValue
11.118

@<SCITEGIC>MOL_PROPERTY
Bond
SciTegic.value.DoubleValue
0.231

@<SCITEGIC>MOL_PROPERTY
Angle
SciTegic.value.DoubleValue
3.232

@<SCITEGIC>MOL_PROPERTY
Pdih
SciTegic.value.DoubleValue
5.460

@<SCITEGIC>MOL_PROPERTY
Idih
SciTegic.value.DoubleValue
0.000

@<SCITEGIC>MOL_PROPERTY
Tether
SciTegic.value.DoubleValue
0.000

@<TRIPOS>MOLECULE
guest-8_confgen4.mol2 : confsearch ligand conformer 401
          25          24           1
SMALL
USER_CHARGES
 
@<TRIPOS>ATOM
       1    C1      22.253979   19.842977   19.015346 C.2        1 MOL1         0.6168
       2    O1      22.052532   18.705437   18.635841 O.co2      1 MOL1        -0.6703
       3    O2      22.847562   20.669062   18.350997 O.co2      1 MOL1        -0.6703
       4    C2      21.748723   20.284826   20.389713 C.3        1 MOL1        -0.1963
       5    H1      21.093319   21.149835   20.234433 H          1 MOL1         0.0750
       6    H2      22.616588   20.637734   20.959074 H          1 MOL1         0.0750
       7    C3      20.996938   19.195768   21.200384 C.3        1 MOL1        -0.1860
       8    H3      20.132475   18.842166   20.621441 H          1 MOL1         0.0752
       9    H4      21.657131   18.329618   21.346795 H          1 MOL1         0.0752
      10    C4      20.522681   19.725149   22.571326 C.3        1 MOL1        -0.1858
      11    H5      19.862908   20.590989   22.422476 H          1 MOL1         0.0752
      12    H6      21.388518   20.078100   23.148289 H          1 MOL1         0.0752
      13    C5      19.775104   18.640210   23.376014 C.3        1 MOL1        -0.1858
      14    H7      18.909185   18.287089   22.799304 H          1 MOL1         0.0752
      15    H8      20.434653   17.774251   23.525062 H          1 MOL1         0.0752
      16    C6      19.300621   19.168871   24.746889 C.3        1 MOL1        -0.1858
      17    H9      18.641007   20.034813   24.598074 H          1 MOL1         0.0752
      18    H10     20.166404   19.521952   25.323819 H          1 MOL1         0.0752
      19    C7      18.553324   18.084509   25.551294 C.3        1 MOL1        -0.1834
      20    H11     17.685387   17.730182   24.978036 H          1 MOL1         0.0752
      21    H12     19.210767   17.217327   25.703783 H          1 MOL1         0.0752
      22    C8      18.081165   18.616285   26.919462 C.3        1 MOL1        -0.2849
      23    H13     17.396253   19.465401   26.795789 H          1 MOL1         0.0764
      24    H14     17.552216   17.832777   27.477508 H          1 MOL1         0.0764
      25    H15     18.933109   18.948667   27.527006 H          1 MOL1         0.0764
@<TRIPOS>BOND
    1     1     2    1
    2     1     3    2
    3     1     4    1
    4     4     5    1
    5     4     6    1
    6     4     7    1
    7     7     8    1
    8     7     9    1
    9     7    10    1
   10    10    11    1
   11    10    12    1
   12    10    13    1
   13    13    14    1
   14    13    15    1
   15    13    16    1
   16    16    17    1
   17    16    18    1
   18    16    19    1
   19    19    20    1
   20    19    21    1
   21    19    22    1
   22    22    23    1
   23    22    24    1
   24    22    25    1
@<TRIPOS>SUBSTRUCTURE
       1 MOL1            1 RESIDUE      1      MOL     
@<SCITEGIC>MOL_PROPERTY
VConf Rank
SciTegic.value.IntegerValue
401

@<SCITEGIC>MOL_PROPERTY
Conf_Id
SciTegic.value.IntegerValue
0

@<SCITEGIC>MOL_PROPERTY
Delta U+W
SciTegic.value.DoubleValue
0.000

@<SCITEGIC>MOL_PROPERTY
U+W
SciTegic.value.DoubleValue
-51.629

@<SCITEGIC>MOL_PROPERTY
Grad RMS
SciTegic.value.DoubleValue
0.000000

@<SCITEGIC>MOL_PROPERTY
U
SciTegic.value.DoubleValue
6.586

@<SCITEGIC>MOL_PROPERTY
W
SciTegic.value.DoubleValue
-58.216

@<SCITEGIC>MOL_PROPERTY
W(PB)
SciTegic.value.DoubleValue
-60.757

@<SCITEGIC>MOL_PROPERTY
W(SA)
SciTegic.value.DoubleValue
2.541

@<SCITEGIC>MOL_PROPERTY
Valence
SciTegic.value.DoubleValue
8.027

@<SCITEGIC>MOL_PROPERTY
Coulomb
SciTegic.value.DoubleValue
-2.892

@<SCITEGIC>MOL_PROPERTY
VdW
SciTegic.value.DoubleValue
1.451

@<SCITEGIC>MOL_PROPERTY
VdW6
SciTegic.value.DoubleValue
-7.931

@<SCITEGIC>MOL_PROPERTY
VdW12
SciTegic.value.DoubleValue
9.383

@<SCITEGIC>MOL_PROPERTY
Bond
SciTegic.value.DoubleValue
0.149

@<SCITEGIC>MOL_PROPERTY
Angle
SciTegic.value.DoubleValue
2.726

@<SCITEGIC>MOL_PROPERTY
Pdih
SciTegic.value.DoubleValue
5.152

@<SCITEGIC>MOL_PROPERTY
Idih
SciTegic.value.DoubleValue
0.000

@<SCITEGIC>MOL_PROPERTY
Tether
SciTegic.value.DoubleValue
0.000

@<TRIPOS>MOLECULE
guest-8_confgen4.mol2 : confsearch ligand conformer 402
          25          24           1
SMALL
USER_CHARGES
 
@<TRIPOS>ATOM
       1    C1      21.535681   15.765351   20.243537 C.2        1 MOL1         0.6168
       2    O1      22.478133   15.116330   20.652409 O.co2      1 MOL1        -0.6703
       3    O2      20.658413   15.307897   19.538017 O.co2      1 MOL1        -0.6703
       4    C2      21.436186   17.229144   20.657651 C.3        1 MOL1        -0.1963
       5    H1      20.954278   17.781821   19.842226 H          1 MOL1         0.0750
       6    H2      22.454095   17.624112   20.759960 H          1 MOL1         0.0750
       7    C3      20.650006   17.428773   21.976777 C.3        1 MOL1        -0.1860
       8    H3      19.637912   17.016359   21.862001 H          1 MOL1         0.0752
       9    H4      21.137616   16.858520   22.779673 H          1 MOL1         0.0752
      10    C4      20.563310   18.918139   22.374639 C.3        1 MOL1        -0.1858
      11    H5      20.076431   19.485546   21.569543 H          1 MOL1         0.0752
      12    H6      21.576594   19.327721   22.487239 H          1 MOL1         0.0752
      13    C5      19.779247   19.114003   23.690067 C.3        1 MOL1        -0.1858
      14    H7      18.765917   18.704567   23.577685 H          1 MOL1         0.0752
      15    H8      20.265963   18.546699   24.495286 H          1 MOL1         0.0752
      16    C6      19.692191   20.603123   24.088592 C.3        1 MOL1        -0.1858
      17    H9      19.205416   21.170699   23.283606 H          1 MOL1         0.0752
      18    H10     20.705387   21.012853   24.201066 H          1 MOL1         0.0752
      19    C7      18.908569   20.799084   25.403468 C.3        1 MOL1        -0.1834
      20    H11     17.893753   20.392043   25.294131 H          1 MOL1         0.0752
      21    H12     19.393722   20.234228   26.211585 H          1 MOL1         0.0752
      22    C8      18.823847   22.287302   25.797969 C.3        1 MOL1        -0.2849
      23    H13     18.263802   22.408080   26.734372 H          1 MOL1         0.0764
      24    H14     19.825405   22.712391   25.944865 H          1 MOL1         0.0764
      25    H15     18.314148   22.871386   25.020505 H          1 MOL1         0.0764
@<TRIPOS>BOND
    1     1     2    1
    2     1     3    2
    3     1     4    1
    4     4     5    1
    5     4     6    1
    6     4     7    1
    7     7     8    1
    8     7     9    1
    9     7    10    1
   10    10    11    1
   11    10    12    1
   12    10    13    1
   13    13    14    1
   14    13    15    1
   15    13    16    1
   16    16    17    1
   17    16    18    1
   18    16    19    1
   19    19    20    1
   20    19    21    1
   21    19    22    1
   22    22    23    1
   23    22    24    1
   24    22    25    1
@<TRIPOS>SUBSTRUCTURE
       1 MOL1            1 RESIDUE      1      MOL     
@<SCITEGIC>MOL_PROPERTY
VConf Rank
SciTegic.value.IntegerValue
402

@<SCITEGIC>MOL_PROPERTY
Conf_Id
SciTegic.value.IntegerValue
27

@<SCITEGIC>MOL_PROPERTY
Delta U+W
SciTegic.value.DoubleValue
-1.297

@<SCITEGIC>MOL_PROPERTY
U+W
SciTegic.value.DoubleValue
-52.926

@<SCITEGIC>MOL_PROPERTY
Grad RMS
SciTegic.value.DoubleValue
0.000000

@<SCITEGIC>MOL_PROPERTY
U
SciTegic.value.DoubleValue
5.617

@<SCITEGIC>MOL_PROPERTY
W
SciTegic.value.DoubleValue
-58.543

@<SCITEGIC>MOL_PROPERTY
W(PB)
SciTegic.value.DoubleValue
-61.065

@<SCITEGIC>MOL_PROPERTY
W(SA)
SciTegic.value.DoubleValue
2.522

@<SCITEGIC>MOL_PROPERTY
Valence
SciTegic.value.DoubleValue
7.531

@<SCITEGIC>MOL_PROPERTY
Coulomb
SciTegic.value.DoubleValue
-2.818

@<SCITEGIC>MOL_PROPERTY
VdW
SciTegic.value.DoubleValue
0.904

@<SCITEGIC>MOL_PROPERTY
VdW6
SciTegic.value.DoubleValue
-7.640

@<SCITEGIC>MOL_PROPERTY
VdW12
SciTegic.value.DoubleValue
8.544

@<SCITEGIC>MOL_PROPERTY
Bond
SciTegic.value.DoubleValue
0.115

@<SCITEGIC>MOL_PROPERTY
Angle
SciTegic.value.DoubleValue
2.271

@<SCITEGIC>MOL_PROPERTY
Pdih
SciTegic.value.DoubleValue
5.144

@<SCITEGIC>MOL_PROPERTY
Idih
SciTegic.value.DoubleValue
0.001

@<SCITEGIC>MOL_PROPERTY
Tether
SciTegic.value.DoubleValue
0.000

@<TRIPOS>MOLECULE
guest-8_confgen4.mol2 : confsearch ligand conformer 403
          25          24           1
SMALL
USER_CHARGES
 
@<TRIPOS>ATOM
       1    C1      24.041437   18.153998   22.454847 C.2        1 MOL1         0.6168
       2    O1      24.770121   18.110173   23.426533 O.co2      1 MOL1        -0.6703
       3    O2      23.752089   17.181101   21.786480 O.co2      1 MOL1        -0.6703
       4    C2      23.473167   19.509217   22.043247 C.3        1 MOL1        -0.1963
       5    H1      23.142685   19.447790   20.999285 H          1 MOL1         0.0750
       6    H2      24.296287   20.232775   22.073603 H          1 MOL1         0.0750
       7    C3      22.312857   20.006110   22.944203 C.3        1 MOL1        -0.1860
       8    H3      22.650787   20.035776   23.989476 H          1 MOL1         0.0752
       9    H4      22.060845   21.037887   22.664072 H          1 MOL1         0.0752
      10    C4      21.049876   19.123507   22.827317 C.3        1 MOL1        -0.1858
      11    H5      21.289856   18.092747   23.122895 H          1 MOL1         0.0752
      12    H6      20.724000   19.086119   21.778780 H          1 MOL1         0.0752
      13    C5      19.897862   19.654379   23.707470 C.3        1 MOL1        -0.1858
      14    H7      20.224663   19.691385   24.755763 H          1 MOL1         0.0752
      15    H8      19.654116   20.684000   23.411653 H          1 MOL1         0.0752
      16    C6      18.635825   18.772478   23.591831 C.3        1 MOL1        -0.1858
      17    H9      18.879444   17.742758   23.887561 H          1 MOL1         0.0752
      18    H10     18.309058   18.735044   22.543545 H          1 MOL1         0.0752
      19    C7      17.484223   19.302408   24.471806 C.3        1 MOL1        -0.1834
      20    H11     17.807002   19.339457   25.521532 H          1 MOL1         0.0752
      21    H12     17.236533   20.331722   24.177459 H          1 MOL1         0.0752
      22    C8      16.226023   18.418912   24.353598 C.3        1 MOL1        -0.2849
      23    H13     16.437384   17.389731   24.672207 H          1 MOL1         0.0764
      24    H14     15.417878   18.809986   24.985296 H          1 MOL1         0.0764
      25    H15     15.862627   18.389413   23.317999 H          1 MOL1         0.0764
@<TRIPOS>BOND
    1     1     2    1
    2     1     3    2
    3     1     4    1
    4     4     5    1
    5     4     6    1
    6     4     7    1
    7     7     8    1
    8     7     9    1
    9     7    10    1
   10    10    11    1
   11    10    12    1
   12    10    13    1
   13    13    14    1
   14    13    15    1
   15    13    16    1
   16    16    17    1
   17    16    18    1
   18    16    19    1
   19    19    20    1
   20    19    21    1
   21    19    22    1
   22    22    23    1
   23    22    24    1
   24    22    25    1
@<TRIPOS>SUBSTRUCTURE
       1 MOL1            1 RESIDUE      1      MOL     
@<SCITEGIC>MOL_PROPERTY
VConf Rank
SciTegic.value.IntegerValue
403

@<SCITEGIC>MOL_PROPERTY
Conf_Id
SciTegic.value.IntegerValue
37

@<SCITEGIC>MOL_PROPERTY
Delta U+W
SciTegic.value.DoubleValue
-0.230

@<SCITEGIC>MOL_PROPERTY
U+W
SciTegic.value.DoubleValue
-51.860

@<SCITEGIC>MOL_PROPERTY
Grad RMS
SciTegic.value.DoubleValue
0.000000

@<SCITEGIC>MOL_PROPERTY
U
SciTegic.value.DoubleValue
7.816

@<SCITEGIC>MOL_PROPERTY
W
SciTegic.value.DoubleValue
-59.675

@<SCITEGIC>MOL_PROPERTY
W(PB)
SciTegic.value.DoubleValue
-62.180

@<SCITEGIC>MOL_PROPERTY
W(SA)
SciTegic.value.DoubleValue
2.505

@<SCITEGIC>MOL_PROPERTY
Valence
SciTegic.value.DoubleValue
7.785

@<SCITEGIC>MOL_PROPERTY
Coulomb
SciTegic.value.DoubleValue
-0.713

@<SCITEGIC>MOL_PROPERTY
VdW
SciTegic.value.DoubleValue
0.744

@<SCITEGIC>MOL_PROPERTY
VdW6
SciTegic.value.DoubleValue
-8.514

@<SCITEGIC>MOL_PROPERTY
VdW12
SciTegic.value.DoubleValue
9.259

@<SCITEGIC>MOL_PROPERTY
Bond
SciTegic.value.DoubleValue
0.136

@<SCITEGIC>MOL_PROPERTY
Angle
SciTegic.value.DoubleValue
2.433

@<SCITEGIC>MOL_PROPERTY
Pdih
SciTegic.value.DoubleValue
5.216

@<SCITEGIC>MOL_PROPERTY
Idih
SciTegic.value.DoubleValue
0.000

@<SCITEGIC>MOL_PROPERTY
Tether
SciTegic.value.DoubleValue
0.000

@<TRIPOS>MOLECULE
guest-8_confgen4.mol2 : confsearch ligand conformer 404
          25          24           1
SMALL
USER_CHARGES
 
@<TRIPOS>ATOM
       1    C1      19.228798   16.521586   20.555081 C.2        1 MOL1         0.6168
       2    O1      18.918958   15.444505   21.025156 O.co2      1 MOL1        -0.6703
       3    O2      20.256045   16.714600   19.935023 O.co2      1 MOL1        -0.6703
       4    C2      18.265670   17.690692   20.740943 C.3        1 MOL1        -0.1963
       5    H1      17.258096   17.325267   20.510199 H          1 MOL1         0.0750
       6    H2      18.502285   18.460884   19.996857 H          1 MOL1         0.0750
       7    C3      18.281979   18.300261   22.166813 C.3        1 MOL1        -0.1860
       8    H3      17.469797   19.035150   22.249563 H          1 MOL1         0.0752
       9    H4      18.070870   17.511454   22.902264 H          1 MOL1         0.0752
      10    C4      19.625211   18.985208   22.504957 C.3        1 MOL1        -0.1858
      11    H5      19.838152   19.763633   21.759481 H          1 MOL1         0.0752
      12    H6      20.441093   18.251926   22.441268 H          1 MOL1         0.0752
      13    C5      19.608139   19.612141   23.915735 C.3        1 MOL1        -0.1858
      14    H7      18.794849   20.347909   23.980860 H          1 MOL1         0.0752
      15    H8      19.395254   18.832965   24.660485 H          1 MOL1         0.0752
      16    C6      20.950231   20.296120   24.254581 C.3        1 MOL1        -0.1858
      17    H9      21.163452   21.075146   23.509775 H          1 MOL1         0.0752
      18    H10     21.763683   19.560477   24.189369 H          1 MOL1         0.0752
      19    C7      20.933863   20.922384   25.664861 C.3        1 MOL1        -0.1834
      20    H11     20.122408   21.660186   25.733180 H          1 MOL1         0.0752
      21    H12     20.722752   20.145485   26.412753 H          1 MOL1         0.0752
      22    C8      22.275790   21.604287   25.999292 C.3        1 MOL1        -0.2849
      23    H13     22.496961   22.407809   25.284568 H          1 MOL1         0.0764
      24    H14     22.246484   22.043748   27.004825 H          1 MOL1         0.0764
      25    H15     23.101835   20.881694   25.969179 H          1 MOL1         0.0764
@<TRIPOS>BOND
    1     1     2    1
    2     1     3    2
    3     1     4    1
    4     4     5    1
    5     4     6    1
    6     4     7    1
    7     7     8    1
    8     7     9    1
    9     7    10    1
   10    10    11    1
   11    10    12    1
   12    10    13    1
   13    13    14    1
   14    13    15    1
   15    13    16    1
   16    16    17    1
   17    16    18    1
   18    16    19    1
   19    19    20    1
   20    19    21    1
   21    19    22    1
   22    22    23    1
   23    22    24    1
   24    22    25    1
@<TRIPOS>SUBSTRUCTURE
       1 MOL1            1 RESIDUE      1      MOL     
@<SCITEGIC>MOL_PROPERTY
VConf Rank
SciTegic.value.IntegerValue
404

@<SCITEGIC>MOL_PROPERTY
Conf_Id
SciTegic.value.IntegerValue
54

@<SCITEGIC>MOL_PROPERTY
Delta U+W
SciTegic.value.DoubleValue
-0.224

@<SCITEGIC>MOL_PROPERTY
U+W
SciTegic.value.DoubleValue
-51.854

@<SCITEGIC>MOL_PROPERTY
Grad RMS
SciTegic.value.DoubleValue
0.000000

@<SCITEGIC>MOL_PROPERTY
U
SciTegic.value.DoubleValue
7.816

@<SCITEGIC>MOL_PROPERTY
W
SciTegic.value.DoubleValue
-59.670

@<SCITEGIC>MOL_PROPERTY
W(PB)
SciTegic.value.DoubleValue
-62.157

@<SCITEGIC>MOL_PROPERTY
W(SA)
SciTegic.value.DoubleValue
2.487

@<SCITEGIC>MOL_PROPERTY
Valence
SciTegic.value.DoubleValue
7.785

@<SCITEGIC>MOL_PROPERTY
Coulomb
SciTegic.value.DoubleValue
-0.713

@<SCITEGIC>MOL_PROPERTY
VdW
SciTegic.value.DoubleValue
0.744

@<SCITEGIC>MOL_PROPERTY
VdW6
SciTegic.value.DoubleValue
-8.515

@<SCITEGIC>MOL_PROPERTY
VdW12
SciTegic.value.DoubleValue
9.259

@<SCITEGIC>MOL_PROPERTY
Bond
SciTegic.value.DoubleValue
0.136

@<SCITEGIC>MOL_PROPERTY
Angle
SciTegic.value.DoubleValue
2.433

@<SCITEGIC>MOL_PROPERTY
Pdih
SciTegic.value.DoubleValue
5.215

@<SCITEGIC>MOL_PROPERTY
Idih
SciTegic.value.DoubleValue
0.000

@<SCITEGIC>MOL_PROPERTY
Tether
SciTegic.value.DoubleValue
0.000

@<TRIPOS>MOLECULE
guest-8_confgen4.mol2 : confsearch ligand conformer 405
          25          24           1
SMALL
USER_CHARGES
 
@<TRIPOS>ATOM
       1    C1      16.884726   21.423441   24.082099 C.2        1 MOL1         0.6168
       2    O1      16.084681   21.130669   23.215344 O.co2      1 MOL1        -0.6703
       3    O2      16.614241   21.447386   25.266740 O.co2      1 MOL1        -0.6703
       4    C2      18.302366   21.800012   23.660586 C.3        1 MOL1        -0.1963
       5    H1      18.575081   22.710061   24.207768 H          1 MOL1         0.0750
       6    H2      18.293805   22.060659   22.595307 H          1 MOL1         0.0750
       7    C3      19.357479   20.696387   23.933377 C.3        1 MOL1        -0.1860
       8    H3      20.353845   21.115733   23.745742 H          1 MOL1         0.0752
       9    H4      19.325219   20.417066   24.995610 H          1 MOL1         0.0752
      10    C4      19.144266   19.440708   23.053740 C.3        1 MOL1        -0.1858
      11    H5      19.222191   19.713092   21.992367 H          1 MOL1         0.0752
      12    H6      18.121601   19.067775   23.202253 H          1 MOL1         0.0752
      13    C5      20.129709   18.289467   23.367593 C.3        1 MOL1        -0.1858
      14    H7      20.064969   18.030276   24.433053 H          1 MOL1         0.0752
      15    H8      19.801260   17.402420   22.811320 H          1 MOL1         0.0752
      16    C6      21.597985   18.613219   22.995871 C.3        1 MOL1        -0.1858
      17    H9      21.931237   19.495599   23.556427 H          1 MOL1         0.0752
      18    H10     21.661282   18.877254   21.931495 H          1 MOL1         0.0752
      19    C7      22.578194   17.456179   23.300724 C.3        1 MOL1        -0.1834
      20    H11     23.604564   17.813968   23.140110 H          1 MOL1         0.0752
      21    H12     22.508723   17.180743   24.362143 H          1 MOL1         0.0752
      22    C8      22.346883   16.207134   22.422476 C.3        1 MOL1        -0.2849
      23    H13     21.378016   15.739220   22.636386 H          1 MOL1         0.0764
      24    H14     22.377340   16.465472   21.355965 H          1 MOL1         0.0764
      25    H15     23.125704   15.456796   22.610453 H          1 MOL1         0.0764
@<TRIPOS>BOND
    1     1     2    1
    2     1     3    2
    3     1     4    1
    4     4     5    1
    5     4     6    1
    6     4     7    1
    7     7     8    1
    8     7     9    1
    9     7    10    1
   10    10    11    1
   11    10    12    1
   12    10    13    1
   13    13    14    1
   14    13    15    1
   15    13    16    1
   16    16    17    1
   17    16    18    1
   18    16    19    1
   19    19    20    1
   20    19    21    1
   21    19    22    1
   22    22    23    1
   23    22    24    1
   24    22    25    1
@<TRIPOS>SUBSTRUCTURE
       1 MOL1            1 RESIDUE      1      MOL     
@<SCITEGIC>MOL_PROPERTY
VConf Rank
SciTegic.value.IntegerValue
405

@<SCITEGIC>MOL_PROPERTY
Conf_Id
SciTegic.value.IntegerValue
101

@<SCITEGIC>MOL_PROPERTY
Delta U+W
SciTegic.value.DoubleValue
1.534

@<SCITEGIC>MOL_PROPERTY
U+W
SciTegic.value.DoubleValue
-50.095

@<SCITEGIC>MOL_PROPERTY
Grad RMS
SciTegic.value.DoubleValue
0.000000

@<SCITEGIC>MOL_PROPERTY
U
SciTegic.value.DoubleValue
9.416

@<SCITEGIC>MOL_PROPERTY
W
SciTegic.value.DoubleValue
-59.512

@<SCITEGIC>MOL_PROPERTY
W(PB)
SciTegic.value.DoubleValue
-61.988

@<SCITEGIC>MOL_PROPERTY
W(SA)
SciTegic.value.DoubleValue
2.476

@<SCITEGIC>MOL_PROPERTY
Valence
SciTegic.value.DoubleValue
8.939

@<SCITEGIC>MOL_PROPERTY
Coulomb
SciTegic.value.DoubleValue
-0.615

@<SCITEGIC>MOL_PROPERTY
VdW
SciTegic.value.DoubleValue
1.092

@<SCITEGIC>MOL_PROPERTY
VdW6
SciTegic.value.DoubleValue
-9.710

@<SCITEGIC>MOL_PROPERTY
VdW12
SciTegic.value.DoubleValue
10.802

@<SCITEGIC>MOL_PROPERTY
Bond
SciTegic.value.DoubleValue
0.216

@<SCITEGIC>MOL_PROPERTY
Angle
SciTegic.value.DoubleValue
2.979

@<SCITEGIC>MOL_PROPERTY
Pdih
SciTegic.value.DoubleValue
5.743

@<SCITEGIC>MOL_PROPERTY
Idih
SciTegic.value.DoubleValue
0.000

@<SCITEGIC>MOL_PROPERTY
Tether
SciTegic.value.DoubleValue
0.000

@<TRIPOS>MOLECULE
guest-8_confgen4.mol2 : confsearch ligand conformer 406
          25          24           1
SMALL
USER_CHARGES
 
@<TRIPOS>ATOM
       1    C1      19.788367   15.069383   23.934980 C.2        1 MOL1         0.6168
       2    O1      20.801241   14.717246   24.506664 O.co2      1 MOL1        -0.6703
       3    O2      18.752499   14.434106   23.948338 O.co2      1 MOL1        -0.6703
       4    C2      19.811605   16.392406   23.177855 C.3        1 MOL1        -0.1963
       5    H1      19.127201   16.308165   22.325309 H          1 MOL1         0.0750
       6    H2      20.821000   16.526032   22.773347 H          1 MOL1         0.0750
       7    C3      19.412648   17.598766   24.067283 C.3        1 MOL1        -0.1860
       8    H3      18.440330   17.385308   24.532536 H          1 MOL1         0.0752
       9    H4      20.133304   17.703353   24.890094 H          1 MOL1         0.0752
      10    C4      19.306606   18.933904   23.292125 C.3        1 MOL1        -0.1858
      11    H5      18.884680   19.686438   23.970476 H          1 MOL1         0.0752
      12    H6      18.593064   18.824100   22.464256 H          1 MOL1         0.0752
      13    C5      20.665458   19.439637   22.748382 C.3        1 MOL1        -0.1858
      14    H7      21.378340   19.550132   23.575792 H          1 MOL1         0.0752
      15    H8      21.093530   18.685318   22.076463 H          1 MOL1         0.0752
      16    C6      20.559738   20.769736   21.959702 C.3        1 MOL1        -0.1858
      17    H9      19.910978   20.614715   21.086915 H          1 MOL1         0.0752
      18    H10     21.551562   21.018957   21.558649 H          1 MOL1         0.0752
      19    C7      20.030392   21.982389   22.765137 C.3        1 MOL1        -0.1834
      20    H11     19.998575   22.855989   22.099664 H          1 MOL1         0.0752
      21    H12     18.993819   21.805651   23.080766 H          1 MOL1         0.0752
      22    C8      20.898106   22.327041   23.994864 C.3        1 MOL1        -0.2849
      23    H13     21.945202   22.484373   23.705356 H          1 MOL1         0.0764
      24    H14     20.537362   23.246128   24.474351 H          1 MOL1         0.0764
      25    H15     20.863697   21.525851   24.743856 H          1 MOL1         0.0764
@<TRIPOS>BOND
    1     1     2    1
    2     1     3    2
    3     1     4    1
    4     4     5    1
    5     4     6    1
    6     4     7    1
    7     7     8    1
    8     7     9    1
    9     7    10    1
   10    10    11    1
   11    10    12    1
   12    10    13    1
   13    13    14    1
   14    13    15    1
   15    13    16    1
   16    16    17    1
   17    16    18    1
   18    16    19    1
   19    19    20    1
   20    19    21    1
   21    19    22    1
   22    22    23    1
   23    22    24    1
   24    22    25    1
@<TRIPOS>SUBSTRUCTURE
       1 MOL1            1 RESIDUE      1      MOL     
@<SCITEGIC>MOL_PROPERTY
VConf Rank
SciTegic.value.IntegerValue
406

@<SCITEGIC>MOL_PROPERTY
Conf_Id
SciTegic.value.IntegerValue
75

@<SCITEGIC>MOL_PROPERTY
Delta U+W
SciTegic.value.DoubleValue
1.014

@<SCITEGIC>MOL_PROPERTY
U+W
SciTegic.value.DoubleValue
-50.615

@<SCITEGIC>MOL_PROPERTY
Grad RMS
SciTegic.value.DoubleValue
0.000000

@<SCITEGIC>MOL_PROPERTY
U
SciTegic.value.DoubleValue
8.474

@<SCITEGIC>MOL_PROPERTY
W
SciTegic.value.DoubleValue
-59.089

@<SCITEGIC>MOL_PROPERTY
W(PB)
SciTegic.value.DoubleValue
-61.530

@<SCITEGIC>MOL_PROPERTY
W(SA)
SciTegic.value.DoubleValue
2.441

@<SCITEGIC>MOL_PROPERTY
Valence
SciTegic.value.DoubleValue
9.080

@<SCITEGIC>MOL_PROPERTY
Coulomb
SciTegic.value.DoubleValue
-1.772

@<SCITEGIC>MOL_PROPERTY
VdW
SciTegic.value.DoubleValue
1.165

@<SCITEGIC>MOL_PROPERTY
VdW6
SciTegic.value.DoubleValue
-9.830

@<SCITEGIC>MOL_PROPERTY
VdW12
SciTegic.value.DoubleValue
10.996

@<SCITEGIC>MOL_PROPERTY
Bond
SciTegic.value.DoubleValue
0.240

@<SCITEGIC>MOL_PROPERTY
Angle
SciTegic.value.DoubleValue
3.225

@<SCITEGIC>MOL_PROPERTY
Pdih
SciTegic.value.DoubleValue
5.615

@<SCITEGIC>MOL_PROPERTY
Idih
SciTegic.value.DoubleValue
0.001

@<SCITEGIC>MOL_PROPERTY
Tether
SciTegic.value.DoubleValue
0.000

@<TRIPOS>MOLECULE
guest-8_confgen4.mol2 : confsearch ligand conformer 407
          25          24           1
SMALL
USER_CHARGES
 
@<TRIPOS>ATOM
       1    C1      19.072776   18.224219   27.282242 C.2        1 MOL1         0.6168
       2    O1      17.940872   17.782228   27.291684 O.co2      1 MOL1        -0.6703
       3    O2      19.906627   17.958073   28.125169 O.co2      1 MOL1        -0.6703
       4    C2      19.475608   19.147019   26.137581 C.3        1 MOL1        -0.1963
       5    H1      20.209588   19.865672   26.521470 H          1 MOL1         0.0750
       6    H2      18.590557   19.718565   25.833234 H          1 MOL1         0.0750
       7    C3      20.060442   18.381511   24.925126 C.3        1 MOL1        -0.1860
       8    H3      20.937683   17.804348   25.248894 H          1 MOL1         0.0752
       9    H4      19.318416   17.657271   24.561244 H          1 MOL1         0.0752
      10    C4      20.458854   19.337140   23.779617 C.3        1 MOL1        -0.1858
      11    H5      21.200141   20.059368   24.147981 H          1 MOL1         0.0752
      12    H6      19.581542   19.917342   23.469937 H          1 MOL1         0.0752
      13    C5      21.047918   18.568330   22.573520 C.3        1 MOL1        -0.1858
      14    H7      21.940306   18.026846   22.916092 H          1 MOL1         0.0752
      15    H8      20.340697   17.803324   22.225061 H          1 MOL1         0.0752
      16    C6      21.455059   19.490859   21.396404 C.3        1 MOL1        -0.1858
      17    H9      22.362803   19.076845   20.936553 H          1 MOL1         0.0752
      18    H10     21.737008   20.484469   21.770679 H          1 MOL1         0.0752
      19    C7      20.388455   19.625406   20.281435 C.3        1 MOL1        -0.1834
      20    H11     20.810431   20.229748   19.466648 H          1 MOL1         0.0752
      21    H12     20.177602   18.636091   19.852443 H          1 MOL1         0.0752
      22    C8      19.067567   20.274247   20.744719 C.3        1 MOL1        -0.2849
      23    H13     19.253160   21.236839   21.238615 H          1 MOL1         0.0764
      24    H14     18.407257   20.455244   19.886823 H          1 MOL1         0.0764
      25    H15     18.529812   19.621046   21.443127 H          1 MOL1         0.0764
@<TRIPOS>BOND
    1     1     2    1
    2     1     3    2
    3     1     4    1
    4     4     5    1
    5     4     6    1
    6     4     7    1
    7     7     8    1
    8     7     9    1
    9     7    10    1
   10    10    11    1
   11    10    12    1
   12    10    13    1
   13    13    14    1
   14    13    15    1
   15    13    16    1
   16    16    17    1
   17    16    18    1
   18    16    19    1
   19    19    20    1
   20    19    21    1
   21    19    22    1
   22    22    23    1
   23    22    24    1
   24    22    25    1
@<TRIPOS>SUBSTRUCTURE
       1 MOL1            1 RESIDUE      1      MOL     
@<SCITEGIC>MOL_PROPERTY
VConf Rank
SciTegic.value.IntegerValue
407

@<SCITEGIC>MOL_PROPERTY
Conf_Id
SciTegic.value.IntegerValue
125

@<SCITEGIC>MOL_PROPERTY
Delta U+W
SciTegic.value.DoubleValue
2.314

@<SCITEGIC>MOL_PROPERTY
U+W
SciTegic.value.DoubleValue
-49.315

@<SCITEGIC>MOL_PROPERTY
Grad RMS
SciTegic.value.DoubleValue
0.000000

@<SCITEGIC>MOL_PROPERTY
U
SciTegic.value.DoubleValue
9.740

@<SCITEGIC>MOL_PROPERTY
W
SciTegic.value.DoubleValue
-59.054

@<SCITEGIC>MOL_PROPERTY
W(PB)
SciTegic.value.DoubleValue
-61.488

@<SCITEGIC>MOL_PROPERTY
W(SA)
SciTegic.value.DoubleValue
2.433

@<SCITEGIC>MOL_PROPERTY
Valence
SciTegic.value.DoubleValue
10.506

@<SCITEGIC>MOL_PROPERTY
Coulomb
SciTegic.value.DoubleValue
-1.761

@<SCITEGIC>MOL_PROPERTY
VdW
SciTegic.value.DoubleValue
0.994

@<SCITEGIC>MOL_PROPERTY
VdW6
SciTegic.value.DoubleValue
-9.209

@<SCITEGIC>MOL_PROPERTY
VdW12
SciTegic.value.DoubleValue
10.203

@<SCITEGIC>MOL_PROPERTY
Bond
SciTegic.value.DoubleValue
0.193

@<SCITEGIC>MOL_PROPERTY
Angle
SciTegic.value.DoubleValue
2.979

@<SCITEGIC>MOL_PROPERTY
Pdih
SciTegic.value.DoubleValue
7.334

@<SCITEGIC>MOL_PROPERTY
Idih
SciTegic.value.DoubleValue
0.001

@<SCITEGIC>MOL_PROPERTY
Tether
SciTegic.value.DoubleValue
0.000

@<TRIPOS>MOLECULE
guest-8_confgen4.mol2 : confsearch ligand conformer 408
          25          24           1
SMALL
USER_CHARGES
 
@<TRIPOS>ATOM
       1    C1      18.916991   16.512435   26.197023 C.2        1 MOL1         0.6168
       2    O1      18.090398   17.111577   26.856163 O.co2      1 MOL1        -0.6703
       3    O2      19.354590   15.419506   26.498279 O.co2      1 MOL1        -0.6703
       4    C2      19.452655   17.179202   24.935078 C.3        1 MOL1        -0.1963
       5    H1      18.640852   17.775357   24.503461 H          1 MOL1         0.0750
       6    H2      19.698556   16.391846   24.212611 H          1 MOL1         0.0750
       7    C3      20.696968   18.064186   25.206614 C.3        1 MOL1        -0.1860
       8    H3      20.426123   18.876697   25.894943 H          1 MOL1         0.0752
       9    H4      21.453886   17.458761   25.724283 H          1 MOL1         0.0752
      10    C4      21.327852   18.654693   23.923088 C.3        1 MOL1        -0.1858
      11    H5      21.606309   17.839528   23.241223 H          1 MOL1         0.0752
      12    H6      22.262145   19.163560   24.197063 H          1 MOL1         0.0752
      13    C5      20.405788   19.655588   23.188785 C.3        1 MOL1        -0.1858
      14    H7      19.498856   19.139816   22.851026 H          1 MOL1         0.0752
      15    H8      20.088958   20.442566   23.886530 H          1 MOL1         0.0752
      16    C6      21.115344   20.297872   21.974205 C.3        1 MOL1        -0.1858
      17    H9      21.391814   19.517444   21.252136 H          1 MOL1         0.0752
      18    H10     22.054780   20.757523   22.310397 H          1 MOL1         0.0752
      19    C7      20.266123   21.379651   21.266818 C.3        1 MOL1        -0.1834
      20    H11     19.992310   22.164806   21.985055 H          1 MOL1         0.0752
      21    H12     20.882990   21.864473   20.497630 H          1 MOL1         0.0752
      22    C8      18.991492   20.818052   20.600104 C.3        1 MOL1        -0.2849
      23    H13     18.288209   20.426780   21.345748 H          1 MOL1         0.0764
      24    H14     18.474054   21.605632   20.037192 H          1 MOL1         0.0764
      25    H15     19.237910   20.008860   19.900395 H          1 MOL1         0.0764
@<TRIPOS>BOND
    1     1     2    1
    2     1     3    2
    3     1     4    1
    4     4     5    1
    5     4     6    1
    6     4     7    1
    7     7     8    1
    8     7     9    1
    9     7    10    1
   10    10    11    1
   11    10    12    1
   12    10    13    1
   13    13    14    1
   14    13    15    1
   15    13    16    1
   16    16    17    1
   17    16    18    1
   18    16    19    1
   19    19    20    1
   20    19    21    1
   21    19    22    1
   22    22    23    1
   23    22    24    1
   24    22    25    1
@<TRIPOS>SUBSTRUCTURE
       1 MOL1            1 RESIDUE      1      MOL     
@<SCITEGIC>MOL_PROPERTY
VConf Rank
SciTegic.value.IntegerValue
408

@<SCITEGIC>MOL_PROPERTY
Conf_Id
SciTegic.value.IntegerValue
4

@<SCITEGIC>MOL_PROPERTY
Delta U+W
SciTegic.value.DoubleValue
0.189

@<SCITEGIC>MOL_PROPERTY
U+W
SciTegic.value.DoubleValue
-51.441

@<SCITEGIC>MOL_PROPERTY
Grad RMS
SciTegic.value.DoubleValue
0.000000

@<SCITEGIC>MOL_PROPERTY
U
SciTegic.value.DoubleValue
7.701

@<SCITEGIC>MOL_PROPERTY
W
SciTegic.value.DoubleValue
-59.141

@<SCITEGIC>MOL_PROPERTY
W(PB)
SciTegic.value.DoubleValue
-61.609

@<SCITEGIC>MOL_PROPERTY
W(SA)
SciTegic.value.DoubleValue
2.467

@<SCITEGIC>MOL_PROPERTY
Valence
SciTegic.value.DoubleValue
8.550

@<SCITEGIC>MOL_PROPERTY
Coulomb
SciTegic.value.DoubleValue
-1.988

@<SCITEGIC>MOL_PROPERTY
VdW
SciTegic.value.DoubleValue
1.139

@<SCITEGIC>MOL_PROPERTY
VdW6
SciTegic.value.DoubleValue
-8.988

@<SCITEGIC>MOL_PROPERTY
VdW12
SciTegic.value.DoubleValue
10.127

@<SCITEGIC>MOL_PROPERTY
Bond
SciTegic.value.DoubleValue
0.191

@<SCITEGIC>MOL_PROPERTY
Angle
SciTegic.value.DoubleValue
2.738

@<SCITEGIC>MOL_PROPERTY
Pdih
SciTegic.value.DoubleValue
5.621

@<SCITEGIC>MOL_PROPERTY
Idih
SciTegic.value.DoubleValue
0.001

@<SCITEGIC>MOL_PROPERTY
Tether
SciTegic.value.DoubleValue
0.000

@<TRIPOS>MOLECULE
guest-8_confgen4.mol2 : confsearch ligand conformer 409
          25          24           1
SMALL
USER_CHARGES
 
@<TRIPOS>ATOM
       1    C1      19.763344   22.603396   25.565607 C.2        1 MOL1         0.6168
       2    O1      19.532193   23.499775   24.778353 O.co2      1 MOL1        -0.6703
       3    O2      19.747120   22.746445   26.772261 O.co2      1 MOL1        -0.6703
       4    C2      20.067462   21.217004   25.009325 C.3        1 MOL1        -0.1963
       5    H1      20.756851   20.717086   25.700108 H          1 MOL1         0.0750
       6    H2      20.596939   21.348526   24.059021 H          1 MOL1         0.0750
       7    C3      18.791808   20.357638   24.810734 C.3        1 MOL1        -0.1860
       8    H3      18.237305   20.325564   25.758861 H          1 MOL1         0.0752
       9    H4      18.130626   20.845619   24.081322 H          1 MOL1         0.0752
      10    C4      19.087242   18.907144   24.360246 C.3        1 MOL1        -0.1858
      11    H5      18.143929   18.344052   24.359826 H          1 MOL1         0.0752
      12    H6      19.740353   18.418889   25.096469 H          1 MOL1         0.0752
      13    C5      19.727904   18.817630   22.955705 C.3        1 MOL1        -0.1858
      14    H7      19.097537   19.349515   22.230240 H          1 MOL1         0.0752
      15    H8      20.703164   19.319049   22.964186 H          1 MOL1         0.0752
      16    C6      19.907733   17.349566   22.504429 C.3        1 MOL1        -0.1858
      17    H9      18.937716   16.836840   22.559414 H          1 MOL1         0.0752
      18    H10     20.575771   16.827147   23.202778 H          1 MOL1         0.0752
      19    C7      20.454297   17.211123   21.064318 C.3        1 MOL1        -0.1834
      20    H11     20.438855   16.149311   20.782283 H          1 MOL1         0.0752
      21    H12     19.785568   17.728178   20.362347 H          1 MOL1         0.0752
      22    C8      21.893246   17.747357   20.901633 C.3        1 MOL1        -0.2849
      23    H13     22.574692   17.267126   21.615860 H          1 MOL1         0.0764
      24    H14     22.266384   17.544015   19.889549 H          1 MOL1         0.0764
      25    H15     21.937024   18.832190   21.059453 H          1 MOL1         0.0764
@<TRIPOS>BOND
    1     1     2    1
    2     1     3    2
    3     1     4    1
    4     4     5    1
    5     4     6    1
    6     4     7    1
    7     7     8    1
    8     7     9    1
    9     7    10    1
   10    10    11    1
   11    10    12    1
   12    10    13    1
   13    13    14    1
   14    13    15    1
   15    13    16    1
   16    16    17    1
   17    16    18    1
   18    16    19    1
   19    19    20    1
   20    19    21    1
   21    19    22    1
   22    22    23    1
   23    22    24    1
   24    22    25    1
@<TRIPOS>SUBSTRUCTURE
       1 MOL1            1 RESIDUE      1      MOL     
@<SCITEGIC>MOL_PROPERTY
VConf Rank
SciTegic.value.IntegerValue
409

@<SCITEGIC>MOL_PROPERTY
Conf_Id
SciTegic.value.IntegerValue
17

@<SCITEGIC>MOL_PROPERTY
Delta U+W
SciTegic.value.DoubleValue
0.219

@<SCITEGIC>MOL_PROPERTY
U+W
SciTegic.value.DoubleValue
-51.411

@<SCITEGIC>MOL_PROPERTY
Grad RMS
SciTegic.value.DoubleValue
0.000000

@<SCITEGIC>MOL_PROPERTY
U
SciTegic.value.DoubleValue
7.701

@<SCITEGIC>MOL_PROPERTY
W
SciTegic.value.DoubleValue
-59.111

@<SCITEGIC>MOL_PROPERTY
W(PB)
SciTegic.value.DoubleValue
-61.599

@<SCITEGIC>MOL_PROPERTY
W(SA)
SciTegic.value.DoubleValue
2.488

@<SCITEGIC>MOL_PROPERTY
Valence
SciTegic.value.DoubleValue
8.550

@<SCITEGIC>MOL_PROPERTY
Coulomb
SciTegic.value.DoubleValue
-1.988

@<SCITEGIC>MOL_PROPERTY
VdW
SciTegic.value.DoubleValue
1.139

@<SCITEGIC>MOL_PROPERTY
VdW6
SciTegic.value.DoubleValue
-8.988

@<SCITEGIC>MOL_PROPERTY
VdW12
SciTegic.value.DoubleValue
10.127

@<SCITEGIC>MOL_PROPERTY
Bond
SciTegic.value.DoubleValue
0.191

@<SCITEGIC>MOL_PROPERTY
Angle
SciTegic.value.DoubleValue
2.738

@<SCITEGIC>MOL_PROPERTY
Pdih
SciTegic.value.DoubleValue
5.621

@<SCITEGIC>MOL_PROPERTY
Idih
SciTegic.value.DoubleValue
0.001

@<SCITEGIC>MOL_PROPERTY
Tether
SciTegic.value.DoubleValue
0.000

@<TRIPOS>MOLECULE
guest-8_confgen4.mol2 : confsearch ligand conformer 410
          25          24           1
SMALL
USER_CHARGES
 
@<TRIPOS>ATOM
       1    C1      23.516664   17.965047   23.301474 C.2        1 MOL1         0.6168
       2    O1      24.256249   18.747282   22.737395 O.co2      1 MOL1        -0.6703
       3    O2      23.266335   16.852785   22.880424 O.co2      1 MOL1        -0.6703
       4    C2      22.881482   18.393752   24.621204 C.3        1 MOL1        -0.1963
       5    H1      23.461819   19.227589   25.034361 H          1 MOL1         0.0750
       6    H2      22.984683   17.557246   25.322340 H          1 MOL1         0.0750
       7    C3      21.386429   18.787808   24.501059 C.3        1 MOL1        -0.1860
       8    H3      20.830651   17.945610   24.068069 H          1 MOL1         0.0752
       9    H4      20.979176   18.953810   25.507465 H          1 MOL1         0.0752
      10    C4      21.176901   20.062118   23.648425 C.3        1 MOL1        -0.1858
      11    H5      21.516890   19.882538   22.619114 H          1 MOL1         0.0752
      12    H6      21.810154   20.866437   24.047058 H          1 MOL1         0.0752
      13    C5      19.710673   20.555553   23.627991 C.3        1 MOL1        -0.1858
      14    H7      19.371321   20.744240   24.655652 H          1 MOL1         0.0752
      15    H8      19.676493   21.522197   23.107135 H          1 MOL1         0.0752
      16    C6      18.740375   19.574489   22.930089 C.3        1 MOL1        -0.1858
      17    H9      18.704579   18.626410   23.482171 H          1 MOL1         0.0752
      18    H10     19.112353   19.345162   21.922153 H          1 MOL1         0.0752
      19    C7      17.313950   20.155532   22.832877 C.3        1 MOL1        -0.1834
      20    H11     16.939601   20.387748   23.839553 H          1 MOL1         0.0752
      21    H12     17.336009   21.101518   22.274265 H          1 MOL1         0.0752
      22    C8      16.346756   19.174582   22.140060 C.3        1 MOL1        -0.2849
      23    H13     16.280261   18.230114   22.695884 H          1 MOL1         0.0764
      24    H14     15.338197   19.603722   22.079200 H          1 MOL1         0.0764
      25    H15     16.681204   18.948646   21.119042 H          1 MOL1         0.0764
@<TRIPOS>BOND
    1     1     2    1
    2     1     3    2
    3     1     4    1
    4     4     5    1
    5     4     6    1
    6     4     7    1
    7     7     8    1
    8     7     9    1
    9     7    10    1
   10    10    11    1
   11    10    12    1
   12    10    13    1
   13    13    14    1
   14    13    15    1
   15    13    16    1
   16    16    17    1
   17    16    18    1
   18    16    19    1
   19    19    20    1
   20    19    21    1
   21    19    22    1
   22    22    23    1
   23    22    24    1
   24    22    25    1
@<TRIPOS>SUBSTRUCTURE
       1 MOL1            1 RESIDUE      1      MOL     
@<SCITEGIC>MOL_PROPERTY
VConf Rank
SciTegic.value.IntegerValue
410

@<SCITEGIC>MOL_PROPERTY
Conf_Id
SciTegic.value.IntegerValue
142

@<SCITEGIC>MOL_PROPERTY
Delta U+W
SciTegic.value.DoubleValue
0.593

@<SCITEGIC>MOL_PROPERTY
U+W
SciTegic.value.DoubleValue
-51.037

@<SCITEGIC>MOL_PROPERTY
Grad RMS
SciTegic.value.DoubleValue
0.000000

@<SCITEGIC>MOL_PROPERTY
U
SciTegic.value.DoubleValue
8.903

@<SCITEGIC>MOL_PROPERTY
W
SciTegic.value.DoubleValue
-59.940

@<SCITEGIC>MOL_PROPERTY
W(PB)
SciTegic.value.DoubleValue
-62.418

@<SCITEGIC>MOL_PROPERTY
W(SA)
SciTegic.value.DoubleValue
2.478

@<SCITEGIC>MOL_PROPERTY
Valence
SciTegic.value.DoubleValue
8.305

@<SCITEGIC>MOL_PROPERTY
Coulomb
SciTegic.value.DoubleValue
-0.223

@<SCITEGIC>MOL_PROPERTY
VdW
SciTegic.value.DoubleValue
0.821

@<SCITEGIC>MOL_PROPERTY
VdW6
SciTegic.value.DoubleValue
-9.236

@<SCITEGIC>MOL_PROPERTY
VdW12
SciTegic.value.DoubleValue
10.057

@<SCITEGIC>MOL_PROPERTY
Bond
SciTegic.value.DoubleValue
0.173

@<SCITEGIC>MOL_PROPERTY
Angle
SciTegic.value.DoubleValue
2.663

@<SCITEGIC>MOL_PROPERTY
Pdih
SciTegic.value.DoubleValue
5.469

@<SCITEGIC>MOL_PROPERTY
Idih
SciTegic.value.DoubleValue
0.001

@<SCITEGIC>MOL_PROPERTY
Tether
SciTegic.value.DoubleValue
0.000

@<TRIPOS>MOLECULE
guest-8_confgen4.mol2 : confsearch ligand conformer 411
          25          24           1
SMALL
USER_CHARGES
 
@<TRIPOS>ATOM
       1    C1      22.363366   16.803674   24.928546 C.2        1 MOL1         0.6168
       2    O1      23.385996   16.194310   24.682658 O.co2      1 MOL1        -0.6703
       3    O2      22.126512   17.311488   26.007009 O.co2      1 MOL1        -0.6703
       4    C2      21.309555   16.911567   23.830011 C.3        1 MOL1        -0.1963
       5    H1      20.363241   17.231532   24.281022 H          1 MOL1         0.0750
       6    H2      21.141294   15.901495   23.438909 H          1 MOL1         0.0750
       7    C3      21.705437   17.855972   22.662317 C.3        1 MOL1        -0.1860
       8    H3      22.618490   17.468001   22.190099 H          1 MOL1         0.0752
       9    H4      20.928131   17.819358   21.888171 H          1 MOL1         0.0752
      10    C4      21.952935   19.327493   23.084234 C.3        1 MOL1        -0.1858
      11    H5      22.231348   19.907504   22.193914 H          1 MOL1         0.0752
      12    H6      22.823579   19.365947   23.753252 H          1 MOL1         0.0752
      13    C5      20.759822   20.024977   23.784467 C.3        1 MOL1        -0.1858
      14    H7      20.539868   19.522802   24.736095 H          1 MOL1         0.0752
      15    H8      21.063033   21.048011   24.045229 H          1 MOL1         0.0752
      16    C6      19.482380   20.085484   22.915475 C.3        1 MOL1        -0.1858
      17    H9      19.124646   19.068876   22.706573 H          1 MOL1         0.0752
      18    H10     19.718208   20.548847   21.947821 H          1 MOL1         0.0752
      19    C7      18.357940   20.882865   23.609201 C.3        1 MOL1        -0.1834
      20    H11     18.122317   20.422461   24.578730 H          1 MOL1         0.0752
      21    H12     18.702072   21.905591   23.816511 H          1 MOL1         0.0752
      22    C8      17.082709   20.937126   22.744023 C.3        1 MOL1        -0.2849
      23    H13     16.697953   19.927734   22.547916 H          1 MOL1         0.0764
      24    H14     16.294382   21.507551   23.252148 H          1 MOL1         0.0764
      25    H15     17.283128   21.421094   21.779161 H          1 MOL1         0.0764
@<TRIPOS>BOND
    1     1     2    1
    2     1     3    2
    3     1     4    1
    4     4     5    1
    5     4     6    1
    6     4     7    1
    7     7     8    1
    8     7     9    1
    9     7    10    1
   10    10    11    1
   11    10    12    1
   12    10    13    1
   13    13    14    1
   14    13    15    1
   15    13    16    1
   16    16    17    1
   17    16    18    1
   18    16    19    1
   19    19    20    1
   20    19    21    1
   21    19    22    1
   22    22    23    1
   23    22    24    1
   24    22    25    1
@<TRIPOS>SUBSTRUCTURE
       1 MOL1            1 RESIDUE      1      MOL     
@<SCITEGIC>MOL_PROPERTY
VConf Rank
SciTegic.value.IntegerValue
411

@<SCITEGIC>MOL_PROPERTY
Conf_Id
SciTegic.value.IntegerValue
135

@<SCITEGIC>MOL_PROPERTY
Delta U+W
SciTegic.value.DoubleValue
1.314

@<SCITEGIC>MOL_PROPERTY
U+W
SciTegic.value.DoubleValue
-50.316

@<SCITEGIC>MOL_PROPERTY
Grad RMS
SciTegic.value.DoubleValue
0.000000

@<SCITEGIC>MOL_PROPERTY
U
SciTegic.value.DoubleValue
9.773

@<SCITEGIC>MOL_PROPERTY
W
SciTegic.value.DoubleValue
-60.088

@<SCITEGIC>MOL_PROPERTY
W(PB)
SciTegic.value.DoubleValue
-62.535

@<SCITEGIC>MOL_PROPERTY
W(SA)
SciTegic.value.DoubleValue
2.447

@<SCITEGIC>MOL_PROPERTY
Valence
SciTegic.value.DoubleValue
8.741

@<SCITEGIC>MOL_PROPERTY
Coulomb
SciTegic.value.DoubleValue
0.479

@<SCITEGIC>MOL_PROPERTY
VdW
SciTegic.value.DoubleValue
0.552

@<SCITEGIC>MOL_PROPERTY
VdW6
SciTegic.value.DoubleValue
-10.627

@<SCITEGIC>MOL_PROPERTY
VdW12
SciTegic.value.DoubleValue
11.179

@<SCITEGIC>MOL_PROPERTY
Bond
SciTegic.value.DoubleValue
0.227

@<SCITEGIC>MOL_PROPERTY
Angle
SciTegic.value.DoubleValue
3.155

@<SCITEGIC>MOL_PROPERTY
Pdih
SciTegic.value.DoubleValue
5.358

@<SCITEGIC>MOL_PROPERTY
Idih
SciTegic.value.DoubleValue
0.001

@<SCITEGIC>MOL_PROPERTY
Tether
SciTegic.value.DoubleValue
0.000

@<TRIPOS>MOLECULE
guest-8_confgen4.mol2 : confsearch ligand conformer 412
          25          24           1
SMALL
USER_CHARGES
 
@<TRIPOS>ATOM
       1    C1      20.573645   15.106826   24.139589 C.2        1 MOL1         0.6168
       2    O1      21.138694   14.484081   23.262293 O.co2      1 MOL1        -0.6703
       3    O2      20.485005   14.721108   25.288561 O.co2      1 MOL1        -0.6703
       4    C2      19.961773   16.457255   23.784436 C.3        1 MOL1        -0.1963
       5    H1      19.083117   16.610365   24.422298 H          1 MOL1         0.0750
       6    H2      19.606681   16.399080   22.749691 H          1 MOL1         0.0750
       7    C3      20.960156   17.631523   23.958085 C.3        1 MOL1        -0.1860
       8    H3      21.366825   17.597079   24.978321 H          1 MOL1         0.0752
       9    H4      21.813475   17.493084   23.279879 H          1 MOL1         0.0752
      10    C4      20.327342   19.024656   23.726441 C.3        1 MOL1        -0.1858
      11    H5      21.063773   19.782106   24.022968 H          1 MOL1         0.0752
      12    H6      19.459315   19.150991   24.387612 H          1 MOL1         0.0752
      13    C5      19.910276   19.276046   22.257658 C.3        1 MOL1        -0.1858
      14    H7      20.795176   19.206031   21.610630 H          1 MOL1         0.0752
      15    H8      19.225229   18.484390   21.929839 H          1 MOL1         0.0752
      16    C6      19.206816   20.636476   22.021349 C.3        1 MOL1        -0.1858
      17    H9      18.269659   20.679480   22.593010 H          1 MOL1         0.0752
      18    H10     18.912346   20.676258   20.963721 H          1 MOL1         0.0752
      19    C7      20.078630   21.880524   22.325462 C.3        1 MOL1        -0.1834
      20    H11     21.143711   21.638313   22.206421 H          1 MOL1         0.0752
      21    H12     19.857095   22.656120   21.579355 H          1 MOL1         0.0752
      22    C8      19.817748   22.477371   23.726526 C.3        1 MOL1        -0.2849
      23    H13     20.028501   21.755278   24.523572 H          1 MOL1         0.0764
      24    H14     20.452979   23.356758   23.893762 H          1 MOL1         0.0764
      25    H15     18.771745   22.795179   23.826312 H          1 MOL1         0.0764
@<TRIPOS>BOND
    1     1     2    1
    2     1     3    2
    3     1     4    1
    4     4     5    1
    5     4     6    1
    6     4     7    1
    7     7     8    1
    8     7     9    1
    9     7    10    1
   10    10    11    1
   11    10    12    1
   12    10    13    1
   13    13    14    1
   14    13    15    1
   15    13    16    1
   16    16    17    1
   17    16    18    1
   18    16    19    1
   19    19    20    1
   20    19    21    1
   21    19    22    1
   22    22    23    1
   23    22    24    1
   24    22    25    1
@<TRIPOS>SUBSTRUCTURE
       1 MOL1            1 RESIDUE      1      MOL     
@<SCITEGIC>MOL_PROPERTY
VConf Rank
SciTegic.value.IntegerValue
412

@<SCITEGIC>MOL_PROPERTY
Conf_Id
SciTegic.value.IntegerValue
19

@<SCITEGIC>MOL_PROPERTY
Delta U+W
SciTegic.value.DoubleValue
3.222

@<SCITEGIC>MOL_PROPERTY
U+W
SciTegic.value.DoubleValue
-48.407

@<SCITEGIC>MOL_PROPERTY
Grad RMS
SciTegic.value.DoubleValue
0.000000

@<SCITEGIC>MOL_PROPERTY
U
SciTegic.value.DoubleValue
10.617

@<SCITEGIC>MOL_PROPERTY
W
SciTegic.value.DoubleValue
-59.025

@<SCITEGIC>MOL_PROPERTY
W(PB)
SciTegic.value.DoubleValue
-61.462

@<SCITEGIC>MOL_PROPERTY
W(SA)
SciTegic.value.DoubleValue
2.437

@<SCITEGIC>MOL_PROPERTY
Valence
SciTegic.value.DoubleValue
11.188

@<SCITEGIC>MOL_PROPERTY
Coulomb
SciTegic.value.DoubleValue
-1.778

@<SCITEGIC>MOL_PROPERTY
VdW
SciTegic.value.DoubleValue
1.208

@<SCITEGIC>MOL_PROPERTY
VdW6
SciTegic.value.DoubleValue
-9.786

@<SCITEGIC>MOL_PROPERTY
VdW12
SciTegic.value.DoubleValue
10.993

@<SCITEGIC>MOL_PROPERTY
Bond
SciTegic.value.DoubleValue
0.241

@<SCITEGIC>MOL_PROPERTY
Angle
SciTegic.value.DoubleValue
3.294

@<SCITEGIC>MOL_PROPERTY
Pdih
SciTegic.value.DoubleValue
7.653

@<SCITEGIC>MOL_PROPERTY
Idih
SciTegic.value.DoubleValue
0.001

@<SCITEGIC>MOL_PROPERTY
Tether
SciTegic.value.DoubleValue
0.000

@<TRIPOS>MOLECULE
guest-8_confgen4.mol2 : confsearch ligand conformer 413
          25          24           1
SMALL
USER_CHARGES
 
@<TRIPOS>ATOM
       1    C1      16.726156   17.682354   21.229566 C.2        1 MOL1         0.6168
       2    O1      15.672528   17.939230   21.777859 O.co2      1 MOL1        -0.6703
       3    O2      16.861280   16.790262   20.415513 O.co2      1 MOL1        -0.6703
       4    C2      17.951606   18.509845   21.600666 C.3        1 MOL1        -0.1963
       5    H1      17.610408   19.526582   21.824277 H          1 MOL1         0.0750
       6    H2      18.600321   18.570453   20.718712 H          1 MOL1         0.0750
       7    C3      18.734400   17.915993   22.800834 C.3        1 MOL1        -0.1860
       8    H3      18.090666   17.904316   23.691201 H          1 MOL1         0.0752
       9    H4      18.973557   16.866908   22.577963 H          1 MOL1         0.0752
      10    C4      20.051141   18.665528   23.115994 C.3        1 MOL1        -0.1858
      11    H5      20.682260   18.697913   22.217540 H          1 MOL1         0.0752
      12    H6      20.598979   18.081984   23.866552 H          1 MOL1         0.0752
      13    C5      19.830845   20.099012   23.655494 C.3        1 MOL1        -0.1858
      14    H7      19.225459   20.671052   22.941522 H          1 MOL1         0.0752
      15    H8      19.248989   20.052613   24.586025 H          1 MOL1         0.0752
      16    C6      21.138999   20.891145   23.905955 C.3        1 MOL1        -0.1858
      17    H9      20.855710   21.901368   24.231635 H          1 MOL1         0.0752
      18    H10     21.684232   21.024854   22.961631 H          1 MOL1         0.0752
      19    C7      22.071698   20.282056   24.982656 C.3        1 MOL1        -0.1834
      20    H11     22.526483   21.100458   25.557712 H          1 MOL1         0.0752
      21    H12     21.488619   19.691051   25.702355 H          1 MOL1         0.0752
      22    C8      23.211734   19.427081   24.385494 C.3        1 MOL1        -0.2849
      23    H13     23.847352   20.031282   23.725182 H          1 MOL1         0.0764
      24    H14     23.846769   19.022049   25.183921 H          1 MOL1         0.0764
      25    H15     22.826455   18.582582   23.802828 H          1 MOL1         0.0764
@<TRIPOS>BOND
    1     1     2    1
    2     1     3    2
    3     1     4    1
    4     4     5    1
    5     4     6    1
    6     4     7    1
    7     7     8    1
    8     7     9    1
    9     7    10    1
   10    10    11    1
   11    10    12    1
   12    10    13    1
   13    13    14    1
   14    13    15    1
   15    13    16    1
   16    16    17    1
   17    16    18    1
   18    16    19    1
   19    19    20    1
   20    19    21    1
   21    19    22    1
   22    22    23    1
   23    22    24    1
   24    22    25    1
@<TRIPOS>SUBSTRUCTURE
       1 MOL1            1 RESIDUE      1      MOL     
@<SCITEGIC>MOL_PROPERTY
VConf Rank
SciTegic.value.IntegerValue
413

@<SCITEGIC>MOL_PROPERTY
Conf_Id
SciTegic.value.IntegerValue
20

@<SCITEGIC>MOL_PROPERTY
Delta U+W
SciTegic.value.DoubleValue
3.224

@<SCITEGIC>MOL_PROPERTY
U+W
SciTegic.value.DoubleValue
-48.406

@<SCITEGIC>MOL_PROPERTY
Grad RMS
SciTegic.value.DoubleValue
0.000000

@<SCITEGIC>MOL_PROPERTY
U
SciTegic.value.DoubleValue
10.617

@<SCITEGIC>MOL_PROPERTY
W
SciTegic.value.DoubleValue
-59.023

@<SCITEGIC>MOL_PROPERTY
W(PB)
SciTegic.value.DoubleValue
-61.467

@<SCITEGIC>MOL_PROPERTY
W(SA)
SciTegic.value.DoubleValue
2.444

@<SCITEGIC>MOL_PROPERTY
Valence
SciTegic.value.DoubleValue
11.188

@<SCITEGIC>MOL_PROPERTY
Coulomb
SciTegic.value.DoubleValue
-1.778

@<SCITEGIC>MOL_PROPERTY
VdW
SciTegic.value.DoubleValue
1.208

@<SCITEGIC>MOL_PROPERTY
VdW6
SciTegic.value.DoubleValue
-9.786

@<SCITEGIC>MOL_PROPERTY
VdW12
SciTegic.value.DoubleValue
10.993

@<SCITEGIC>MOL_PROPERTY
Bond
SciTegic.value.DoubleValue
0.241

@<SCITEGIC>MOL_PROPERTY
Angle
SciTegic.value.DoubleValue
3.294

@<SCITEGIC>MOL_PROPERTY
Pdih
SciTegic.value.DoubleValue
7.653

@<SCITEGIC>MOL_PROPERTY
Idih
SciTegic.value.DoubleValue
0.001

@<SCITEGIC>MOL_PROPERTY
Tether
SciTegic.value.DoubleValue
0.000

@<TRIPOS>MOLECULE
guest-8_confgen4.mol2 : confsearch ligand conformer 414
          25          24           1
SMALL
USER_CHARGES
 
@<TRIPOS>ATOM
       1    C1      17.098493   20.157726   24.869300 C.2        1 MOL1         0.6168
       2    O1      17.320933   20.343756   26.049790 O.co2      1 MOL1        -0.6703
       3    O2      16.553928   19.160167   24.438553 O.co2      1 MOL1        -0.6703
       4    C2      17.461881   21.263463   23.880015 C.3        1 MOL1        -0.1963
       5    H1      16.847556   22.130735   24.148180 H          1 MOL1         0.0750
       6    H2      17.150981   20.957790   22.873687 H          1 MOL1         0.0750
       7    C3      18.958311   21.685121   23.876649 C.3        1 MOL1        -0.1860
       8    H3      19.027391   22.686477   23.430619 H          1 MOL1         0.0752
       9    H4      19.320537   21.788824   24.908943 H          1 MOL1         0.0752
      10    C4      19.895837   20.746904   23.076725 C.3        1 MOL1        -0.1858
      11    H5      20.885029   21.221252   23.017771 H          1 MOL1         0.0752
      12    H6      19.534766   20.656973   22.043103 H          1 MOL1         0.0752
      13    C5      20.056202   19.339553   23.695007 C.3        1 MOL1        -0.1858
      14    H7      20.316035   19.431264   24.758549 H          1 MOL1         0.0752
      15    H8      19.103065   18.798486   23.642278 H          1 MOL1         0.0752
      16    C6      21.140232   18.515717   22.966487 C.3        1 MOL1        -0.1858
      17    H9      22.101957   19.044103   23.019970 H          1 MOL1         0.0752
      18    H10     20.881198   18.429205   21.902321 H          1 MOL1         0.0752
      19    C7      21.293159   17.106215   23.575825 C.3        1 MOL1        -0.1834
      20    H11     21.553083   17.189286   24.640248 H          1 MOL1         0.0752
      21    H12     20.333280   16.573861   23.522564 H          1 MOL1         0.0752
      22    C8      22.375772   16.285785   22.846091 C.3        1 MOL1        -0.2849
      23    H13     23.353766   16.780454   22.910904 H          1 MOL1         0.0764
      24    H14     22.470790   15.287266   23.292179 H          1 MOL1         0.0764
      25    H15     22.124632   16.160341   21.784692 H          1 MOL1         0.0764
@<TRIPOS>BOND
    1     1     2    1
    2     1     3    2
    3     1     4    1
    4     4     5    1
    5     4     6    1
    6     4     7    1
    7     7     8    1
    8     7     9    1
    9     7    10    1
   10    10    11    1
   11    10    12    1
   12    10    13    1
   13    13    14    1
   14    13    15    1
   15    13    16    1
   16    16    17    1
   17    16    18    1
   18    16    19    1
   19    19    20    1
   20    19    21    1
   21    19    22    1
   22    22    23    1
   23    22    24    1
   24    22    25    1
@<TRIPOS>SUBSTRUCTURE
       1 MOL1            1 RESIDUE      1      MOL     
@<SCITEGIC>MOL_PROPERTY
VConf Rank
SciTegic.value.IntegerValue
414

@<SCITEGIC>MOL_PROPERTY
Conf_Id
SciTegic.value.IntegerValue
24

@<SCITEGIC>MOL_PROPERTY
Delta U+W
SciTegic.value.DoubleValue
1.784

@<SCITEGIC>MOL_PROPERTY
U+W
SciTegic.value.DoubleValue
-49.846

@<SCITEGIC>MOL_PROPERTY
Grad RMS
SciTegic.value.DoubleValue
0.000000

@<SCITEGIC>MOL_PROPERTY
U
SciTegic.value.DoubleValue
10.904

@<SCITEGIC>MOL_PROPERTY
W
SciTegic.value.DoubleValue
-60.749

@<SCITEGIC>MOL_PROPERTY
W(PB)
SciTegic.value.DoubleValue
-63.220

@<SCITEGIC>MOL_PROPERTY
W(SA)
SciTegic.value.DoubleValue
2.471

@<SCITEGIC>MOL_PROPERTY
Valence
SciTegic.value.DoubleValue
9.445

@<SCITEGIC>MOL_PROPERTY
Coulomb
SciTegic.value.DoubleValue
0.780

@<SCITEGIC>MOL_PROPERTY
VdW
SciTegic.value.DoubleValue
0.679

@<SCITEGIC>MOL_PROPERTY
VdW6
SciTegic.value.DoubleValue
-10.008

@<SCITEGIC>MOL_PROPERTY
VdW12
SciTegic.value.DoubleValue
10.687

@<SCITEGIC>MOL_PROPERTY
Bond
SciTegic.value.DoubleValue
0.201

@<SCITEGIC>MOL_PROPERTY
Angle
SciTegic.value.DoubleValue
3.198

@<SCITEGIC>MOL_PROPERTY
Pdih
SciTegic.value.DoubleValue
6.039

@<SCITEGIC>MOL_PROPERTY
Idih
SciTegic.value.DoubleValue
0.006

@<SCITEGIC>MOL_PROPERTY
Tether
SciTegic.value.DoubleValue
0.000

@<TRIPOS>MOLECULE
guest-8_confgen4.mol2 : confsearch ligand conformer 415
          25          24           1
SMALL
USER_CHARGES
 
@<TRIPOS>ATOM
       1    C1      17.475371   18.839671   21.818804 C.2        1 MOL1         0.6168
       2    O1      17.743809   18.152434   20.852736 O.co2      1 MOL1        -0.6703
       3    O2      16.844886   18.434523   22.775654 O.co2      1 MOL1        -0.6703
       4    C2      17.893748   20.308711   21.802256 C.3        1 MOL1        -0.1963
       5    H1      17.532707   20.792555   22.717860 H          1 MOL1         0.0750
       6    H2      17.354563   20.773120   20.968546 H          1 MOL1         0.0750
       7    C3      19.417136   20.562614   21.623585 C.3        1 MOL1        -0.1860
       8    H3      19.814794   19.912759   20.831656 H          1 MOL1         0.0752
       9    H4      19.549416   21.591993   21.263987 H          1 MOL1         0.0752
      10    C4      20.258255   20.402258   22.914279 C.3        1 MOL1        -0.1858
      11    H5      19.862958   21.063196   23.697692 H          1 MOL1         0.0752
      12    H6      21.278596   20.750372   22.702848 H          1 MOL1         0.0752
      13    C5      20.328320   18.952340   23.444804 C.3        1 MOL1        -0.1858
      14    H7      19.335771   18.631784   23.785534 H          1 MOL1         0.0752
      15    H8      20.623576   18.275659   22.631187 H          1 MOL1         0.0752
      16    C6      21.326207   18.820160   24.615839 C.3        1 MOL1        -0.1858
      17    H9      21.032153   19.501031   25.426380 H          1 MOL1         0.0752
      18    H10     22.326375   19.130689   24.283873 H          1 MOL1         0.0752
      19    C7      21.388405   17.375140   25.153816 C.3        1 MOL1        -0.1834
      20    H11     20.389798   17.061565   25.488571 H          1 MOL1         0.0752
      21    H12     21.682989   16.691557   24.345490 H          1 MOL1         0.0752
      22    C8      22.385210   17.246271   26.323192 C.3        1 MOL1        -0.2849
      23    H13     22.096269   17.896832   27.159049 H          1 MOL1         0.0764
      24    H14     22.416360   16.213125   26.692926 H          1 MOL1         0.0764
      25    H15     23.399337   17.523944   26.007253 H          1 MOL1         0.0764
@<TRIPOS>BOND
    1     1     2    1
    2     1     3    2
    3     1     4    1
    4     4     5    1
    5     4     6    1
    6     4     7    1
    7     7     8    1
    8     7     9    1
    9     7    10    1
   10    10    11    1
   11    10    12    1
   12    10    13    1
   13    13    14    1
   14    13    15    1
   15    13    16    1
   16    16    17    1
   17    16    18    1
   18    16    19    1
   19    19    20    1
   20    19    21    1
   21    19    22    1
   22    22    23    1
   23    22    24    1
   24    22    25    1
@<TRIPOS>SUBSTRUCTURE
       1 MOL1            1 RESIDUE      1      MOL     
@<SCITEGIC>MOL_PROPERTY
VConf Rank
SciTegic.value.IntegerValue
415

@<SCITEGIC>MOL_PROPERTY
Conf_Id
SciTegic.value.IntegerValue
9

@<SCITEGIC>MOL_PROPERTY
Delta U+W
SciTegic.value.DoubleValue
1.764

@<SCITEGIC>MOL_PROPERTY
U+W
SciTegic.value.DoubleValue
-49.865

@<SCITEGIC>MOL_PROPERTY
Grad RMS
SciTegic.value.DoubleValue
0.000000

@<SCITEGIC>MOL_PROPERTY
U
SciTegic.value.DoubleValue
10.902

@<SCITEGIC>MOL_PROPERTY
W
SciTegic.value.DoubleValue
-60.768

@<SCITEGIC>MOL_PROPERTY
W(PB)
SciTegic.value.DoubleValue
-63.223

@<SCITEGIC>MOL_PROPERTY
W(SA)
SciTegic.value.DoubleValue
2.456

@<SCITEGIC>MOL_PROPERTY
Valence
SciTegic.value.DoubleValue
9.445

@<SCITEGIC>MOL_PROPERTY
Coulomb
SciTegic.value.DoubleValue
0.778

@<SCITEGIC>MOL_PROPERTY
VdW
SciTegic.value.DoubleValue
0.679

@<SCITEGIC>MOL_PROPERTY
VdW6
SciTegic.value.DoubleValue
-10.007

@<SCITEGIC>MOL_PROPERTY
VdW12
SciTegic.value.DoubleValue
10.687

@<SCITEGIC>MOL_PROPERTY
Bond
SciTegic.value.DoubleValue
0.201

@<SCITEGIC>MOL_PROPERTY
Angle
SciTegic.value.DoubleValue
3.198

@<SCITEGIC>MOL_PROPERTY
Pdih
SciTegic.value.DoubleValue
6.040

@<SCITEGIC>MOL_PROPERTY
Idih
SciTegic.value.DoubleValue
0.006

@<SCITEGIC>MOL_PROPERTY
Tether
SciTegic.value.DoubleValue
0.000

@<TRIPOS>MOLECULE
guest-8_confgen4.mol2 : confsearch ligand conformer 416
          25          24           1
SMALL
USER_CHARGES
 
@<TRIPOS>ATOM
       1    C1      18.092588   22.071403   22.143346 C.2        1 MOL1         0.6168
       2    O1      17.827940   21.495851   21.106376 O.co2      1 MOL1        -0.6703
       3    O2      17.520753   23.074902   22.521292 O.co2      1 MOL1        -0.6703
       4    C2      19.188805   21.491166   23.029544 C.3        1 MOL1        -0.1963
       5    H1      19.689562   22.324340   23.536814 H          1 MOL1         0.0750
       6    H2      19.932054   21.021484   22.378051 H          1 MOL1         0.0750
       7    C3      18.643418   20.482653   24.075059 C.3        1 MOL1        -0.1860
       8    H3      17.910747   21.009561   24.701953 H          1 MOL1         0.0752
       9    H4      18.091154   19.677109   23.571552 H          1 MOL1         0.0752
      10    C4      19.742517   19.887829   24.991823 C.3        1 MOL1        -0.1858
      11    H5      19.311745   19.744814   25.992273 H          1 MOL1         0.0752
      12    H6      20.562609   20.607371   25.120461 H          1 MOL1         0.0752
      13    C5      20.301569   18.519631   24.526791 C.3        1 MOL1        -0.1858
      14    H7      21.004836   18.157481   25.288902 H          1 MOL1         0.0752
      15    H8      19.481153   17.790847   24.491891 H          1 MOL1         0.0752
      16    C6      21.021787   18.559678   23.158268 C.3        1 MOL1        -0.1858
      17    H9      21.735576   19.394460   23.151931 H          1 MOL1         0.0752
      18    H10     20.293238   18.757026   22.361075 H          1 MOL1         0.0752
      19    C7      21.785416   17.255459   22.830523 C.3        1 MOL1        -0.1834
      20    H11     22.346071   17.399940   21.896738 H          1 MOL1         0.0752
      21    H12     22.531162   17.055383   23.612230 H          1 MOL1         0.0752
      22    C8      20.858897   16.030518   22.671115 C.3        1 MOL1        -0.2849
      23    H13     20.088527   16.217141   21.911611 H          1 MOL1         0.0764
      24    H14     21.435787   15.150501   22.358677 H          1 MOL1         0.0764
      25    H15     20.358443   15.782060   23.615407 H          1 MOL1         0.0764
@<TRIPOS>BOND
    1     1     2    1
    2     1     3    2
    3     1     4    1
    4     4     5    1
    5     4     6    1
    6     4     7    1
    7     7     8    1
    8     7     9    1
    9     7    10    1
   10    10    11    1
   11    10    12    1
   12    10    13    1
   13    13    14    1
   14    13    15    1
   15    13    16    1
   16    16    17    1
   17    16    18    1
   18    16    19    1
   19    19    20    1
   20    19    21    1
   21    19    22    1
   22    22    23    1
   23    22    24    1
   24    22    25    1
@<TRIPOS>SUBSTRUCTURE
       1 MOL1            1 RESIDUE      1      MOL     
@<SCITEGIC>MOL_PROPERTY
VConf Rank
SciTegic.value.IntegerValue
416

@<SCITEGIC>MOL_PROPERTY
Conf_Id
SciTegic.value.IntegerValue
89

@<SCITEGIC>MOL_PROPERTY
Delta U+W
SciTegic.value.DoubleValue
2.903

@<SCITEGIC>MOL_PROPERTY
U+W
SciTegic.value.DoubleValue
-48.726

@<SCITEGIC>MOL_PROPERTY
Grad RMS
SciTegic.value.DoubleValue
0.000000

@<SCITEGIC>MOL_PROPERTY
U
SciTegic.value.DoubleValue
10.996

@<SCITEGIC>MOL_PROPERTY
W
SciTegic.value.DoubleValue
-59.723

@<SCITEGIC>MOL_PROPERTY
W(PB)
SciTegic.value.DoubleValue
-62.151

@<SCITEGIC>MOL_PROPERTY
W(SA)
SciTegic.value.DoubleValue
2.428

@<SCITEGIC>MOL_PROPERTY
Valence
SciTegic.value.DoubleValue
10.985

@<SCITEGIC>MOL_PROPERTY
Coulomb
SciTegic.value.DoubleValue
-0.995

@<SCITEGIC>MOL_PROPERTY
VdW
SciTegic.value.DoubleValue
1.006

@<SCITEGIC>MOL_PROPERTY
VdW6
SciTegic.value.DoubleValue
-10.062

@<SCITEGIC>MOL_PROPERTY
VdW12
SciTegic.value.DoubleValue
11.069

@<SCITEGIC>MOL_PROPERTY
Bond
SciTegic.value.DoubleValue
0.238

@<SCITEGIC>MOL_PROPERTY
Angle
SciTegic.value.DoubleValue
3.202

@<SCITEGIC>MOL_PROPERTY
Pdih
SciTegic.value.DoubleValue
7.544

@<SCITEGIC>MOL_PROPERTY
Idih
SciTegic.value.DoubleValue
0.001

@<SCITEGIC>MOL_PROPERTY
Tether
SciTegic.value.DoubleValue
0.000

@<TRIPOS>MOLECULE
guest-8_confgen4.mol2 : confsearch ligand conformer 417
          25          24           1
SMALL
USER_CHARGES
 
@<TRIPOS>ATOM
       1    C1      19.423355   19.058963   26.883764 C.2        1 MOL1         0.6168
       2    O1      19.749700   17.918441   27.148279 O.co2      1 MOL1        -0.6703
       3    O2      19.996459   20.038461   27.319359 O.co2      1 MOL1        -0.6703
       4    C2      18.188493   19.270029   26.009798 C.3        1 MOL1        -0.1963
       5    H1      17.447330   19.772954   26.641637 H          1 MOL1         0.0750
       6    H2      17.765450   18.292760   25.747592 H          1 MOL1         0.0750
       7    C3      18.419372   20.119291   24.727992 C.3        1 MOL1        -0.1860
       8    H3      17.447426   20.518484   24.407977 H          1 MOL1         0.0752
       9    H4      19.041361   20.993904   24.964120 H          1 MOL1         0.0752
      10    C4      19.025543   19.343701   23.531768 C.3        1 MOL1        -0.1858
      11    H5      18.978062   19.998737   22.653024 H          1 MOL1         0.0752
      12    H6      18.398757   18.471600   23.301263 H          1 MOL1         0.0752
      13    C5      20.488694   18.888792   23.752286 C.3        1 MOL1        -0.1858
      14    H7      21.107644   19.748559   24.042924 H          1 MOL1         0.0752
      15    H8      20.524716   18.181365   24.589595 H          1 MOL1         0.0752
      16    C6      21.111810   18.191544   22.519019 C.3        1 MOL1        -0.1858
      17    H9      20.474717   17.351813   22.209518 H          1 MOL1         0.0752
      18    H10     22.074822   17.755849   22.818483 H          1 MOL1         0.0752
      19    C7      21.345872   19.140482   21.321450 C.3        1 MOL1        -0.1834
      20    H11     20.388201   19.526360   20.949032 H          1 MOL1         0.0752
      21    H12     21.936745   20.007980   21.646264 H          1 MOL1         0.0752
      22    C8      22.078693   18.425075   20.168514 C.3        1 MOL1        -0.2849
      23    H13     21.496551   17.567881   19.805613 H          1 MOL1         0.0764
      24    H14     22.234743   19.110281   19.325192 H          1 MOL1         0.0764
      25    H15     23.061378   18.059285   20.493891 H          1 MOL1         0.0764
@<TRIPOS>BOND
    1     1     2    1
    2     1     3    2
    3     1     4    1
    4     4     5    1
    5     4     6    1
    6     4     7    1
    7     7     8    1
    8     7     9    1
    9     7    10    1
   10    10    11    1
   11    10    12    1
   12    10    13    1
   13    13    14    1
   14    13    15    1
   15    13    16    1
   16    16    17    1
   17    16    18    1
   18    16    19    1
   19    19    20    1
   20    19    21    1
   21    19    22    1
   22    22    23    1
   23    22    24    1
   24    22    25    1
@<TRIPOS>SUBSTRUCTURE
       1 MOL1            1 RESIDUE      1      MOL     
@<SCITEGIC>MOL_PROPERTY
VConf Rank
SciTegic.value.IntegerValue
417

@<SCITEGIC>MOL_PROPERTY
Conf_Id
SciTegic.value.IntegerValue
114

@<SCITEGIC>MOL_PROPERTY
Delta U+W
SciTegic.value.DoubleValue
2.758

@<SCITEGIC>MOL_PROPERTY
U+W
SciTegic.value.DoubleValue
-48.871

@<SCITEGIC>MOL_PROPERTY
Grad RMS
SciTegic.value.DoubleValue
0.000000

@<SCITEGIC>MOL_PROPERTY
U
SciTegic.value.DoubleValue
11.422

@<SCITEGIC>MOL_PROPERTY
W
SciTegic.value.DoubleValue
-60.293

@<SCITEGIC>MOL_PROPERTY
W(PB)
SciTegic.value.DoubleValue
-62.719

@<SCITEGIC>MOL_PROPERTY
W(SA)
SciTegic.value.DoubleValue
2.425

@<SCITEGIC>MOL_PROPERTY
Valence
SciTegic.value.DoubleValue
10.135

@<SCITEGIC>MOL_PROPERTY
Coulomb
SciTegic.value.DoubleValue
0.369

@<SCITEGIC>MOL_PROPERTY
VdW
SciTegic.value.DoubleValue
0.918

@<SCITEGIC>MOL_PROPERTY
VdW6
SciTegic.value.DoubleValue
-10.482

@<SCITEGIC>MOL_PROPERTY
VdW12
SciTegic.value.DoubleValue
11.400

@<SCITEGIC>MOL_PROPERTY
Bond
SciTegic.value.DoubleValue
0.245

@<SCITEGIC>MOL_PROPERTY
Angle
SciTegic.value.DoubleValue
3.539

@<SCITEGIC>MOL_PROPERTY
Pdih
SciTegic.value.DoubleValue
6.346

@<SCITEGIC>MOL_PROPERTY
Idih
SciTegic.value.DoubleValue
0.006

@<SCITEGIC>MOL_PROPERTY
Tether
SciTegic.value.DoubleValue
0.000

@<TRIPOS>MOLECULE
guest-8_confgen4.mol2 : confsearch ligand conformer 418
          25          24           1
SMALL
USER_CHARGES
 
@<TRIPOS>ATOM
       1    C1      22.939841   21.414055   22.075091 C.2        1 MOL1         0.6168
       2    O1      23.955486   21.088874   22.658004 O.co2      1 MOL1        -0.6703
       3    O2      22.806747   21.350301   20.868726 O.co2      1 MOL1        -0.6703
       4    C2      21.773509   21.951710   22.899437 C.3        1 MOL1        -0.1963
       5    H1      21.395603   22.845709   22.389604 H          1 MOL1         0.0750
       6    H2      22.155422   22.279650   23.873794 H          1 MOL1         0.0750
       7    C3      20.617100   20.936197   23.090301 C.3        1 MOL1        -0.1860
       8    H3      19.773626   21.443646   23.577432 H          1 MOL1         0.0752
       9    H4      20.264858   20.610225   22.102883 H          1 MOL1         0.0752
      10    C4      21.037946   19.713382   23.940516 C.3        1 MOL1        -0.1858
      11    H5      21.473459   20.069500   24.884100 H          1 MOL1         0.0752
      12    H6      21.831948   19.155276   23.425366 H          1 MOL1         0.0752
      13    C5      19.867302   18.757059   24.271761 C.3        1 MOL1        -0.1858
      14    H7      20.231495   18.012538   24.990954 H          1 MOL1         0.0752
      15    H8      19.068215   19.314852   24.778566 H          1 MOL1         0.0752
      16    C6      19.292753   18.032694   23.029292 C.3        1 MOL1        -0.1858
      17    H9      20.093057   17.478002   22.520850 H          1 MOL1         0.0752
      18    H10     18.924068   18.775863   22.311076 H          1 MOL1         0.0752
      19    C7      18.127843   17.071254   23.362541 C.3        1 MOL1        -0.1834
      20    H11     17.330239   17.620436   23.881689 H          1 MOL1         0.0752
      21    H12     17.692077   16.708151   22.421529 H          1 MOL1         0.0752
      22    C8      18.558744   15.854282   24.210014 C.3        1 MOL1        -0.2849
      23    H13     17.719420   15.158103   24.335608 H          1 MOL1         0.0764
      24    H14     19.379849   15.309438   23.726233 H          1 MOL1         0.0764
      25    H15     18.889205   16.158323   25.210895 H          1 MOL1         0.0764
@<TRIPOS>BOND
    1     1     2    1
    2     1     3    2
    3     1     4    1
    4     4     5    1
    5     4     6    1
    6     4     7    1
    7     7     8    1
    8     7     9    1
    9     7    10    1
   10    10    11    1
   11    10    12    1
   12    10    13    1
   13    13    14    1
   14    13    15    1
   15    13    16    1
   16    16    17    1
   17    16    18    1
   18    16    19    1
   19    19    20    1
   20    19    21    1
   21    19    22    1
   22    22    23    1
   23    22    24    1
   24    22    25    1
@<TRIPOS>SUBSTRUCTURE
       1 MOL1            1 RESIDUE      1      MOL     
@<SCITEGIC>MOL_PROPERTY
VConf Rank
SciTegic.value.IntegerValue
418

@<SCITEGIC>MOL_PROPERTY
Conf_Id
SciTegic.value.IntegerValue
87

@<SCITEGIC>MOL_PROPERTY
Delta U+W
SciTegic.value.DoubleValue
1.453

@<SCITEGIC>MOL_PROPERTY
U+W
SciTegic.value.DoubleValue
-50.176

@<SCITEGIC>MOL_PROPERTY
Grad RMS
SciTegic.value.DoubleValue
0.000000

@<SCITEGIC>MOL_PROPERTY
U
SciTegic.value.DoubleValue
9.763

@<SCITEGIC>MOL_PROPERTY
W
SciTegic.value.DoubleValue
-59.940

@<SCITEGIC>MOL_PROPERTY
W(PB)
SciTegic.value.DoubleValue
-62.392

@<SCITEGIC>MOL_PROPERTY
W(SA)
SciTegic.value.DoubleValue
2.452

@<SCITEGIC>MOL_PROPERTY
Valence
SciTegic.value.DoubleValue
8.883

@<SCITEGIC>MOL_PROPERTY
Coulomb
SciTegic.value.DoubleValue
-0.122

@<SCITEGIC>MOL_PROPERTY
VdW
SciTegic.value.DoubleValue
1.003

@<SCITEGIC>MOL_PROPERTY
VdW6
SciTegic.value.DoubleValue
-9.782

@<SCITEGIC>MOL_PROPERTY
VdW12
SciTegic.value.DoubleValue
10.785

@<SCITEGIC>MOL_PROPERTY
Bond
SciTegic.value.DoubleValue
0.212

@<SCITEGIC>MOL_PROPERTY
Angle
SciTegic.value.DoubleValue
2.940

@<SCITEGIC>MOL_PROPERTY
Pdih
SciTegic.value.DoubleValue
5.730

@<SCITEGIC>MOL_PROPERTY
Idih
SciTegic.value.DoubleValue
0.001

@<SCITEGIC>MOL_PROPERTY
Tether
SciTegic.value.DoubleValue
0.000

@<TRIPOS>MOLECULE
guest-8_confgen4.mol2 : confsearch ligand conformer 419
          25          24           1
SMALL
USER_CHARGES
 
@<TRIPOS>ATOM
       1    C1      21.326279   15.641174   24.798005 C.2        1 MOL1         0.6168
       2    O1      22.328808   15.441668   24.140876 O.co2      1 MOL1        -0.6703
       3    O2      21.192048   15.275818   25.949195 O.co2      1 MOL1        -0.6703
       4    C2      20.180352   16.408455   24.148162 C.3        1 MOL1        -0.1963
       5    H1      19.238544   16.030361   24.563523 H          1 MOL1         0.0750
       6    H2      20.179069   16.175924   23.076480 H          1 MOL1         0.0750
       7    C3      20.283734   17.938664   24.361986 C.3        1 MOL1        -0.1860
       8    H3      20.292479   18.155633   25.439014 H          1 MOL1         0.0752
       9    H4      21.241822   18.289891   23.956408 H          1 MOL1         0.0752
      10    C4      19.114345   18.692453   23.687479 C.3        1 MOL1        -0.1858
      11    H5      18.164556   18.279930   24.054010 H          1 MOL1         0.0752
      12    H6      19.128579   18.508487   22.605185 H          1 MOL1         0.0752
      13    C5      19.122703   20.216979   23.963324 C.3        1 MOL1        -0.1858
      14    H7      18.233016   20.665549   23.502216 H          1 MOL1         0.0752
      15    H8      19.012037   20.381916   25.043611 H          1 MOL1         0.0752
      16    C6      20.387187   20.972037   23.474664 C.3        1 MOL1        -0.1858
      17    H9      21.257082   20.637592   24.054918 H          1 MOL1         0.0752
      18    H10     20.268862   22.039065   23.706910 H          1 MOL1         0.0752
      19    C7      20.702723   20.822451   21.965959 C.3        1 MOL1        -0.1834
      20    H11     21.626082   21.375073   21.744775 H          1 MOL1         0.0752
      21    H12     20.912976   19.771641   21.726324 H          1 MOL1         0.0752
      22    C8      19.576149   21.350619   21.051678 C.3        1 MOL1        -0.2849
      23    H13     19.338262   22.396363   21.285696 H          1 MOL1         0.0764
      24    H14     19.880422   21.299882   19.998316 H          1 MOL1         0.0764
      25    H15     18.660892   20.755747   21.162933 H          1 MOL1         0.0764
@<TRIPOS>BOND
    1     1     2    1
    2     1     3    2
    3     1     4    1
    4     4     5    1
    5     4     6    1
    6     4     7    1
    7     7     8    1
    8     7     9    1
    9     7    10    1
   10    10    11    1
   11    10    12    1
   12    10    13    1
   13    13    14    1
   14    13    15    1
   15    13    16    1
   16    16    17    1
   17    16    18    1
   18    16    19    1
   19    19    20    1
   20    19    21    1
   21    19    22    1
   22    22    23    1
   23    22    24    1
   24    22    25    1
@<TRIPOS>SUBSTRUCTURE
       1 MOL1            1 RESIDUE      1      MOL     
@<SCITEGIC>MOL_PROPERTY
VConf Rank
SciTegic.value.IntegerValue
419

@<SCITEGIC>MOL_PROPERTY
Conf_Id
SciTegic.value.IntegerValue
29

@<SCITEGIC>MOL_PROPERTY
Delta U+W
SciTegic.value.DoubleValue
0.850

@<SCITEGIC>MOL_PROPERTY
U+W
SciTegic.value.DoubleValue
-50.780

@<SCITEGIC>MOL_PROPERTY
Grad RMS
SciTegic.value.DoubleValue
0.000000

@<SCITEGIC>MOL_PROPERTY
U
SciTegic.value.DoubleValue
8.646

@<SCITEGIC>MOL_PROPERTY
W
SciTegic.value.DoubleValue
-59.426

@<SCITEGIC>MOL_PROPERTY
W(PB)
SciTegic.value.DoubleValue
-61.868

@<SCITEGIC>MOL_PROPERTY
W(SA)
SciTegic.value.DoubleValue
2.442

@<SCITEGIC>MOL_PROPERTY
Valence
SciTegic.value.DoubleValue
8.924

@<SCITEGIC>MOL_PROPERTY
Coulomb
SciTegic.value.DoubleValue
-1.171

@<SCITEGIC>MOL_PROPERTY
VdW
SciTegic.value.DoubleValue
0.894

@<SCITEGIC>MOL_PROPERTY
VdW6
SciTegic.value.DoubleValue
-10.223

@<SCITEGIC>MOL_PROPERTY
VdW12
SciTegic.value.DoubleValue
11.117

@<SCITEGIC>MOL_PROPERTY
Bond
SciTegic.value.DoubleValue
0.231

@<SCITEGIC>MOL_PROPERTY
Angle
SciTegic.value.DoubleValue
3.232

@<SCITEGIC>MOL_PROPERTY
Pdih
SciTegic.value.DoubleValue
5.461

@<SCITEGIC>MOL_PROPERTY
Idih
SciTegic.value.DoubleValue
0.001

@<SCITEGIC>MOL_PROPERTY
Tether
SciTegic.value.DoubleValue
0.000

@<TRIPOS>MOLECULE
guest-8_confgen4.mol2 : confsearch ligand conformer 420
          25          24           1
SMALL
USER_CHARGES
 
@<TRIPOS>ATOM
       1    C1      20.656332   15.950930   21.135453 C.2        1 MOL1         0.6168
       2    O1      21.861743   15.991771   20.987121 O.co2      1 MOL1        -0.6703
       3    O2      19.890948   15.498906   20.306839 O.co2      1 MOL1        -0.6703
       4    C2      20.070059   16.515360   22.424591 C.3        1 MOL1        -0.1963
       5    H1      20.796304   16.351193   23.229694 H          1 MOL1         0.0750
       6    H2      19.173112   15.935600   22.673280 H          1 MOL1         0.0750
       7    C3      19.722281   18.020601   22.318500 C.3        1 MOL1        -0.1860
       8    H3      20.630193   18.576653   22.049637 H          1 MOL1         0.0752
       9    H4      19.001022   18.170682   21.503391 H          1 MOL1         0.0752
      10    C4      19.136997   18.568700   23.640493 C.3        1 MOL1        -0.1858
      11    H5      19.872560   18.455701   24.447702 H          1 MOL1         0.0752
      12    H6      18.271729   17.956629   23.929113 H          1 MOL1         0.0752
      13    C5      18.679848   20.046051   23.546759 C.3        1 MOL1        -0.1858
      14    H7      17.877019   20.121591   22.800950 H          1 MOL1         0.0752
      15    H8      18.225085   20.337727   24.502529 H          1 MOL1         0.0752
      16    C6      19.793387   21.062403   23.179496 C.3        1 MOL1        -0.1858
      17    H9      19.355757   22.069724   23.162909 H          1 MOL1         0.0752
      18    H10     20.135720   20.871572   22.153992 H          1 MOL1         0.0752
      19    C7      21.019707   21.067371   24.125142 C.3        1 MOL1        -0.1834
      20    H11     21.527637   20.094424   24.090256 H          1 MOL1         0.0752
      21    H12     21.746054   21.802740   23.752911 H          1 MOL1         0.0752
      22    C8      20.662342   21.417132   25.585961 C.3        1 MOL1        -0.2849
      23    H13     20.020060   20.648564   26.033983 H          1 MOL1         0.0764
      24    H14     21.571116   21.489554   26.197200 H          1 MOL1         0.0764
      25    H15     20.138408   22.380071   25.642321 H          1 MOL1         0.0764
@<TRIPOS>BOND
    1     1     2    1
    2     1     3    2
    3     1     4    1
    4     4     5    1
    5     4     6    1
    6     4     7    1
    7     7     8    1
    8     7     9    1
    9     7    10    1
   10    10    11    1
   11    10    12    1
   12    10    13    1
   13    13    14    1
   14    13    15    1
   15    13    16    1
   16    16    17    1
   17    16    18    1
   18    16    19    1
   19    19    20    1
   20    19    21    1
   21    19    22    1
   22    22    23    1
   23    22    24    1
   24    22    25    1
@<TRIPOS>SUBSTRUCTURE
       1 MOL1            1 RESIDUE      1      MOL     
@<SCITEGIC>MOL_PROPERTY
VConf Rank
SciTegic.value.IntegerValue
420

@<SCITEGIC>MOL_PROPERTY
Conf_Id
SciTegic.value.IntegerValue
30

@<SCITEGIC>MOL_PROPERTY
Delta U+W
SciTegic.value.DoubleValue
0.843

@<SCITEGIC>MOL_PROPERTY
U+W
SciTegic.value.DoubleValue
-50.787

@<SCITEGIC>MOL_PROPERTY
Grad RMS
SciTegic.value.DoubleValue
0.000000

@<SCITEGIC>MOL_PROPERTY
U
SciTegic.value.DoubleValue
8.647

@<SCITEGIC>MOL_PROPERTY
W
SciTegic.value.DoubleValue
-59.434

@<SCITEGIC>MOL_PROPERTY
W(PB)
SciTegic.value.DoubleValue
-61.861

@<SCITEGIC>MOL_PROPERTY
W(SA)
SciTegic.value.DoubleValue
2.428

@<SCITEGIC>MOL_PROPERTY
Valence
SciTegic.value.DoubleValue
8.924

@<SCITEGIC>MOL_PROPERTY
Coulomb
SciTegic.value.DoubleValue
-1.170

@<SCITEGIC>MOL_PROPERTY
VdW
SciTegic.value.DoubleValue
0.894

@<SCITEGIC>MOL_PROPERTY
VdW6
SciTegic.value.DoubleValue
-10.224

@<SCITEGIC>MOL_PROPERTY
VdW12
SciTegic.value.DoubleValue
11.118

@<SCITEGIC>MOL_PROPERTY
Bond
SciTegic.value.DoubleValue
0.231

@<SCITEGIC>MOL_PROPERTY
Angle
SciTegic.value.DoubleValue
3.232

@<SCITEGIC>MOL_PROPERTY
Pdih
SciTegic.value.DoubleValue
5.460

@<SCITEGIC>MOL_PROPERTY
Idih
SciTegic.value.DoubleValue
0.000

@<SCITEGIC>MOL_PROPERTY
Tether
SciTegic.value.DoubleValue
0.000

@<TRIPOS>MOLECULE
guest-8_confgen4.mol2 : confsearch ligand conformer 421
          25          24           1
SMALL
USER_CHARGES
 
@<TRIPOS>ATOM
       1    C1      16.366740   16.940231   21.285279 C.2        1 MOL1         0.6168
       2    O1      16.621531   15.892379   21.847143 O.co2      1 MOL1        -0.6703
       3    O2      15.410866   17.083366   20.549116 O.co2      1 MOL1        -0.6703
       4    C2      17.274013   18.153598   21.495019 C.3        1 MOL1        -0.1963
       5    H1      16.648590   18.966248   21.882773 H          1 MOL1         0.0750
       6    H2      17.633039   18.467799   20.507960 H          1 MOL1         0.0750
       7    C3      18.480718   17.922142   22.443021 C.3        1 MOL1        -0.1860
       8    H3      18.114120   17.601436   23.428038 H          1 MOL1         0.0752
       9    H4      19.099499   17.102576   22.051962 H          1 MOL1         0.0752
      10    C4      19.341628   19.194703   22.598163 C.3        1 MOL1        -0.1858
      11    H5      18.720958   20.012641   22.989165 H          1 MOL1         0.0752
      12    H6      19.706970   19.513455   21.612233 H          1 MOL1         0.0752
      13    C5      20.541375   18.962212   23.541583 C.3        1 MOL1        -0.1858
      14    H7      20.176331   18.643478   24.527613 H          1 MOL1         0.0752
      15    H8      21.162260   18.144348   23.150809 H          1 MOL1         0.0752
      16    C6      21.402587   20.234229   23.697156 C.3        1 MOL1        -0.1858
      17    H9      20.781904   21.052219   24.087973 H          1 MOL1         0.0752
      18    H10     21.767829   20.553085   22.711244 H          1 MOL1         0.0752
      19    C7      22.601811   20.001971   24.640172 C.3        1 MOL1        -0.1834
      20    H11     22.240200   19.684651   25.628116 H          1 MOL1         0.0752
      21    H12     23.226123   19.185528   24.251400 H          1 MOL1         0.0752
      22    C8      23.459252   21.274398   24.792909 C.3        1 MOL1        -0.2849
      23    H13     22.867051   22.099421   25.210081 H          1 MOL1         0.0764
      24    H14     24.306744   21.091350   25.466213 H          1 MOL1         0.0764
      25    H15     23.860411   21.596531   23.823013 H          1 MOL1         0.0764
@<TRIPOS>BOND
    1     1     2    1
    2     1     3    2
    3     1     4    1
    4     4     5    1
    5     4     6    1
    6     4     7    1
    7     7     8    1
    8     7     9    1
    9     7    10    1
   10    10    11    1
   11    10    12    1
   12    10    13    1
   13    13    14    1
   14    13    15    1
   15    13    16    1
   16    16    17    1
   17    16    18    1
   18    16    19    1
   19    19    20    1
   20    19    21    1
   21    19    22    1
   22    22    23    1
   23    22    24    1
   24    22    25    1
@<TRIPOS>SUBSTRUCTURE
       1 MOL1            1 RESIDUE      1      MOL     
@<SCITEGIC>MOL_PROPERTY
VConf Rank
SciTegic.value.IntegerValue
421

@<SCITEGIC>MOL_PROPERTY
Conf_Id
SciTegic.value.IntegerValue
0

@<SCITEGIC>MOL_PROPERTY
Delta U+W
SciTegic.value.DoubleValue
0.000

@<SCITEGIC>MOL_PROPERTY
U+W
SciTegic.value.DoubleValue
-51.629

@<SCITEGIC>MOL_PROPERTY
Grad RMS
SciTegic.value.DoubleValue
0.000000

@<SCITEGIC>MOL_PROPERTY
U
SciTegic.value.DoubleValue
6.586

@<SCITEGIC>MOL_PROPERTY
W
SciTegic.value.DoubleValue
-58.216

@<SCITEGIC>MOL_PROPERTY
W(PB)
SciTegic.value.DoubleValue
-60.757

@<SCITEGIC>MOL_PROPERTY
W(SA)
SciTegic.value.DoubleValue
2.541

@<SCITEGIC>MOL_PROPERTY
Valence
SciTegic.value.DoubleValue
8.027

@<SCITEGIC>MOL_PROPERTY
Coulomb
SciTegic.value.DoubleValue
-2.892

@<SCITEGIC>MOL_PROPERTY
VdW
SciTegic.value.DoubleValue
1.451

@<SCITEGIC>MOL_PROPERTY
VdW6
SciTegic.value.DoubleValue
-7.931

@<SCITEGIC>MOL_PROPERTY
VdW12
SciTegic.value.DoubleValue
9.383

@<SCITEGIC>MOL_PROPERTY
Bond
SciTegic.value.DoubleValue
0.149

@<SCITEGIC>MOL_PROPERTY
Angle
SciTegic.value.DoubleValue
2.726

@<SCITEGIC>MOL_PROPERTY
Pdih
SciTegic.value.DoubleValue
5.152

@<SCITEGIC>MOL_PROPERTY
Idih
SciTegic.value.DoubleValue
0.000

@<SCITEGIC>MOL_PROPERTY
Tether
SciTegic.value.DoubleValue
0.000

@<TRIPOS>MOLECULE
guest-8_confgen4.mol2 : confsearch ligand conformer 422
          25          24           1
SMALL
USER_CHARGES
 
@<TRIPOS>ATOM
       1    C1      16.570982   17.412555   20.643609 C.2        1 MOL1         0.6168
       2    O1      15.732574   16.828933   21.301695 O.co2      1 MOL1        -0.6703
       3    O2      16.319322   18.032438   19.629196 O.co2      1 MOL1        -0.6703
       4    C2      18.015424   17.384714   21.130327 C.3        1 MOL1        -0.1963
       5    H1      18.671447   17.416114   20.252117 H          1 MOL1         0.0750
       6    H2      18.188040   16.423870   21.629914 H          1 MOL1         0.0750
       7    C3      18.349430   18.553742   22.089409 C.3        1 MOL1        -0.1860
       8    H3      18.158777   19.507904   21.578703 H          1 MOL1         0.0752
       9    H4      17.675267   18.515763   22.956389 H          1 MOL1         0.0752
      10    C4      19.816523   18.503448   22.568083 C.3        1 MOL1        -0.1858
      11    H5      20.487792   18.540472   21.699056 H          1 MOL1         0.0752
      12    H6      20.004199   17.547921   23.076931 H          1 MOL1         0.0752
      13    C5      20.146475   19.669875   23.524141 C.3        1 MOL1        -0.1858
      14    H7      19.958948   20.625497   23.015493 H          1 MOL1         0.0752
      15    H8      19.475339   19.633024   24.393234 H          1 MOL1         0.0752
      16    C6      21.613390   19.620201   24.003278 C.3        1 MOL1        -0.1858
      17    H9      22.284801   19.657140   23.134406 H          1 MOL1         0.0752
      18    H10     21.801232   18.664679   24.511993 H          1 MOL1         0.0752
      19    C7      21.943357   20.786002   24.958993 C.3        1 MOL1        -0.1834
      20    H11     21.758422   21.743664   24.452860 H          1 MOL1         0.0752
      21    H12     21.274885   20.751197   25.830442 H          1 MOL1         0.0752
      22    C8      23.408979   20.732875   25.435153 C.3        1 MOL1        -0.2849
      23    H13     23.626016   21.568411   26.113285 H          1 MOL1         0.0764
      24    H14     23.613616   19.797899   25.973057 H          1 MOL1         0.0764
      25    H15     24.100785   20.797836   24.585105 H          1 MOL1         0.0764
@<TRIPOS>BOND
    1     1     2    1
    2     1     3    2
    3     1     4    1
    4     4     5    1
    5     4     6    1
    6     4     7    1
    7     7     8    1
    8     7     9    1
    9     7    10    1
   10    10    11    1
   11    10    12    1
   12    10    13    1
   13    13    14    1
   14    13    15    1
   15    13    16    1
   16    16    17    1
   17    16    18    1
   18    16    19    1
   19    19    20    1
   20    19    21    1
   21    19    22    1
   22    22    23    1
   23    22    24    1
   24    22    25    1
@<TRIPOS>SUBSTRUCTURE
       1 MOL1            1 RESIDUE      1      MOL     
@<SCITEGIC>MOL_PROPERTY
VConf Rank
SciTegic.value.IntegerValue
422

@<SCITEGIC>MOL_PROPERTY
Conf_Id
SciTegic.value.IntegerValue
27

@<SCITEGIC>MOL_PROPERTY
Delta U+W
SciTegic.value.DoubleValue
-1.297

@<SCITEGIC>MOL_PROPERTY
U+W
SciTegic.value.DoubleValue
-52.926

@<SCITEGIC>MOL_PROPERTY
Grad RMS
SciTegic.value.DoubleValue
0.000000

@<SCITEGIC>MOL_PROPERTY
U
SciTegic.value.DoubleValue
5.617

@<SCITEGIC>MOL_PROPERTY
W
SciTegic.value.DoubleValue
-58.543

@<SCITEGIC>MOL_PROPERTY
W(PB)
SciTegic.value.DoubleValue
-61.065

@<SCITEGIC>MOL_PROPERTY
W(SA)
SciTegic.value.DoubleValue
2.522

@<SCITEGIC>MOL_PROPERTY
Valence
SciTegic.value.DoubleValue
7.531

@<SCITEGIC>MOL_PROPERTY
Coulomb
SciTegic.value.DoubleValue
-2.818

@<SCITEGIC>MOL_PROPERTY
VdW
SciTegic.value.DoubleValue
0.904

@<SCITEGIC>MOL_PROPERTY
VdW6
SciTegic.value.DoubleValue
-7.640

@<SCITEGIC>MOL_PROPERTY
VdW12
SciTegic.value.DoubleValue
8.544

@<SCITEGIC>MOL_PROPERTY
Bond
SciTegic.value.DoubleValue
0.115

@<SCITEGIC>MOL_PROPERTY
Angle
SciTegic.value.DoubleValue
2.271

@<SCITEGIC>MOL_PROPERTY
Pdih
SciTegic.value.DoubleValue
5.144

@<SCITEGIC>MOL_PROPERTY
Idih
SciTegic.value.DoubleValue
0.001

@<SCITEGIC>MOL_PROPERTY
Tether
SciTegic.value.DoubleValue
0.000

@<TRIPOS>MOLECULE
guest-8_confgen4.mol2 : confsearch ligand conformer 423
          25          24           1
SMALL
USER_CHARGES
 
@<TRIPOS>ATOM
       1    C1      22.415976   17.763839   20.231659 C.2        1 MOL1         0.6168
       2    O1      22.077576   18.232048   19.162388 O.co2      1 MOL1        -0.6703
       3    O2      23.486371   17.994896   20.758756 O.co2      1 MOL1        -0.6703
       4    C2      21.448767   16.820772   20.941656 C.3        1 MOL1        -0.1963
       5    H1      22.010100   16.232915   21.677981 H          1 MOL1         0.0750
       6    H2      21.070688   16.114498   20.193179 H          1 MOL1         0.0750
       7    C3      20.256415   17.538632   21.625701 C.3        1 MOL1        -0.1860
       8    H3      19.721041   18.144680   20.881556 H          1 MOL1         0.0752
       9    H4      19.546143   16.783276   21.988328 H          1 MOL1         0.0752
      10    C4      20.698572   18.430957   22.807235 C.3        1 MOL1        -0.1858
      11    H5      21.396233   19.200644   22.449079 H          1 MOL1         0.0752
      12    H6      21.244858   17.823350   23.541681 H          1 MOL1         0.0752
      13    C5      19.493576   19.110173   23.493005 C.3        1 MOL1        -0.1858
      14    H7      18.947959   19.717534   22.757817 H          1 MOL1         0.0752
      15    H8      18.796004   18.342295   23.854662 H          1 MOL1         0.0752
      16    C6      19.934709   20.002625   24.673171 C.3        1 MOL1        -0.1858
      17    H9      20.632376   20.770545   24.311665 H          1 MOL1         0.0752
      18    H10     20.480664   19.395524   25.408319 H          1 MOL1         0.0752
      19    C7      18.730654   20.682163   25.358627 C.3        1 MOL1        -0.1834
      20    H11     18.183182   21.291863   24.626490 H          1 MOL1         0.0752
      21    H12     18.031498   19.916843   25.723244 H          1 MOL1         0.0752
      22    C8      19.175457   21.572501   26.536359 C.3        1 MOL1        -0.2849
      23    H13     19.851600   22.367111   26.194567 H          1 MOL1         0.0764
      24    H14     18.307401   22.047431   27.011755 H          1 MOL1         0.0764
      25    H15     19.698826   20.981758   27.299577 H          1 MOL1         0.0764
@<TRIPOS>BOND
    1     1     2    1
    2     1     3    2
    3     1     4    1
    4     4     5    1
    5     4     6    1
    6     4     7    1
    7     7     8    1
    8     7     9    1
    9     7    10    1
   10    10    11    1
   11    10    12    1
   12    10    13    1
   13    13    14    1
   14    13    15    1
   15    13    16    1
   16    16    17    1
   17    16    18    1
   18    16    19    1
   19    19    20    1
   20    19    21    1
   21    19    22    1
   22    22    23    1
   23    22    24    1
   24    22    25    1
@<TRIPOS>SUBSTRUCTURE
       1 MOL1            1 RESIDUE      1      MOL     
@<SCITEGIC>MOL_PROPERTY
VConf Rank
SciTegic.value.IntegerValue
423

@<SCITEGIC>MOL_PROPERTY
Conf_Id
SciTegic.value.IntegerValue
37

@<SCITEGIC>MOL_PROPERTY
Delta U+W
SciTegic.value.DoubleValue
-0.230

@<SCITEGIC>MOL_PROPERTY
U+W
SciTegic.value.DoubleValue
-51.860

@<SCITEGIC>MOL_PROPERTY
Grad RMS
SciTegic.value.DoubleValue
0.000000

@<SCITEGIC>MOL_PROPERTY
U
SciTegic.value.DoubleValue
7.816

@<SCITEGIC>MOL_PROPERTY
W
SciTegic.value.DoubleValue
-59.675

@<SCITEGIC>MOL_PROPERTY
W(PB)
SciTegic.value.DoubleValue
-62.180

@<SCITEGIC>MOL_PROPERTY
W(SA)
SciTegic.value.DoubleValue
2.505

@<SCITEGIC>MOL_PROPERTY
Valence
SciTegic.value.DoubleValue
7.785

@<SCITEGIC>MOL_PROPERTY
Coulomb
SciTegic.value.DoubleValue
-0.713

@<SCITEGIC>MOL_PROPERTY
VdW
SciTegic.value.DoubleValue
0.744

@<SCITEGIC>MOL_PROPERTY
VdW6
SciTegic.value.DoubleValue
-8.514

@<SCITEGIC>MOL_PROPERTY
VdW12
SciTegic.value.DoubleValue
9.259

@<SCITEGIC>MOL_PROPERTY
Bond
SciTegic.value.DoubleValue
0.136

@<SCITEGIC>MOL_PROPERTY
Angle
SciTegic.value.DoubleValue
2.433

@<SCITEGIC>MOL_PROPERTY
Pdih
SciTegic.value.DoubleValue
5.216

@<SCITEGIC>MOL_PROPERTY
Idih
SciTegic.value.DoubleValue
0.000

@<SCITEGIC>MOL_PROPERTY
Tether
SciTegic.value.DoubleValue
0.000

@<TRIPOS>MOLECULE
guest-8_confgen4.mol2 : confsearch ligand conformer 424
          25          24           1
SMALL
USER_CHARGES
 
@<TRIPOS>ATOM
       1    C1      17.260070   16.469817   24.084194 C.2        1 MOL1         0.6168
       2    O1      16.191883   16.903645   24.468700 O.co2      1 MOL1        -0.6703
       3    O2      18.003968   15.803200   24.776437 O.co2      1 MOL1        -0.6703
       4    C2      17.680892   16.766027   22.647484 C.3        1 MOL1        -0.1963
       5    H1      16.812945   16.574708   22.005574 H          1 MOL1         0.0750
       6    H2      18.456685   16.048141   22.354856 H          1 MOL1         0.0750
       7    C3      18.181353   18.216668   22.423598 C.3        1 MOL1        -0.1860
       8    H3      18.329579   18.380480   21.347613 H          1 MOL1         0.0752
       9    H4      17.404643   18.923608   22.747064 H          1 MOL1         0.0752
      10    C4      19.501521   18.511781   23.170480 C.3        1 MOL1        -0.1858
      11    H5      20.270776   17.794237   22.853617 H          1 MOL1         0.0752
      12    H6      19.356547   18.366847   24.250017 H          1 MOL1         0.0752
      13    C5      19.997628   19.950088   22.908221 C.3        1 MOL1        -0.1858
      14    H7      20.146106   20.096428   21.829530 H          1 MOL1         0.0752
      15    H8      19.227791   20.666868   23.225498 H          1 MOL1         0.0752
      16    C6      21.316348   20.245917   23.654759 C.3        1 MOL1        -0.1858
      17    H9      22.086251   19.529055   23.337839 H          1 MOL1         0.0752
      18    H10     21.168067   20.099487   24.733507 H          1 MOL1         0.0752
      19    C7      21.812304   21.683656   23.393419 C.3        1 MOL1        -0.1834
      20    H11     21.963468   21.833177   22.315333 H          1 MOL1         0.0752
      21    H12     21.045320   22.403581   23.711111 H          1 MOL1         0.0752
      22    C8      23.129254   21.974991   24.140662 C.3        1 MOL1        -0.2849
      23    H13     23.923613   21.288871   23.818748 H          1 MOL1         0.0764
      24    H14     23.467091   23.000749   23.943766 H          1 MOL1         0.0764
      25    H15     22.998551   21.863490   25.225043 H          1 MOL1         0.0764
@<TRIPOS>BOND
    1     1     2    1
    2     1     3    2
    3     1     4    1
    4     4     5    1
    5     4     6    1
    6     4     7    1
    7     7     8    1
    8     7     9    1
    9     7    10    1
   10    10    11    1
   11    10    12    1
   12    10    13    1
   13    13    14    1
   14    13    15    1
   15    13    16    1
   16    16    17    1
   17    16    18    1
   18    16    19    1
   19    19    20    1
   20    19    21    1
   21    19    22    1
   22    22    23    1
   23    22    24    1
   24    22    25    1
@<TRIPOS>SUBSTRUCTURE
       1 MOL1            1 RESIDUE      1      MOL     
@<SCITEGIC>MOL_PROPERTY
VConf Rank
SciTegic.value.IntegerValue
424

@<SCITEGIC>MOL_PROPERTY
Conf_Id
SciTegic.value.IntegerValue
54

@<SCITEGIC>MOL_PROPERTY
Delta U+W
SciTegic.value.DoubleValue
-0.224

@<SCITEGIC>MOL_PROPERTY
U+W
SciTegic.value.DoubleValue
-51.854

@<SCITEGIC>MOL_PROPERTY
Grad RMS
SciTegic.value.DoubleValue
0.000000

@<SCITEGIC>MOL_PROPERTY
U
SciTegic.value.DoubleValue
7.816

@<SCITEGIC>MOL_PROPERTY
W
SciTegic.value.DoubleValue
-59.670

@<SCITEGIC>MOL_PROPERTY
W(PB)
SciTegic.value.DoubleValue
-62.157

@<SCITEGIC>MOL_PROPERTY
W(SA)
SciTegic.value.DoubleValue
2.487

@<SCITEGIC>MOL_PROPERTY
Valence
SciTegic.value.DoubleValue
7.785

@<SCITEGIC>MOL_PROPERTY
Coulomb
SciTegic.value.DoubleValue
-0.713

@<SCITEGIC>MOL_PROPERTY
VdW
SciTegic.value.DoubleValue
0.744

@<SCITEGIC>MOL_PROPERTY
VdW6
SciTegic.value.DoubleValue
-8.515

@<SCITEGIC>MOL_PROPERTY
VdW12
SciTegic.value.DoubleValue
9.259

@<SCITEGIC>MOL_PROPERTY
Bond
SciTegic.value.DoubleValue
0.136

@<SCITEGIC>MOL_PROPERTY
Angle
SciTegic.value.DoubleValue
2.433

@<SCITEGIC>MOL_PROPERTY
Pdih
SciTegic.value.DoubleValue
5.215

@<SCITEGIC>MOL_PROPERTY
Idih
SciTegic.value.DoubleValue
0.000

@<SCITEGIC>MOL_PROPERTY
Tether
SciTegic.value.DoubleValue
0.000

@<TRIPOS>MOLECULE
guest-8_confgen4.mol2 : confsearch ligand conformer 425
          25          24           1
SMALL
USER_CHARGES
 
@<TRIPOS>ATOM
       1    C1      20.237367   15.068278   23.222134 C.2        1 MOL1         0.6168
       2    O1      21.214846   14.796872   22.552864 O.co2      1 MOL1        -0.6703
       3    O2      20.013797   14.582982   24.313744 O.co2      1 MOL1        -0.6703
       4    C2      19.224331   16.058581   22.654470 C.3        1 MOL1        -0.1963
       5    H1      18.227189   15.628536   22.805266 H          1 MOL1         0.0750
       6    H2      19.376996   16.133985   21.571032 H          1 MOL1         0.0750
       7    C3      19.284267   17.466257   23.302946 C.3        1 MOL1        -0.1860
       8    H3      18.426450   18.049296   22.945148 H          1 MOL1         0.0752
       9    H4      19.171203   17.370172   24.391699 H          1 MOL1         0.0752
      10    C4      20.598822   18.215173   22.975805 C.3        1 MOL1        -0.1858
      11    H5      20.688467   18.351010   21.889393 H          1 MOL1         0.0752
      12    H6      21.451682   17.593193   23.280354 H          1 MOL1         0.0752
      13    C5      20.723142   19.586538   23.682103 C.3        1 MOL1        -0.1858
      14    H7      20.614562   19.452571   24.766926 H          1 MOL1         0.0752
      15    H8      21.740912   19.961433   23.515464 H          1 MOL1         0.0752
      16    C6      19.701321   20.636302   23.179404 C.3        1 MOL1        -0.1858
      17    H9      18.682609   20.266945   23.351668 H          1 MOL1         0.0752
      18    H10     19.806954   20.766101   22.093765 H          1 MOL1         0.0752
      19    C7      19.835887   22.008860   23.879734 C.3        1 MOL1        -0.1834
      20    H11     18.995481   22.645136   23.569710 H          1 MOL1         0.0752
      21    H12     19.743219   21.881426   24.967150 H          1 MOL1         0.0752
      22    C8      21.156376   22.739401   23.551777 C.3        1 MOL1        -0.2849
      23    H13     22.024011   22.200296   23.951753 H          1 MOL1         0.0764
      24    H14     21.287039   22.847111   22.467141 H          1 MOL1         0.0764
      25    H15     21.158439   23.744281   23.993497 H          1 MOL1         0.0764
@<TRIPOS>BOND
    1     1     2    1
    2     1     3    2
    3     1     4    1
    4     4     5    1
    5     4     6    1
    6     4     7    1
    7     7     8    1
    8     7     9    1
    9     7    10    1
   10    10    11    1
   11    10    12    1
   12    10    13    1
   13    13    14    1
   14    13    15    1
   15    13    16    1
   16    16    17    1
   17    16    18    1
   18    16    19    1
   19    19    20    1
   20    19    21    1
   21    19    22    1
   22    22    23    1
   23    22    24    1
   24    22    25    1
@<TRIPOS>SUBSTRUCTURE
       1 MOL1            1 RESIDUE      1      MOL     
@<SCITEGIC>MOL_PROPERTY
VConf Rank
SciTegic.value.IntegerValue
425

@<SCITEGIC>MOL_PROPERTY
Conf_Id
SciTegic.value.IntegerValue
101

@<SCITEGIC>MOL_PROPERTY
Delta U+W
SciTegic.value.DoubleValue
1.534

@<SCITEGIC>MOL_PROPERTY
U+W
SciTegic.value.DoubleValue
-50.095

@<SCITEGIC>MOL_PROPERTY
Grad RMS
SciTegic.value.DoubleValue
0.000000

@<SCITEGIC>MOL_PROPERTY
U
SciTegic.value.DoubleValue
9.416

@<SCITEGIC>MOL_PROPERTY
W
SciTegic.value.DoubleValue
-59.512

@<SCITEGIC>MOL_PROPERTY
W(PB)
SciTegic.value.DoubleValue
-61.988

@<SCITEGIC>MOL_PROPERTY
W(SA)
SciTegic.value.DoubleValue
2.476

@<SCITEGIC>MOL_PROPERTY
Valence
SciTegic.value.DoubleValue
8.939

@<SCITEGIC>MOL_PROPERTY
Coulomb
SciTegic.value.DoubleValue
-0.615

@<SCITEGIC>MOL_PROPERTY
VdW
SciTegic.value.DoubleValue
1.092

@<SCITEGIC>MOL_PROPERTY
VdW6
SciTegic.value.DoubleValue
-9.710

@<SCITEGIC>MOL_PROPERTY
VdW12
SciTegic.value.DoubleValue
10.802

@<SCITEGIC>MOL_PROPERTY
Bond
SciTegic.value.DoubleValue
0.216

@<SCITEGIC>MOL_PROPERTY
Angle
SciTegic.value.DoubleValue
2.979

@<SCITEGIC>MOL_PROPERTY
Pdih
SciTegic.value.DoubleValue
5.743

@<SCITEGIC>MOL_PROPERTY
Idih
SciTegic.value.DoubleValue
0.000

@<SCITEGIC>MOL_PROPERTY
Tether
SciTegic.value.DoubleValue
0.000

@<TRIPOS>MOLECULE
guest-8_confgen4.mol2 : confsearch ligand conformer 426
          25          24           1
SMALL
USER_CHARGES
 
@<TRIPOS>ATOM
       1    C1      16.737666   16.879695   24.241919 C.2        1 MOL1         0.6168
       2    O1      16.594686   16.933954   25.447468 O.co2      1 MOL1        -0.6703
       3    O2      15.849274   16.571879   23.471994 O.co2      1 MOL1        -0.6703
       4    C2      18.100637   17.239540   23.661412 C.3        1 MOL1        -0.1963
       5    H1      18.249559   16.646739   22.751056 H          1 MOL1         0.0750
       6    H2      18.862644   16.925217   24.383151 H          1 MOL1         0.0750
       7    C3      18.236227   18.751558   23.343648 C.3        1 MOL1        -0.1860
       8    H3      17.399641   19.050612   22.697027 H          1 MOL1         0.0752
       9    H4      18.134275   19.332792   24.270510 H          1 MOL1         0.0752
      10    C4      19.562662   19.121476   22.637646 C.3        1 MOL1        -0.1858
      11    H5      19.500550   20.173228   22.330318 H          1 MOL1         0.0752
      12    H6      19.667049   18.532217   21.716536 H          1 MOL1         0.0752
      13    C5      20.811812   18.922281   23.530867 C.3        1 MOL1        -0.1858
      14    H7      20.707886   19.511759   24.451048 H          1 MOL1         0.0752
      15    H8      20.871559   17.873231   23.846529 H          1 MOL1         0.0752
      16    C6      22.142859   19.278985   22.821336 C.3        1 MOL1        -0.1858
      17    H9      22.270328   18.619046   21.952481 H          1 MOL1         0.0752
      18    H10     22.974700   19.048390   23.500700 H          1 MOL1         0.0752
      19    C7      22.276144   20.749779   22.353937 C.3        1 MOL1        -0.1834
      20    H11     23.253036   20.873725   21.866738 H          1 MOL1         0.0752
      21    H12     21.525025   20.973735   21.585167 H          1 MOL1         0.0752
      22    C8      22.163365   21.771428   23.506089 C.3        1 MOL1        -0.2849
      23    H13     22.890339   21.551753   24.298699 H          1 MOL1         0.0764
      24    H14     22.358581   22.787378   23.139343 H          1 MOL1         0.0764
      25    H15     21.158799   21.764725   23.947541 H          1 MOL1         0.0764
@<TRIPOS>BOND
    1     1     2    1
    2     1     3    2
    3     1     4    1
    4     4     5    1
    5     4     6    1
    6     4     7    1
    7     7     8    1
    8     7     9    1
    9     7    10    1
   10    10    11    1
   11    10    12    1
   12    10    13    1
   13    13    14    1
   14    13    15    1
   15    13    16    1
   16    16    17    1
   17    16    18    1
   18    16    19    1
   19    19    20    1
   20    19    21    1
   21    19    22    1
   22    22    23    1
   23    22    24    1
   24    22    25    1
@<TRIPOS>SUBSTRUCTURE
       1 MOL1            1 RESIDUE      1      MOL     
@<SCITEGIC>MOL_PROPERTY
VConf Rank
SciTegic.value.IntegerValue
426

@<SCITEGIC>MOL_PROPERTY
Conf_Id
SciTegic.value.IntegerValue
75

@<SCITEGIC>MOL_PROPERTY
Delta U+W
SciTegic.value.DoubleValue
1.014

@<SCITEGIC>MOL_PROPERTY
U+W
SciTegic.value.DoubleValue
-50.615

@<SCITEGIC>MOL_PROPERTY
Grad RMS
SciTegic.value.DoubleValue
0.000000

@<SCITEGIC>MOL_PROPERTY
U
SciTegic.value.DoubleValue
8.474

@<SCITEGIC>MOL_PROPERTY
W
SciTegic.value.DoubleValue
-59.089

@<SCITEGIC>MOL_PROPERTY
W(PB)
SciTegic.value.DoubleValue
-61.530

@<SCITEGIC>MOL_PROPERTY
W(SA)
SciTegic.value.DoubleValue
2.441

@<SCITEGIC>MOL_PROPERTY
Valence
SciTegic.value.DoubleValue
9.080

@<SCITEGIC>MOL_PROPERTY
Coulomb
SciTegic.value.DoubleValue
-1.772

@<SCITEGIC>MOL_PROPERTY
VdW
SciTegic.value.DoubleValue
1.165

@<SCITEGIC>MOL_PROPERTY
VdW6
SciTegic.value.DoubleValue
-9.830

@<SCITEGIC>MOL_PROPERTY
VdW12
SciTegic.value.DoubleValue
10.996

@<SCITEGIC>MOL_PROPERTY
Bond
SciTegic.value.DoubleValue
0.240

@<SCITEGIC>MOL_PROPERTY
Angle
SciTegic.value.DoubleValue
3.225

@<SCITEGIC>MOL_PROPERTY
Pdih
SciTegic.value.DoubleValue
5.615

@<SCITEGIC>MOL_PROPERTY
Idih
SciTegic.value.DoubleValue
0.001

@<SCITEGIC>MOL_PROPERTY
Tether
SciTegic.value.DoubleValue
0.000

@<TRIPOS>MOLECULE
guest-8_confgen4.mol2 : confsearch ligand conformer 427
          25          24           1
SMALL
USER_CHARGES
 
@<TRIPOS>ATOM
       1    C1      22.706067   18.769521   19.975155 C.2        1 MOL1         0.6168
       2    O1      23.554774   19.635708   20.053048 O.co2      1 MOL1        -0.6703
       3    O2      22.872536   17.713754   19.396956 O.co2      1 MOL1        -0.6703
       4    C2      21.365314   19.011954   20.659032 C.3        1 MOL1        -0.1963
       5    H1      20.588270   18.504158   20.075161 H          1 MOL1         0.0750
       6    H2      21.151470   20.086756   20.618077 H          1 MOL1         0.0750
       7    C3      21.340396   18.517577   22.126360 C.3        1 MOL1        -0.1860
       8    H3      21.568977   17.443046   22.151428 H          1 MOL1         0.0752
       9    H4      22.132455   19.025723   22.693781 H          1 MOL1         0.0752
      10    C4      19.973672   18.775671   22.796886 C.3        1 MOL1        -0.1858
      11    H5      19.185168   18.266377   22.226190 H          1 MOL1         0.0752
      12    H6      19.747470   19.847827   22.757804 H          1 MOL1         0.0752
      13    C5      19.951958   18.274741   24.260215 C.3        1 MOL1        -0.1858
      14    H7      20.150805   17.194303   24.254673 H          1 MOL1         0.0752
      15    H8      20.768965   18.733379   24.833775 H          1 MOL1         0.0752
      16    C6      18.598341   18.521248   24.973923 C.3        1 MOL1        -0.1858
      17    H9      18.404881   17.670779   25.641862 H          1 MOL1         0.0752
      18    H10     17.776997   18.520251   24.244384 H          1 MOL1         0.0752
      19    C7      18.545277   19.808990   25.832881 C.3        1 MOL1        -0.1834
      20    H11     17.578225   19.841032   26.353415 H          1 MOL1         0.0752
      21    H12     19.314176   19.760839   26.616280 H          1 MOL1         0.0752
      22    C8      18.716312   21.113874   25.027650 C.3        1 MOL1        -0.2849
      23    H13     18.002983   21.159398   24.194553 H          1 MOL1         0.0764
      24    H14     18.543249   21.986832   25.670105 H          1 MOL1         0.0764
      25    H15     19.732439   21.198312   24.622703 H          1 MOL1         0.0764
@<TRIPOS>BOND
    1     1     2    1
    2     1     3    2
    3     1     4    1
    4     4     5    1
    5     4     6    1
    6     4     7    1
    7     7     8    1
    8     7     9    1
    9     7    10    1
   10    10    11    1
   11    10    12    1
   12    10    13    1
   13    13    14    1
   14    13    15    1
   15    13    16    1
   16    16    17    1
   17    16    18    1
   18    16    19    1
   19    19    20    1
   20    19    21    1
   21    19    22    1
   22    22    23    1
   23    22    24    1
   24    22    25    1
@<TRIPOS>SUBSTRUCTURE
       1 MOL1            1 RESIDUE      1      MOL     
@<SCITEGIC>MOL_PROPERTY
VConf Rank
SciTegic.value.IntegerValue
427

@<SCITEGIC>MOL_PROPERTY
Conf_Id
SciTegic.value.IntegerValue
125

@<SCITEGIC>MOL_PROPERTY
Delta U+W
SciTegic.value.DoubleValue
2.314

@<SCITEGIC>MOL_PROPERTY
U+W
SciTegic.value.DoubleValue
-49.315

@<SCITEGIC>MOL_PROPERTY
Grad RMS
SciTegic.value.DoubleValue
0.000000

@<SCITEGIC>MOL_PROPERTY
U
SciTegic.value.DoubleValue
9.740

@<SCITEGIC>MOL_PROPERTY
W
SciTegic.value.DoubleValue
-59.054

@<SCITEGIC>MOL_PROPERTY
W(PB)
SciTegic.value.DoubleValue
-61.488

@<SCITEGIC>MOL_PROPERTY
W(SA)
SciTegic.value.DoubleValue
2.433

@<SCITEGIC>MOL_PROPERTY
Valence
SciTegic.value.DoubleValue
10.506

@<SCITEGIC>MOL_PROPERTY
Coulomb
SciTegic.value.DoubleValue
-1.761

@<SCITEGIC>MOL_PROPERTY
VdW
SciTegic.value.DoubleValue
0.994

@<SCITEGIC>MOL_PROPERTY
VdW6
SciTegic.value.DoubleValue
-9.209

@<SCITEGIC>MOL_PROPERTY
VdW12
SciTegic.value.DoubleValue
10.203

@<SCITEGIC>MOL_PROPERTY
Bond
SciTegic.value.DoubleValue
0.193

@<SCITEGIC>MOL_PROPERTY
Angle
SciTegic.value.DoubleValue
2.979

@<SCITEGIC>MOL_PROPERTY
Pdih
SciTegic.value.DoubleValue
7.334

@<SCITEGIC>MOL_PROPERTY
Idih
SciTegic.value.DoubleValue
0.001

@<SCITEGIC>MOL_PROPERTY
Tether
SciTegic.value.DoubleValue
0.000

@<TRIPOS>MOLECULE
guest-8_confgen4.mol2 : confsearch ligand conformer 428
          25          24           1
SMALL
USER_CHARGES
 
@<TRIPOS>ATOM
       1    C1      24.025381   19.192230   24.457593 C.2        1 MOL1         0.6168
       2    O1      24.458583   18.092207   24.176561 O.co2      1 MOL1        -0.6703
       3    O2      24.650655   20.020549   25.089781 O.co2      1 MOL1        -0.6703
       4    C2      22.610091   19.543875   24.013387 C.3        1 MOL1        -0.1963
       5    H1      22.426053   19.039323   23.058255 H          1 MOL1         0.0750
       6    H2      22.571220   20.623323   23.824613 H          1 MOL1         0.0750
       7    C3      21.536816   19.144322   25.059177 C.3        1 MOL1        -0.1860
       8    H3      21.554013   18.055368   25.204821 H          1 MOL1         0.0752
       9    H4      21.804313   19.590755   26.026953 H          1 MOL1         0.0752
      10    C4      20.106654   19.598950   24.682213 C.3        1 MOL1        -0.1858
      11    H5      20.090681   20.689073   24.546762 H          1 MOL1         0.0752
      12    H6      19.438414   19.380826   25.526481 H          1 MOL1         0.0752
      13    C5      19.556237   18.908485   23.412766 C.3        1 MOL1        -0.1858
      14    H7      20.178452   19.175706   22.550172 H          1 MOL1         0.0752
      15    H8      19.619465   17.818294   23.531301 H          1 MOL1         0.0752
      16    C6      18.089870   19.313146   23.134877 C.3        1 MOL1        -0.1858
      17    H9      18.030480   20.397552   22.969276 H          1 MOL1         0.0752
      18    H10     17.484845   19.101090   24.026965 H          1 MOL1         0.0752
      19    C7      17.464423   18.570990   21.930785 C.3        1 MOL1        -0.1834
      20    H11     17.517258   17.485928   22.095572 H          1 MOL1         0.0752
      21    H12     16.396769   18.824763   21.876549 H          1 MOL1         0.0752
      22    C8      18.128112   18.924517   20.582037 C.3        1 MOL1        -0.2849
      23    H13     19.169712   18.581818   20.545790 H          1 MOL1         0.0764
      24    H14     17.591938   18.444657   19.753094 H          1 MOL1         0.0764
      25    H15     18.115517   20.008665   20.410071 H          1 MOL1         0.0764
@<TRIPOS>BOND
    1     1     2    1
    2     1     3    2
    3     1     4    1
    4     4     5    1
    5     4     6    1
    6     4     7    1
    7     7     8    1
    8     7     9    1
    9     7    10    1
   10    10    11    1
   11    10    12    1
   12    10    13    1
   13    13    14    1
   14    13    15    1
   15    13    16    1
   16    16    17    1
   17    16    18    1
   18    16    19    1
   19    19    20    1
   20    19    21    1
   21    19    22    1
   22    22    23    1
   23    22    24    1
   24    22    25    1
@<TRIPOS>SUBSTRUCTURE
       1 MOL1            1 RESIDUE      1      MOL     
@<SCITEGIC>MOL_PROPERTY
VConf Rank
SciTegic.value.IntegerValue
428

@<SCITEGIC>MOL_PROPERTY
Conf_Id
SciTegic.value.IntegerValue
4

@<SCITEGIC>MOL_PROPERTY
Delta U+W
SciTegic.value.DoubleValue
0.189

@<SCITEGIC>MOL_PROPERTY
U+W
SciTegic.value.DoubleValue
-51.441

@<SCITEGIC>MOL_PROPERTY
Grad RMS
SciTegic.value.DoubleValue
0.000000

@<SCITEGIC>MOL_PROPERTY
U
SciTegic.value.DoubleValue
7.701

@<SCITEGIC>MOL_PROPERTY
W
SciTegic.value.DoubleValue
-59.141

@<SCITEGIC>MOL_PROPERTY
W(PB)
SciTegic.value.DoubleValue
-61.609

@<SCITEGIC>MOL_PROPERTY
W(SA)
SciTegic.value.DoubleValue
2.467

@<SCITEGIC>MOL_PROPERTY
Valence
SciTegic.value.DoubleValue
8.550

@<SCITEGIC>MOL_PROPERTY
Coulomb
SciTegic.value.DoubleValue
-1.988

@<SCITEGIC>MOL_PROPERTY
VdW
SciTegic.value.DoubleValue
1.139

@<SCITEGIC>MOL_PROPERTY
VdW6
SciTegic.value.DoubleValue
-8.988

@<SCITEGIC>MOL_PROPERTY
VdW12
SciTegic.value.DoubleValue
10.127

@<SCITEGIC>MOL_PROPERTY
Bond
SciTegic.value.DoubleValue
0.191

@<SCITEGIC>MOL_PROPERTY
Angle
SciTegic.value.DoubleValue
2.738

@<SCITEGIC>MOL_PROPERTY
Pdih
SciTegic.value.DoubleValue
5.621

@<SCITEGIC>MOL_PROPERTY
Idih
SciTegic.value.DoubleValue
0.001

@<SCITEGIC>MOL_PROPERTY
Tether
SciTegic.value.DoubleValue
0.000

@<TRIPOS>MOLECULE
guest-8_confgen4.mol2 : confsearch ligand conformer 429
          25          24           1
SMALL
USER_CHARGES
 
@<TRIPOS>ATOM
       1    C1      19.645576   18.683360   19.262437 C.2        1 MOL1         0.6168
       2    O1      20.680415   18.156010   18.905080 O.co2      1 MOL1        -0.6703
       3    O2      18.685557   18.843633   18.534826 O.co2      1 MOL1        -0.6703
       4    C2      19.536914   19.148516   20.710140 C.3        1 MOL1        -0.1963
       5    H1      18.881272   20.027025   20.736790 H          1 MOL1         0.0750
       6    H2      20.532613   19.475321   21.030301 H          1 MOL1         0.0750
       7    C3      18.992781   18.045593   21.654978 C.3        1 MOL1        -0.1860
       8    H3      18.039798   17.675226   21.252362 H          1 MOL1         0.0752
       9    H4      19.682358   17.190131   21.655670 H          1 MOL1         0.0752
      10    C4      18.762056   18.532415   23.105469 C.3        1 MOL1        -0.1858
      11    H5      18.269606   17.727677   23.668318 H          1 MOL1         0.0752
      12    H6      18.064628   19.381271   23.102260 H          1 MOL1         0.0752
      13    C5      20.065619   18.932430   23.834788 C.3        1 MOL1        -0.1858
      14    H7      20.779976   18.099048   23.793157 H          1 MOL1         0.0752
      15    H8      20.529844   19.781199   23.318347 H          1 MOL1         0.0752
      16    C6      19.799425   19.310683   25.310345 C.3        1 MOL1        -0.1858
      17    H9      19.277295   18.479835   25.804223 H          1 MOL1         0.0752
      18    H10     19.121610   20.174117   25.354329 H          1 MOL1         0.0752
      19    C7      21.087417   19.623054   26.107413 C.3        1 MOL1        -0.1834
      20    H11     20.822201   19.763398   27.164386 H          1 MOL1         0.0752
      21    H12     21.765609   18.759366   26.069921 H          1 MOL1         0.0752
      22    C8      21.824965   20.884739   25.608652 C.3        1 MOL1        -0.2849
      23    H13     21.156807   21.755757   25.607239 H          1 MOL1         0.0764
      24    H14     22.677488   21.113906   26.261018 H          1 MOL1         0.0764
      25    H15     22.213233   20.746474   24.591883 H          1 MOL1         0.0764
@<TRIPOS>BOND
    1     1     2    1
    2     1     3    2
    3     1     4    1
    4     4     5    1
    5     4     6    1
    6     4     7    1
    7     7     8    1
    8     7     9    1
    9     7    10    1
   10    10    11    1
   11    10    12    1
   12    10    13    1
   13    13    14    1
   14    13    15    1
   15    13    16    1
   16    16    17    1
   17    16    18    1
   18    16    19    1
   19    19    20    1
   20    19    21    1
   21    19    22    1
   22    22    23    1
   23    22    24    1
   24    22    25    1
@<TRIPOS>SUBSTRUCTURE
       1 MOL1            1 RESIDUE      1      MOL     
@<SCITEGIC>MOL_PROPERTY
VConf Rank
SciTegic.value.IntegerValue
429

@<SCITEGIC>MOL_PROPERTY
Conf_Id
SciTegic.value.IntegerValue
17

@<SCITEGIC>MOL_PROPERTY
Delta U+W
SciTegic.value.DoubleValue
0.219

@<SCITEGIC>MOL_PROPERTY
U+W
SciTegic.value.DoubleValue
-51.411

@<SCITEGIC>MOL_PROPERTY
Grad RMS
SciTegic.value.DoubleValue
0.000000

@<SCITEGIC>MOL_PROPERTY
U
SciTegic.value.DoubleValue
7.701

@<SCITEGIC>MOL_PROPERTY
W
SciTegic.value.DoubleValue
-59.111

@<SCITEGIC>MOL_PROPERTY
W(PB)
SciTegic.value.DoubleValue
-61.599

@<SCITEGIC>MOL_PROPERTY
W(SA)
SciTegic.value.DoubleValue
2.488

@<SCITEGIC>MOL_PROPERTY
Valence
SciTegic.value.DoubleValue
8.550

@<SCITEGIC>MOL_PROPERTY
Coulomb
SciTegic.value.DoubleValue
-1.988

@<SCITEGIC>MOL_PROPERTY
VdW
SciTegic.value.DoubleValue
1.139

@<SCITEGIC>MOL_PROPERTY
VdW6
SciTegic.value.DoubleValue
-8.988

@<SCITEGIC>MOL_PROPERTY
VdW12
SciTegic.value.DoubleValue
10.127

@<SCITEGIC>MOL_PROPERTY
Bond
SciTegic.value.DoubleValue
0.191

@<SCITEGIC>MOL_PROPERTY
Angle
SciTegic.value.DoubleValue
2.738

@<SCITEGIC>MOL_PROPERTY
Pdih
SciTegic.value.DoubleValue
5.621

@<SCITEGIC>MOL_PROPERTY
Idih
SciTegic.value.DoubleValue
0.001

@<SCITEGIC>MOL_PROPERTY
Tether
SciTegic.value.DoubleValue
0.000

@<TRIPOS>MOLECULE
guest-8_confgen4.mol2 : confsearch ligand conformer 430
          25          24           1
SMALL
USER_CHARGES
 
@<TRIPOS>ATOM
       1    C1      21.799799   16.197532   24.515906 C.2        1 MOL1         0.6168
       2    O1      21.533715   15.944951   25.674554 O.co2      1 MOL1        -0.6703
       3    O2      22.914318   16.490899   24.130085 O.co2      1 MOL1        -0.6703
       4    C2      20.678107   16.123985   23.483758 C.3        1 MOL1        -0.1963
       5    H1      19.861637   15.519298   23.896680 H          1 MOL1         0.0750
       6    H2      21.066895   15.580785   22.614413 H          1 MOL1         0.0750
       7    C3      20.145607   17.509171   23.033647 C.3        1 MOL1        -0.1860
       8    H3      20.983130   18.101909   22.642643 H          1 MOL1         0.0752
       9    H4      19.440902   17.367891   22.203167 H          1 MOL1         0.0752
      10    C4      19.438787   18.272367   24.179374 C.3        1 MOL1        -0.1858
      11    H5      20.154873   18.481064   24.986212 H          1 MOL1         0.0752
      12    H6      18.663679   17.626282   24.613689 H          1 MOL1         0.0752
      13    C5      18.777361   19.594416   23.722840 C.3        1 MOL1        -0.1858
      14    H7      18.054408   19.387103   22.922084 H          1 MOL1         0.0752
      15    H8      18.200697   20.003076   24.563860 H          1 MOL1         0.0752
      16    C6      19.792883   20.658594   23.246108 C.3        1 MOL1        -0.1858
      17    H9      20.326451   20.296142   22.357929 H          1 MOL1         0.0752
      18    H10     20.546457   20.823182   24.028369 H          1 MOL1         0.0752
      19    C7      19.101000   21.995991   22.907858 C.3        1 MOL1        -0.1834
      20    H11     18.345170   21.834412   22.126788 H          1 MOL1         0.0752
      21    H12     18.570082   22.373231   23.792867 H          1 MOL1         0.0752
      22    C8      20.114459   23.054960   22.429101 C.3        1 MOL1        -0.2849
      23    H13     20.637879   22.717272   21.525009 H          1 MOL1         0.0764
      24    H14     19.605748   23.998786   22.193598 H          1 MOL1         0.0764
      25    H15     20.865159   23.258632   23.203922 H          1 MOL1         0.0764
@<TRIPOS>BOND
    1     1     2    1
    2     1     3    2
    3     1     4    1
    4     4     5    1
    5     4     6    1
    6     4     7    1
    7     7     8    1
    8     7     9    1
    9     7    10    1
   10    10    11    1
   11    10    12    1
   12    10    13    1
   13    13    14    1
   14    13    15    1
   15    13    16    1
   16    16    17    1
   17    16    18    1
   18    16    19    1
   19    19    20    1
   20    19    21    1
   21    19    22    1
   22    22    23    1
   23    22    24    1
   24    22    25    1
@<TRIPOS>SUBSTRUCTURE
       1 MOL1            1 RESIDUE      1      MOL     
@<SCITEGIC>MOL_PROPERTY
VConf Rank
SciTegic.value.IntegerValue
430

@<SCITEGIC>MOL_PROPERTY
Conf_Id
SciTegic.value.IntegerValue
142

@<SCITEGIC>MOL_PROPERTY
Delta U+W
SciTegic.value.DoubleValue
0.593

@<SCITEGIC>MOL_PROPERTY
U+W
SciTegic.value.DoubleValue
-51.037

@<SCITEGIC>MOL_PROPERTY
Grad RMS
SciTegic.value.DoubleValue
0.000000

@<SCITEGIC>MOL_PROPERTY
U
SciTegic.value.DoubleValue
8.903

@<SCITEGIC>MOL_PROPERTY
W
SciTegic.value.DoubleValue
-59.940

@<SCITEGIC>MOL_PROPERTY
W(PB)
SciTegic.value.DoubleValue
-62.418

@<SCITEGIC>MOL_PROPERTY
W(SA)
SciTegic.value.DoubleValue
2.478

@<SCITEGIC>MOL_PROPERTY
Valence
SciTegic.value.DoubleValue
8.305

@<SCITEGIC>MOL_PROPERTY
Coulomb
SciTegic.value.DoubleValue
-0.223

@<SCITEGIC>MOL_PROPERTY
VdW
SciTegic.value.DoubleValue
0.821

@<SCITEGIC>MOL_PROPERTY
VdW6
SciTegic.value.DoubleValue
-9.236

@<SCITEGIC>MOL_PROPERTY
VdW12
SciTegic.value.DoubleValue
10.057

@<SCITEGIC>MOL_PROPERTY
Bond
SciTegic.value.DoubleValue
0.173

@<SCITEGIC>MOL_PROPERTY
Angle
SciTegic.value.DoubleValue
2.663

@<SCITEGIC>MOL_PROPERTY
Pdih
SciTegic.value.DoubleValue
5.469

@<SCITEGIC>MOL_PROPERTY
Idih
SciTegic.value.DoubleValue
0.001

@<SCITEGIC>MOL_PROPERTY
Tether
SciTegic.value.DoubleValue
0.000

@<TRIPOS>MOLECULE
guest-8_confgen4.mol2 : confsearch ligand conformer 431
          25          24           1
SMALL
USER_CHARGES
 
@<TRIPOS>ATOM
       1    C1      21.416689   18.686314   26.700398 C.2        1 MOL1         0.6168
       2    O1      21.049788   18.870879   27.844460 O.co2      1 MOL1        -0.6703
       3    O2      21.972446   17.671536   26.328356 O.co2      1 MOL1        -0.6703
       4    C2      21.190604   19.802465   25.684509 C.3        1 MOL1        -0.1963
       5    H1      21.809097   19.604598   24.801552 H          1 MOL1         0.0750
       6    H2      21.570803   20.729740   26.128500 H          1 MOL1         0.0750
       7    C3      19.704464   19.998331   25.278115 C.3        1 MOL1        -0.1860
       8    H3      19.126435   20.262264   26.174441 H          1 MOL1         0.0752
       9    H4      19.624491   20.861175   24.604354 H          1 MOL1         0.0752
      10    C4      19.052372   18.756939   24.616023 C.3        1 MOL1        -0.1858
      11    H5      18.007583   18.994434   24.373929 H          1 MOL1         0.0752
      12    H6      19.013441   17.939735   25.349336 H          1 MOL1         0.0752
      13    C5      19.758806   18.240932   23.337346 C.3        1 MOL1        -0.1858
      14    H7      20.770869   17.893258   23.584341 H          1 MOL1         0.0752
      15    H8      19.215302   17.357587   22.975632 H          1 MOL1         0.0752
      16    C6      19.826292   19.289005   22.202597 C.3        1 MOL1        -0.1858
      17    H9      20.428918   20.148521   22.523812 H          1 MOL1         0.0752
      18    H10     18.816464   19.665457   21.989984 H          1 MOL1         0.0752
      19    C7      20.438195   18.697307   20.915389 C.3        1 MOL1        -0.1834
      20    H11     21.447539   18.317693   21.126562 H          1 MOL1         0.0752
      21    H12     19.838339   17.840102   20.579615 H          1 MOL1         0.0752
      22    C8      20.510414   19.745360   19.786645 C.3        1 MOL1        -0.2849
      23    H13     21.131689   20.600387   20.083817 H          1 MOL1         0.0764
      24    H14     20.947496   19.307769   18.879722 H          1 MOL1         0.0764
      25    H15     19.509806   20.119973   19.534058 H          1 MOL1         0.0764
@<TRIPOS>BOND
    1     1     2    1
    2     1     3    2
    3     1     4    1
    4     4     5    1
    5     4     6    1
    6     4     7    1
    7     7     8    1
    8     7     9    1
    9     7    10    1
   10    10    11    1
   11    10    12    1
   12    10    13    1
   13    13    14    1
   14    13    15    1
   15    13    16    1
   16    16    17    1
   17    16    18    1
   18    16    19    1
   19    19    20    1
   20    19    21    1
   21    19    22    1
   22    22    23    1
   23    22    24    1
   24    22    25    1
@<TRIPOS>SUBSTRUCTURE
       1 MOL1            1 RESIDUE      1      MOL     
@<SCITEGIC>MOL_PROPERTY
VConf Rank
SciTegic.value.IntegerValue
431

@<SCITEGIC>MOL_PROPERTY
Conf_Id
SciTegic.value.IntegerValue
135

@<SCITEGIC>MOL_PROPERTY
Delta U+W
SciTegic.value.DoubleValue
1.314

@<SCITEGIC>MOL_PROPERTY
U+W
SciTegic.value.DoubleValue
-50.316

@<SCITEGIC>MOL_PROPERTY
Grad RMS
SciTegic.value.DoubleValue
0.000000

@<SCITEGIC>MOL_PROPERTY
U
SciTegic.value.DoubleValue
9.773

@<SCITEGIC>MOL_PROPERTY
W
SciTegic.value.DoubleValue
-60.088

@<SCITEGIC>MOL_PROPERTY
W(PB)
SciTegic.value.DoubleValue
-62.535

@<SCITEGIC>MOL_PROPERTY
W(SA)
SciTegic.value.DoubleValue
2.447

@<SCITEGIC>MOL_PROPERTY
Valence
SciTegic.value.DoubleValue
8.741

@<SCITEGIC>MOL_PROPERTY
Coulomb
SciTegic.value.DoubleValue
0.479

@<SCITEGIC>MOL_PROPERTY
VdW
SciTegic.value.DoubleValue
0.552

@<SCITEGIC>MOL_PROPERTY
VdW6
SciTegic.value.DoubleValue
-10.627

@<SCITEGIC>MOL_PROPERTY
VdW12
SciTegic.value.DoubleValue
11.179

@<SCITEGIC>MOL_PROPERTY
Bond
SciTegic.value.DoubleValue
0.227

@<SCITEGIC>MOL_PROPERTY
Angle
SciTegic.value.DoubleValue
3.155

@<SCITEGIC>MOL_PROPERTY
Pdih
SciTegic.value.DoubleValue
5.358

@<SCITEGIC>MOL_PROPERTY
Idih
SciTegic.value.DoubleValue
0.001

@<SCITEGIC>MOL_PROPERTY
Tether
SciTegic.value.DoubleValue
0.000

@<TRIPOS>MOLECULE
guest-8_confgen4.mol2 : confsearch ligand conformer 432
          25          24           1
SMALL
USER_CHARGES
 
@<TRIPOS>ATOM
       1    C1      17.406445   19.863036   20.080351 C.2        1 MOL1         0.6168
       2    O1      16.872718   20.954209   20.115238 O.co2      1 MOL1        -0.6703
       3    O2      17.473736   19.178446   19.078562 O.co2      1 MOL1        -0.6703
       4    C2      18.046992   19.333471   21.358413 C.3        1 MOL1        -0.1963
       5    H1      17.967918   18.239841   21.350081 H          1 MOL1         0.0750
       6    H2      17.451548   19.696457   22.203314 H          1 MOL1         0.0750
       7    C3      19.530420   19.761534   21.506835 C.3        1 MOL1        -0.1860
       8    H3      20.072566   19.465756   20.597968 H          1 MOL1         0.0752
       9    H4      19.594052   20.857039   21.562525 H          1 MOL1         0.0752
      10    C4      20.239267   19.132605   22.730321 C.3        1 MOL1        -0.1858
      11    H5      21.308398   19.368534   22.657617 H          1 MOL1         0.0752
      12    H6      20.152650   18.038491   22.685712 H          1 MOL1         0.0752
      13    C5      19.701321   19.647560   24.086750 C.3        1 MOL1        -0.1858
      14    H7      19.845963   20.734782   24.146923 H          1 MOL1         0.0752
      15    H8      18.618989   19.477048   24.141127 H          1 MOL1         0.0752
      16    C6      20.347878   18.973574   25.323348 C.3        1 MOL1        -0.1858
      17    H9      20.128865   17.897034   25.322298 H          1 MOL1         0.0752
      18    H10     19.851510   19.377370   26.216344 H          1 MOL1         0.0752
      19    C7      21.871702   19.211174   25.470679 C.3        1 MOL1        -0.1834
      20    H11     22.159760   20.153115   24.983849 H          1 MOL1         0.0752
      21    H12     22.106916   19.334641   26.536856 H          1 MOL1         0.0752
      22    C8      22.724095   18.043359   24.925793 C.3        1 MOL1        -0.2849
      23    H13     22.544428   17.870019   23.858651 H          1 MOL1         0.0764
      24    H14     23.793266   18.254769   25.056129 H          1 MOL1         0.0764
      25    H15     22.498313   17.112513   25.462104 H          1 MOL1         0.0764
@<TRIPOS>BOND
    1     1     2    1
    2     1     3    2
    3     1     4    1
    4     4     5    1
    5     4     6    1
    6     4     7    1
    7     7     8    1
    8     7     9    1
    9     7    10    1
   10    10    11    1
   11    10    12    1
   12    10    13    1
   13    13    14    1
   14    13    15    1
   15    13    16    1
   16    16    17    1
   17    16    18    1
   18    16    19    1
   19    19    20    1
   20    19    21    1
   21    19    22    1
   22    22    23    1
   23    22    24    1
   24    22    25    1
@<TRIPOS>SUBSTRUCTURE
       1 MOL1            1 RESIDUE      1      MOL     
@<SCITEGIC>MOL_PROPERTY
VConf Rank
SciTegic.value.IntegerValue
432

@<SCITEGIC>MOL_PROPERTY
Conf_Id
SciTegic.value.IntegerValue
19

@<SCITEGIC>MOL_PROPERTY
Delta U+W
SciTegic.value.DoubleValue
3.222

@<SCITEGIC>MOL_PROPERTY
U+W
SciTegic.value.DoubleValue
-48.407

@<SCITEGIC>MOL_PROPERTY
Grad RMS
SciTegic.value.DoubleValue
0.000000

@<SCITEGIC>MOL_PROPERTY
U
SciTegic.value.DoubleValue
10.617

@<SCITEGIC>MOL_PROPERTY
W
SciTegic.value.DoubleValue
-59.025

@<SCITEGIC>MOL_PROPERTY
W(PB)
SciTegic.value.DoubleValue
-61.462

@<SCITEGIC>MOL_PROPERTY
W(SA)
SciTegic.value.DoubleValue
2.437

@<SCITEGIC>MOL_PROPERTY
Valence
SciTegic.value.DoubleValue
11.188

@<SCITEGIC>MOL_PROPERTY
Coulomb
SciTegic.value.DoubleValue
-1.778

@<SCITEGIC>MOL_PROPERTY
VdW
SciTegic.value.DoubleValue
1.208

@<SCITEGIC>MOL_PROPERTY
VdW6
SciTegic.value.DoubleValue
-9.786

@<SCITEGIC>MOL_PROPERTY
VdW12
SciTegic.value.DoubleValue
10.993

@<SCITEGIC>MOL_PROPERTY
Bond
SciTegic.value.DoubleValue
0.241

@<SCITEGIC>MOL_PROPERTY
Angle
SciTegic.value.DoubleValue
3.294

@<SCITEGIC>MOL_PROPERTY
Pdih
SciTegic.value.DoubleValue
7.653

@<SCITEGIC>MOL_PROPERTY
Idih
SciTegic.value.DoubleValue
0.001

@<SCITEGIC>MOL_PROPERTY
Tether
SciTegic.value.DoubleValue
0.000

@<TRIPOS>MOLECULE
guest-8_confgen4.mol2 : confsearch ligand conformer 433
          25          24           1
SMALL
USER_CHARGES
 
@<TRIPOS>ATOM
       1    C1      18.163807   20.775591   26.654899 C.2        1 MOL1         0.6168
       2    O1      17.672774   21.871563   26.469231 O.co2      1 MOL1        -0.6703
       3    O2      18.417642   20.329690   27.756493 O.co2      1 MOL1        -0.6703
       4    C2      18.501640   19.922228   25.437596 C.3        1 MOL1        -0.1963
       5    H1      17.754187   20.134707   24.665366 H          1 MOL1         0.0750
       6    H2      18.388487   18.868607   25.719422 H          1 MOL1         0.0750
       7    C3      19.934192   20.182134   24.902740 C.3        1 MOL1        -0.1860
       8    H3      20.022323   21.228232   24.578403 H          1 MOL1         0.0752
       9    H4      20.645391   20.053701   25.730477 H          1 MOL1         0.0752
      10    C4      20.346835   19.238771   23.747435 C.3        1 MOL1        -0.1858
      11    H5      20.233950   18.193446   24.065449 H          1 MOL1         0.0752
      12    H6      21.414714   19.395827   23.550062 H          1 MOL1         0.0752
      13    C5      19.552861   19.479428   22.441237 C.3        1 MOL1        -0.1858
      14    H7      18.478207   19.391045   22.643190 H          1 MOL1         0.0752
      15    H8      19.718874   20.509790   22.098612 H          1 MOL1         0.0752
      16    C6      19.900387   18.494534   21.296387 C.3        1 MOL1        -0.1858
      17    H9      19.241045   18.727650   20.449159 H          1 MOL1         0.0752
      18    H10     19.649542   17.467460   21.594885 H          1 MOL1         0.0752
      19    C7      21.366115   18.566318   20.799705 C.3        1 MOL1        -0.1834
      20    H11     21.375259   18.428052   19.709705 H          1 MOL1         0.0752
      21    H12     21.782730   19.566226   20.983691 H          1 MOL1         0.0752
      22    C8      22.273417   17.483787   21.425959 C.3        1 MOL1        -0.2849
      23    H13     21.907620   16.478430   21.179931 H          1 MOL1         0.0764
      24    H14     23.297709   17.571552   21.041342 H          1 MOL1         0.0764
      25    H15     22.316940   17.569203   22.517714 H          1 MOL1         0.0764
@<TRIPOS>BOND
    1     1     2    1
    2     1     3    2
    3     1     4    1
    4     4     5    1
    5     4     6    1
    6     4     7    1
    7     7     8    1
    8     7     9    1
    9     7    10    1
   10    10    11    1
   11    10    12    1
   12    10    13    1
   13    13    14    1
   14    13    15    1
   15    13    16    1
   16    16    17    1
   17    16    18    1
   18    16    19    1
   19    19    20    1
   20    19    21    1
   21    19    22    1
   22    22    23    1
   23    22    24    1
   24    22    25    1
@<TRIPOS>SUBSTRUCTURE
       1 MOL1            1 RESIDUE      1      MOL     
@<SCITEGIC>MOL_PROPERTY
VConf Rank
SciTegic.value.IntegerValue
433

@<SCITEGIC>MOL_PROPERTY
Conf_Id
SciTegic.value.IntegerValue
20

@<SCITEGIC>MOL_PROPERTY
Delta U+W
SciTegic.value.DoubleValue
3.224

@<SCITEGIC>MOL_PROPERTY
U+W
SciTegic.value.DoubleValue
-48.406

@<SCITEGIC>MOL_PROPERTY
Grad RMS
SciTegic.value.DoubleValue
0.000000

@<SCITEGIC>MOL_PROPERTY
U
SciTegic.value.DoubleValue
10.617

@<SCITEGIC>MOL_PROPERTY
W
SciTegic.value.DoubleValue
-59.023

@<SCITEGIC>MOL_PROPERTY
W(PB)
SciTegic.value.DoubleValue
-61.467

@<SCITEGIC>MOL_PROPERTY
W(SA)
SciTegic.value.DoubleValue
2.444

@<SCITEGIC>MOL_PROPERTY
Valence
SciTegic.value.DoubleValue
11.188

@<SCITEGIC>MOL_PROPERTY
Coulomb
SciTegic.value.DoubleValue
-1.778

@<SCITEGIC>MOL_PROPERTY
VdW
SciTegic.value.DoubleValue
1.208

@<SCITEGIC>MOL_PROPERTY
VdW6
SciTegic.value.DoubleValue
-9.786

@<SCITEGIC>MOL_PROPERTY
VdW12
SciTegic.value.DoubleValue
10.993

@<SCITEGIC>MOL_PROPERTY
Bond
SciTegic.value.DoubleValue
0.241

@<SCITEGIC>MOL_PROPERTY
Angle
SciTegic.value.DoubleValue
3.294

@<SCITEGIC>MOL_PROPERTY
Pdih
SciTegic.value.DoubleValue
7.653

@<SCITEGIC>MOL_PROPERTY
Idih
SciTegic.value.DoubleValue
0.001

@<SCITEGIC>MOL_PROPERTY
Tether
SciTegic.value.DoubleValue
0.000

@<TRIPOS>MOLECULE
guest-8_confgen4.mol2 : confsearch ligand conformer 434
          25          24           1
SMALL
USER_CHARGES
 
@<TRIPOS>ATOM
       1    C1      18.471251   17.213150   25.573237 C.2        1 MOL1         0.6168
       2    O1      17.488951   16.795297   24.991747 O.co2      1 MOL1        -0.6703
       3    O2      18.425487   18.059712   26.444131 O.co2      1 MOL1        -0.6703
       4    C2      19.828241   16.595951   25.240019 C.3        1 MOL1        -0.1963
       5    H1      19.763420   15.538798   25.522319 H          1 MOL1         0.0750
       6    H2      20.592738   17.046539   25.884460 H          1 MOL1         0.0750
       7    C3      20.254162   16.695975   23.748143 C.3        1 MOL1        -0.1860
       8    H3      21.020275   15.931154   23.562268 H          1 MOL1         0.0752
       9    H4      19.406240   16.438036   23.098459 H          1 MOL1         0.0752
      10    C4      20.844698   18.065945   23.331568 C.3        1 MOL1        -0.1858
      11    H5      21.245391   17.970051   22.313122 H          1 MOL1         0.0752
      12    H6      21.698768   18.312126   23.977164 H          1 MOL1         0.0752
      13    C5      19.823816   19.226040   23.356200 C.3        1 MOL1        -0.1858
      14    H7      18.923946   18.937538   22.795803 H          1 MOL1         0.0752
      15    H8      19.509890   19.424391   24.388727 H          1 MOL1         0.0752
      16    C6      20.414974   20.520014   22.755590 C.3        1 MOL1        -0.1858
      17    H9      20.725468   20.335723   21.717998 H          1 MOL1         0.0752
      18    H10     21.317346   20.804227   23.314142 H          1 MOL1         0.0752
      19    C7      19.400211   21.682096   22.790151 C.3        1 MOL1        -0.1834
      20    H11     18.496591   21.401221   22.231547 H          1 MOL1         0.0752
      21    H12     19.088499   21.870520   23.826943 H          1 MOL1         0.0752
      22    C8      19.993388   22.972855   22.190358 C.3        1 MOL1        -0.2849
      23    H13     20.284945   22.821303   21.142791 H          1 MOL1         0.0764
      24    H14     19.258746   23.787893   22.223182 H          1 MOL1         0.0764
      25    H15     20.881368   23.294168   22.750379 H          1 MOL1         0.0764
@<TRIPOS>BOND
    1     1     2    1
    2     1     3    2
    3     1     4    1
    4     4     5    1
    5     4     6    1
    6     4     7    1
    7     7     8    1
    8     7     9    1
    9     7    10    1
   10    10    11    1
   11    10    12    1
   12    10    13    1
   13    13    14    1
   14    13    15    1
   15    13    16    1
   16    16    17    1
   17    16    18    1
   18    16    19    1
   19    19    20    1
   20    19    21    1
   21    19    22    1
   22    22    23    1
   23    22    24    1
   24    22    25    1
@<TRIPOS>SUBSTRUCTURE
       1 MOL1            1 RESIDUE      1      MOL     
@<SCITEGIC>MOL_PROPERTY
VConf Rank
SciTegic.value.IntegerValue
434

@<SCITEGIC>MOL_PROPERTY
Conf_Id
SciTegic.value.IntegerValue
24

@<SCITEGIC>MOL_PROPERTY
Delta U+W
SciTegic.value.DoubleValue
1.784

@<SCITEGIC>MOL_PROPERTY
U+W
SciTegic.value.DoubleValue
-49.846

@<SCITEGIC>MOL_PROPERTY
Grad RMS
SciTegic.value.DoubleValue
0.000000

@<SCITEGIC>MOL_PROPERTY
U
SciTegic.value.DoubleValue
10.904

@<SCITEGIC>MOL_PROPERTY
W
SciTegic.value.DoubleValue
-60.749

@<SCITEGIC>MOL_PROPERTY
W(PB)
SciTegic.value.DoubleValue
-63.220

@<SCITEGIC>MOL_PROPERTY
W(SA)
SciTegic.value.DoubleValue
2.471

@<SCITEGIC>MOL_PROPERTY
Valence
SciTegic.value.DoubleValue
9.445

@<SCITEGIC>MOL_PROPERTY
Coulomb
SciTegic.value.DoubleValue
0.780

@<SCITEGIC>MOL_PROPERTY
VdW
SciTegic.value.DoubleValue
0.679

@<SCITEGIC>MOL_PROPERTY
VdW6
SciTegic.value.DoubleValue
-10.008

@<SCITEGIC>MOL_PROPERTY
VdW12
SciTegic.value.DoubleValue
10.687

@<SCITEGIC>MOL_PROPERTY
Bond
SciTegic.value.DoubleValue
0.201

@<SCITEGIC>MOL_PROPERTY
Angle
SciTegic.value.DoubleValue
3.198

@<SCITEGIC>MOL_PROPERTY
Pdih
SciTegic.value.DoubleValue
6.039

@<SCITEGIC>MOL_PROPERTY
Idih
SciTegic.value.DoubleValue
0.006

@<SCITEGIC>MOL_PROPERTY
Tether
SciTegic.value.DoubleValue
0.000

@<TRIPOS>MOLECULE
guest-8_confgen4.mol2 : confsearch ligand conformer 435
          25          24           1
SMALL
USER_CHARGES
 
@<TRIPOS>ATOM
       1    C1      22.845730   20.105733   24.900009 C.2        1 MOL1         0.6168
       2    O1      23.759549   19.529796   24.342448 O.co2      1 MOL1        -0.6703
       3    O2      22.523405   21.250850   24.650948 O.co2      1 MOL1        -0.6703
       4    C2      22.104977   19.376787   26.019524 C.3        1 MOL1        -0.1963
       5    H1      21.351944   20.050306   26.446255 H          1 MOL1         0.0750
       6    H2      22.843498   19.192109   26.808160 H          1 MOL1         0.0750
       7    C3      21.450982   18.026308   25.612583 C.3        1 MOL1        -0.1860
       8    H3      22.151528   17.439915   25.001868 H          1 MOL1         0.0752
       9    H4      21.284822   17.440912   26.526985 H          1 MOL1         0.0752
      10    C4      20.091113   18.156897   24.882660 C.3        1 MOL1        -0.1858
      11    H5      19.392070   18.733603   25.503614 H          1 MOL1         0.0752
      12    H6      19.658547   17.151910   24.783307 H          1 MOL1         0.0752
      13    C5      20.188068   18.796630   23.479105 C.3        1 MOL1        -0.1858
      14    H7      20.493677   19.846692   23.568439 H          1 MOL1         0.0752
      15    H8      20.963320   18.284352   22.892929 H          1 MOL1         0.0752
      16    C6      18.841295   18.729719   22.726577 C.3        1 MOL1        -0.1858
      17    H9      18.066354   19.238178   23.316464 H          1 MOL1         0.0752
      18    H10     18.528993   17.681474   22.623555 H          1 MOL1         0.0752
      19    C7      18.934021   19.378494   21.329485 C.3        1 MOL1        -0.1834
      20    H11     19.244534   20.427947   21.428655 H          1 MOL1         0.0752
      21    H12     19.707979   18.871623   20.736588 H          1 MOL1         0.0752
      22    C8      17.587808   19.310579   20.580642 C.3        1 MOL1        -0.2849
      23    H13     16.801814   19.837729   21.137149 H          1 MOL1         0.0764
      24    H14     17.672172   19.776217   19.590122 H          1 MOL1         0.0764
      25    H15     17.268807   18.269542   20.439746 H          1 MOL1         0.0764
@<TRIPOS>BOND
    1     1     2    1
    2     1     3    2
    3     1     4    1
    4     4     5    1
    5     4     6    1
    6     4     7    1
    7     7     8    1
    8     7     9    1
    9     7    10    1
   10    10    11    1
   11    10    12    1
   12    10    13    1
   13    13    14    1
   14    13    15    1
   15    13    16    1
   16    16    17    1
   17    16    18    1
   18    16    19    1
   19    19    20    1
   20    19    21    1
   21    19    22    1
   22    22    23    1
   23    22    24    1
   24    22    25    1
@<TRIPOS>SUBSTRUCTURE
       1 MOL1            1 RESIDUE      1      MOL     
@<SCITEGIC>MOL_PROPERTY
VConf Rank
SciTegic.value.IntegerValue
435

@<SCITEGIC>MOL_PROPERTY
Conf_Id
SciTegic.value.IntegerValue
9

@<SCITEGIC>MOL_PROPERTY
Delta U+W
SciTegic.value.DoubleValue
1.764

@<SCITEGIC>MOL_PROPERTY
U+W
SciTegic.value.DoubleValue
-49.865

@<SCITEGIC>MOL_PROPERTY
Grad RMS
SciTegic.value.DoubleValue
0.000000

@<SCITEGIC>MOL_PROPERTY
U
SciTegic.value.DoubleValue
10.902

@<SCITEGIC>MOL_PROPERTY
W
SciTegic.value.DoubleValue
-60.768

@<SCITEGIC>MOL_PROPERTY
W(PB)
SciTegic.value.DoubleValue
-63.223

@<SCITEGIC>MOL_PROPERTY
W(SA)
SciTegic.value.DoubleValue
2.456

@<SCITEGIC>MOL_PROPERTY
Valence
SciTegic.value.DoubleValue
9.445

@<SCITEGIC>MOL_PROPERTY
Coulomb
SciTegic.value.DoubleValue
0.778

@<SCITEGIC>MOL_PROPERTY
VdW
SciTegic.value.DoubleValue
0.679

@<SCITEGIC>MOL_PROPERTY
VdW6
SciTegic.value.DoubleValue
-10.007

@<SCITEGIC>MOL_PROPERTY
VdW12
SciTegic.value.DoubleValue
10.687

@<SCITEGIC>MOL_PROPERTY
Bond
SciTegic.value.DoubleValue
0.201

@<SCITEGIC>MOL_PROPERTY
Angle
SciTegic.value.DoubleValue
3.198

@<SCITEGIC>MOL_PROPERTY
Pdih
SciTegic.value.DoubleValue
6.040

@<SCITEGIC>MOL_PROPERTY
Idih
SciTegic.value.DoubleValue
0.006

@<SCITEGIC>MOL_PROPERTY
Tether
SciTegic.value.DoubleValue
0.000

@<TRIPOS>MOLECULE
guest-8_confgen4.mol2 : confsearch ligand conformer 436
          25          24           1
SMALL
USER_CHARGES
 
@<TRIPOS>ATOM
       1    C1      19.483631   17.081746   20.384846 C.2        1 MOL1         0.6168
       2    O1      20.134168   16.171440   20.858923 O.co2      1 MOL1        -0.6703
       3    O2      18.751360   16.956351   19.423126 O.co2      1 MOL1        -0.6703
       4    C2      19.575189   18.452520   21.045385 C.3        1 MOL1        -0.1963
       5    H1      19.459027   19.212659   20.263750 H          1 MOL1         0.0750
       6    H2      20.586269   18.562378   21.449256 H          1 MOL1         0.0750
       7    C3      18.505378   18.658212   22.150302 C.3        1 MOL1        -0.1860
       8    H3      17.515530   18.543861   21.687094 H          1 MOL1         0.0752
       9    H4      18.583011   17.863230   22.904882 H          1 MOL1         0.0752
      10    C4      18.576868   20.050161   22.828282 C.3        1 MOL1        -0.1858
      11    H5      17.552224   20.366320   23.067167 H          1 MOL1         0.0752
      12    H6      18.962991   20.798669   22.122957 H          1 MOL1         0.0752
      13    C5      19.393221   20.086867   24.144710 C.3        1 MOL1        -0.1858
      14    H7      19.305394   21.092848   24.576957 H          1 MOL1         0.0752
      15    H8      18.936955   19.398540   24.868210 H          1 MOL1         0.0752
      16    C6      20.891878   19.743979   23.972582 C.3        1 MOL1        -0.1858
      17    H9      21.301723   20.331266   23.139805 H          1 MOL1         0.0752
      18    H10     21.001736   18.685935   23.701063 H          1 MOL1         0.0752
      19    C7      21.733807   20.028774   25.238118 C.3        1 MOL1        -0.1834
      20    H11     22.793010   19.854388   25.003934 H          1 MOL1         0.0752
      21    H12     21.647054   21.089590   25.510839 H          1 MOL1         0.0752
      22    C8      21.338497   19.148720   26.443756 C.3        1 MOL1        -0.2849
      23    H13     21.393421   18.082889   26.186594 H          1 MOL1         0.0764
      24    H14     22.015637   19.328133   27.288825 H          1 MOL1         0.0764
      25    H15     20.318375   19.369136   26.782342 H          1 MOL1         0.0764
@<TRIPOS>BOND
    1     1     2    1
    2     1     3    2
    3     1     4    1
    4     4     5    1
    5     4     6    1
    6     4     7    1
    7     7     8    1
    8     7     9    1
    9     7    10    1
   10    10    11    1
   11    10    12    1
   12    10    13    1
   13    13    14    1
   14    13    15    1
   15    13    16    1
   16    16    17    1
   17    16    18    1
   18    16    19    1
   19    19    20    1
   20    19    21    1
   21    19    22    1
   22    22    23    1
   23    22    24    1
   24    22    25    1
@<TRIPOS>SUBSTRUCTURE
       1 MOL1            1 RESIDUE      1      MOL     
@<SCITEGIC>MOL_PROPERTY
VConf Rank
SciTegic.value.IntegerValue
436

@<SCITEGIC>MOL_PROPERTY
Conf_Id
SciTegic.value.IntegerValue
89

@<SCITEGIC>MOL_PROPERTY
Delta U+W
SciTegic.value.DoubleValue
2.903

@<SCITEGIC>MOL_PROPERTY
U+W
SciTegic.value.DoubleValue
-48.726

@<SCITEGIC>MOL_PROPERTY
Grad RMS
SciTegic.value.DoubleValue
0.000000

@<SCITEGIC>MOL_PROPERTY
U
SciTegic.value.DoubleValue
10.996

@<SCITEGIC>MOL_PROPERTY
W
SciTegic.value.DoubleValue
-59.723

@<SCITEGIC>MOL_PROPERTY
W(PB)
SciTegic.value.DoubleValue
-62.151

@<SCITEGIC>MOL_PROPERTY
W(SA)
SciTegic.value.DoubleValue
2.428

@<SCITEGIC>MOL_PROPERTY
Valence
SciTegic.value.DoubleValue
10.985

@<SCITEGIC>MOL_PROPERTY
Coulomb
SciTegic.value.DoubleValue
-0.995

@<SCITEGIC>MOL_PROPERTY
VdW
SciTegic.value.DoubleValue
1.006

@<SCITEGIC>MOL_PROPERTY
VdW6
SciTegic.value.DoubleValue
-10.062

@<SCITEGIC>MOL_PROPERTY
VdW12
SciTegic.value.DoubleValue
11.069

@<SCITEGIC>MOL_PROPERTY
Bond
SciTegic.value.DoubleValue
0.238

@<SCITEGIC>MOL_PROPERTY
Angle
SciTegic.value.DoubleValue
3.202

@<SCITEGIC>MOL_PROPERTY
Pdih
SciTegic.value.DoubleValue
7.544

@<SCITEGIC>MOL_PROPERTY
Idih
SciTegic.value.DoubleValue
0.001

@<SCITEGIC>MOL_PROPERTY
Tether
SciTegic.value.DoubleValue
0.000

@<TRIPOS>MOLECULE
guest-8_confgen4.mol2 : confsearch ligand conformer 437
          25          24           1
SMALL
USER_CHARGES
 
@<TRIPOS>ATOM
       1    C1      21.515558   20.455177   26.301602 C.2        1 MOL1         0.6168
       2    O1      22.672977   20.139928   26.106001 O.co2      1 MOL1        -0.6703
       3    O2      21.127785   21.607139   26.316520 O.co2      1 MOL1        -0.6703
       4    C2      20.509751   19.347274   26.608443 C.3        1 MOL1        -0.1963
       5    H1      20.169635   19.517289   27.636496 H          1 MOL1         0.0750
       6    H2      21.030206   18.381929   26.606029 H          1 MOL1         0.0750
       7    C3      19.272033   19.295089   25.668810 C.3        1 MOL1        -0.1860
       8    H3      18.472753   18.754119   26.193163 H          1 MOL1         0.0752
       9    H4      18.887168   20.310145   25.498185 H          1 MOL1         0.0752
      10    C4      19.510864   18.582795   24.313992 C.3        1 MOL1        -0.1858
      11    H5      18.535790   18.461951   23.825989 H          1 MOL1         0.0752
      12    H6      19.894881   17.569230   24.492230 H          1 MOL1         0.0752
      13    C5      20.468163   19.341855   23.363313 C.3        1 MOL1        -0.1858
      14    H7      20.121005   20.375593   23.230505 H          1 MOL1         0.0752
      15    H8      21.461408   19.403250   23.824324 H          1 MOL1         0.0752
      16    C6      20.631204   18.665445   21.980829 C.3        1 MOL1        -0.1858
      17    H9      20.946968   17.621985   22.116148 H          1 MOL1         0.0752
      18    H10     21.446912   19.168851   21.444077 H          1 MOL1         0.0752
      19    C7      19.355430   18.717753   21.109563 C.3        1 MOL1        -0.1834
      20    H11     18.545895   18.149919   21.585955 H          1 MOL1         0.0752
      21    H12     19.009544   19.756869   21.021315 H          1 MOL1         0.0752
      22    C8      19.608668   18.141546   19.701745 C.3        1 MOL1        -0.2849
      23    H13     19.930439   17.093419   19.758844 H          1 MOL1         0.0764
      24    H14     18.693692   18.182753   19.096623 H          1 MOL1         0.0764
      25    H15     20.387168   18.711289   19.177653 H          1 MOL1         0.0764
@<TRIPOS>BOND
    1     1     2    1
    2     1     3    2
    3     1     4    1
    4     4     5    1
    5     4     6    1
    6     4     7    1
    7     7     8    1
    8     7     9    1
    9     7    10    1
   10    10    11    1
   11    10    12    1
   12    10    13    1
   13    13    14    1
   14    13    15    1
   15    13    16    1
   16    16    17    1
   17    16    18    1
   18    16    19    1
   19    19    20    1
   20    19    21    1
   21    19    22    1
   22    22    23    1
   23    22    24    1
   24    22    25    1
@<TRIPOS>SUBSTRUCTURE
       1 MOL1            1 RESIDUE      1      MOL     
@<SCITEGIC>MOL_PROPERTY
VConf Rank
SciTegic.value.IntegerValue
437

@<SCITEGIC>MOL_PROPERTY
Conf_Id
SciTegic.value.IntegerValue
114

@<SCITEGIC>MOL_PROPERTY
Delta U+W
SciTegic.value.DoubleValue
2.758

@<SCITEGIC>MOL_PROPERTY
U+W
SciTegic.value.DoubleValue
-48.871

@<SCITEGIC>MOL_PROPERTY
Grad RMS
SciTegic.value.DoubleValue
0.000000

@<SCITEGIC>MOL_PROPERTY
U
SciTegic.value.DoubleValue
11.422

@<SCITEGIC>MOL_PROPERTY
W
SciTegic.value.DoubleValue
-60.293

@<SCITEGIC>MOL_PROPERTY
W(PB)
SciTegic.value.DoubleValue
-62.719

@<SCITEGIC>MOL_PROPERTY
W(SA)
SciTegic.value.DoubleValue
2.425

@<SCITEGIC>MOL_PROPERTY
Valence
SciTegic.value.DoubleValue
10.135

@<SCITEGIC>MOL_PROPERTY
Coulomb
SciTegic.value.DoubleValue
0.369

@<SCITEGIC>MOL_PROPERTY
VdW
SciTegic.value.DoubleValue
0.918

@<SCITEGIC>MOL_PROPERTY
VdW6
SciTegic.value.DoubleValue
-10.482

@<SCITEGIC>MOL_PROPERTY
VdW12
SciTegic.value.DoubleValue
11.400

@<SCITEGIC>MOL_PROPERTY
Bond
SciTegic.value.DoubleValue
0.245

@<SCITEGIC>MOL_PROPERTY
Angle
SciTegic.value.DoubleValue
3.539

@<SCITEGIC>MOL_PROPERTY
Pdih
SciTegic.value.DoubleValue
6.346

@<SCITEGIC>MOL_PROPERTY
Idih
SciTegic.value.DoubleValue
0.006

@<SCITEGIC>MOL_PROPERTY
Tether
SciTegic.value.DoubleValue
0.000

@<TRIPOS>MOLECULE
guest-8_confgen4.mol2 : confsearch ligand conformer 438
          25          24           1
SMALL
USER_CHARGES
 
@<TRIPOS>ATOM
       1    C1      17.860947   16.536853   25.015154 C.2        1 MOL1         0.6168
       2    O1      17.955210   15.530403   24.340443 O.co2      1 MOL1        -0.6703
       3    O2      18.159202   16.588099   26.192233 O.co2      1 MOL1        -0.6703
       4    C2      17.319035   17.801715   24.355303 C.3        1 MOL1        -0.1963
       5    H1      16.582803   18.239491   25.039622 H          1 MOL1         0.0750
       6    H2      16.776717   17.517028   23.445566 H          1 MOL1         0.0750
       7    C3      18.408396   18.854442   24.023589 C.3        1 MOL1        -0.1860
       8    H3      17.920617   19.774947   23.675747 H          1 MOL1         0.0752
       9    H4      18.947776   19.109084   24.945302 H          1 MOL1         0.0752
      10    C4      19.398473   18.360387   22.941502 C.3        1 MOL1        -0.1858
      11    H5      18.828121   18.023571   22.065091 H          1 MOL1         0.0752
      12    H6      19.946519   17.481937   23.309296 H          1 MOL1         0.0752
      13    C5      20.405990   19.442097   22.483793 C.3        1 MOL1        -0.1858
      14    H7      20.959539   19.046522   21.622812 H          1 MOL1         0.0752
      15    H8      19.860361   20.325048   22.124337 H          1 MOL1         0.0752
      16    C6      21.406543   19.859814   23.589664 C.3        1 MOL1        -0.1858
      17    H9      21.949304   18.975881   23.951263 H          1 MOL1         0.0752
      18    H10     20.854651   20.259765   24.449615 H          1 MOL1         0.0752
      19    C7      22.418032   20.935417   23.128790 C.3        1 MOL1        -0.1834
      20    H11     21.878382   21.816750   22.755537 H          1 MOL1         0.0752
      21    H12     22.994762   21.271908   24.001370 H          1 MOL1         0.0752
      22    C8      23.401751   20.431829   22.050085 C.3        1 MOL1        -0.2849
      23    H13     24.154861   21.199405   21.829733 H          1 MOL1         0.0764
      24    H14     23.927997   19.529800   22.388498 H          1 MOL1         0.0764
      25    H15     22.883822   20.197326   21.111914 H          1 MOL1         0.0764
@<TRIPOS>BOND
    1     1     2    1
    2     1     3    2
    3     1     4    1
    4     4     5    1
    5     4     6    1
    6     4     7    1
    7     7     8    1
    8     7     9    1
    9     7    10    1
   10    10    11    1
   11    10    12    1
   12    10    13    1
   13    13    14    1
   14    13    15    1
   15    13    16    1
   16    16    17    1
   17    16    18    1
   18    16    19    1
   19    19    20    1
   20    19    21    1
   21    19    22    1
   22    22    23    1
   23    22    24    1
   24    22    25    1
@<TRIPOS>SUBSTRUCTURE
       1 MOL1            1 RESIDUE      1      MOL     
@<SCITEGIC>MOL_PROPERTY
VConf Rank
SciTegic.value.IntegerValue
438

@<SCITEGIC>MOL_PROPERTY
Conf_Id
SciTegic.value.IntegerValue
87

@<SCITEGIC>MOL_PROPERTY
Delta U+W
SciTegic.value.DoubleValue
1.453

@<SCITEGIC>MOL_PROPERTY
U+W
SciTegic.value.DoubleValue
-50.176

@<SCITEGIC>MOL_PROPERTY
Grad RMS
SciTegic.value.DoubleValue
0.000000

@<SCITEGIC>MOL_PROPERTY
U
SciTegic.value.DoubleValue
9.763

@<SCITEGIC>MOL_PROPERTY
W
SciTegic.value.DoubleValue
-59.940

@<SCITEGIC>MOL_PROPERTY
W(PB)
SciTegic.value.DoubleValue
-62.392

@<SCITEGIC>MOL_PROPERTY
W(SA)
SciTegic.value.DoubleValue
2.452

@<SCITEGIC>MOL_PROPERTY
Valence
SciTegic.value.DoubleValue
8.883

@<SCITEGIC>MOL_PROPERTY
Coulomb
SciTegic.value.DoubleValue
-0.122

@<SCITEGIC>MOL_PROPERTY
VdW
SciTegic.value.DoubleValue
1.003

@<SCITEGIC>MOL_PROPERTY
VdW6
SciTegic.value.DoubleValue
-9.782

@<SCITEGIC>MOL_PROPERTY
VdW12
SciTegic.value.DoubleValue
10.785

@<SCITEGIC>MOL_PROPERTY
Bond
SciTegic.value.DoubleValue
0.212

@<SCITEGIC>MOL_PROPERTY
Angle
SciTegic.value.DoubleValue
2.940

@<SCITEGIC>MOL_PROPERTY
Pdih
SciTegic.value.DoubleValue
5.730

@<SCITEGIC>MOL_PROPERTY
Idih
SciTegic.value.DoubleValue
0.001

@<SCITEGIC>MOL_PROPERTY
Tether
SciTegic.value.DoubleValue
0.000

@<TRIPOS>MOLECULE
guest-8_confgen4.mol2 : confsearch ligand conformer 439
          25          24           1
SMALL
USER_CHARGES
 
@<TRIPOS>ATOM
       1    C1      20.881582   20.624260   19.774361 C.2        1 MOL1         0.6168
       2    O1      21.008331   19.623622   19.096613 O.co2      1 MOL1        -0.6703
       3    O2      20.450118   21.676795   19.346866 O.co2      1 MOL1        -0.6703
       4    C2      21.268084   20.549954   21.247202 C.3        1 MOL1        -0.1963
       5    H1      21.646284   21.533667   21.550114 H          1 MOL1         0.0750
       6    H2      22.096928   19.838808   21.346524 H          1 MOL1         0.0750
       7    C3      20.089312   20.125994   22.157534 C.3        1 MOL1        -0.1860
       8    H3      19.264158   20.842048   22.041219 H          1 MOL1         0.0752
       9    H4      19.715716   19.149187   21.822783 H          1 MOL1         0.0752
      10    C4      20.509991   20.051734   23.643516 C.3        1 MOL1        -0.1858
      11    H5      20.944850   21.015782   23.940386 H          1 MOL1         0.0752
      12    H6      21.307297   19.307168   23.767338 H          1 MOL1         0.0752
      13    C5      19.335456   19.730809   24.601541 C.3        1 MOL1        -0.1858
      14    H7      19.704355   19.755333   25.635316 H          1 MOL1         0.0752
      15    H8      18.592105   20.536509   24.532645 H          1 MOL1         0.0752
      16    C6      18.622329   18.376663   24.345498 C.3        1 MOL1        -0.1858
      17    H9      18.111873   18.412711   23.374210 H          1 MOL1         0.0752
      18    H10     17.827359   18.253244   25.093349 H          1 MOL1         0.0752
      19    C7      19.540479   17.130206   24.383913 C.3        1 MOL1        -0.1834
      20    H11     18.933316   16.241086   24.165458 H          1 MOL1         0.0752
      21    H12     20.291142   17.189133   23.584621 H          1 MOL1         0.0752
      22    C8      20.242139   16.930928   25.744796 C.3        1 MOL1        -0.2849
      23    H13     19.509867   16.885666   26.561290 H          1 MOL1         0.0764
      24    H14     20.813021   15.993484   25.749284 H          1 MOL1         0.0764
      25    H15     20.942917   17.748582   25.955268 H          1 MOL1         0.0764
@<TRIPOS>BOND
    1     1     2    1
    2     1     3    2
    3     1     4    1
    4     4     5    1
    5     4     6    1
    6     4     7    1
    7     7     8    1
    8     7     9    1
    9     7    10    1
   10    10    11    1
   11    10    12    1
   12    10    13    1
   13    13    14    1
   14    13    15    1
   15    13    16    1
   16    16    17    1
   17    16    18    1
   18    16    19    1
   19    19    20    1
   20    19    21    1
   21    19    22    1
   22    22    23    1
   23    22    24    1
   24    22    25    1
@<TRIPOS>SUBSTRUCTURE
       1 MOL1            1 RESIDUE      1      MOL     
@<SCITEGIC>MOL_PROPERTY
VConf Rank
SciTegic.value.IntegerValue
439

@<SCITEGIC>MOL_PROPERTY
Conf_Id
SciTegic.value.IntegerValue
29

@<SCITEGIC>MOL_PROPERTY
Delta U+W
SciTegic.value.DoubleValue
0.850

@<SCITEGIC>MOL_PROPERTY
U+W
SciTegic.value.DoubleValue
-50.780

@<SCITEGIC>MOL_PROPERTY
Grad RMS
SciTegic.value.DoubleValue
0.000000

@<SCITEGIC>MOL_PROPERTY
U
SciTegic.value.DoubleValue
8.646

@<SCITEGIC>MOL_PROPERTY
W
SciTegic.value.DoubleValue
-59.426

@<SCITEGIC>MOL_PROPERTY
W(PB)
SciTegic.value.DoubleValue
-61.868

@<SCITEGIC>MOL_PROPERTY
W(SA)
SciTegic.value.DoubleValue
2.442

@<SCITEGIC>MOL_PROPERTY
Valence
SciTegic.value.DoubleValue
8.924

@<SCITEGIC>MOL_PROPERTY
Coulomb
SciTegic.value.DoubleValue
-1.171

@<SCITEGIC>MOL_PROPERTY
VdW
SciTegic.value.DoubleValue
0.894

@<SCITEGIC>MOL_PROPERTY
VdW6
SciTegic.value.DoubleValue
-10.223

@<SCITEGIC>MOL_PROPERTY
VdW12
SciTegic.value.DoubleValue
11.117

@<SCITEGIC>MOL_PROPERTY
Bond
SciTegic.value.DoubleValue
0.231

@<SCITEGIC>MOL_PROPERTY
Angle
SciTegic.value.DoubleValue
3.232

@<SCITEGIC>MOL_PROPERTY
Pdih
SciTegic.value.DoubleValue
5.461

@<SCITEGIC>MOL_PROPERTY
Idih
SciTegic.value.DoubleValue
0.001

@<SCITEGIC>MOL_PROPERTY
Tether
SciTegic.value.DoubleValue
0.000

@<TRIPOS>MOLECULE
guest-8_confgen4.mol2 : confsearch ligand conformer 440
          25          24           1
SMALL
USER_CHARGES
 
@<TRIPOS>ATOM
       1    C1      21.551526   15.558364   22.922736 C.2        1 MOL1         0.6168
       2    O1      21.624894   15.183204   24.076233 O.co2      1 MOL1        -0.6703
       3    O2      22.337497   15.229105   22.056377 O.co2      1 MOL1        -0.6703
       4    C2      20.421752   16.509988   22.545649 C.3        1 MOL1        -0.1963
       5    H1      19.554259   16.274923   23.173959 H          1 MOL1         0.0750
       6    H2      20.135680   16.304477   21.507184 H          1 MOL1         0.0750
       7    C3      20.810799   17.999927   22.708995 C.3        1 MOL1        -0.1860
       8    H3      21.111844   18.176154   23.750197 H          1 MOL1         0.0752
       9    H4      21.685343   18.218451   22.080854 H          1 MOL1         0.0752
      10    C4      19.645836   18.942172   22.327327 C.3        1 MOL1        -0.1858
      11    H5      18.784562   18.752056   22.981139 H          1 MOL1         0.0752
      12    H6      19.312822   18.703937   21.308030 H          1 MOL1         0.0752
      13    C5      20.025102   20.443477   22.378122 C.3        1 MOL1        -0.1858
      14    H7      20.823966   20.631724   21.648155 H          1 MOL1         0.0752
      15    H8      19.166750   21.037645   22.038153 H          1 MOL1         0.0752
      16    C6      20.489352   20.963282   23.764519 C.3        1 MOL1        -0.1858
      17    H9      20.709756   22.036010   23.679864 H          1 MOL1         0.0752
      18    H10     21.441178   20.485793   24.031538 H          1 MOL1         0.0752
      19    C7      19.480223   20.751551   24.919924 C.3        1 MOL1        -0.1834
      20    H11     19.311738   19.678702   25.082537 H          1 MOL1         0.0752
      21    H12     19.926000   21.133218   25.848642 H          1 MOL1         0.0752
      22    C8      18.129323   21.462455   24.688143 C.3        1 MOL1        -0.2849
      23    H13     17.597760   21.037153   23.827617 H          1 MOL1         0.0764
      24    H14     17.481436   21.352763   25.567312 H          1 MOL1         0.0764
      25    H15     18.276024   22.535118   24.507015 H          1 MOL1         0.0764
@<TRIPOS>BOND
    1     1     2    1
    2     1     3    2
    3     1     4    1
    4     4     5    1
    5     4     6    1
    6     4     7    1
    7     7     8    1
    8     7     9    1
    9     7    10    1
   10    10    11    1
   11    10    12    1
   12    10    13    1
   13    13    14    1
   14    13    15    1
   15    13    16    1
   16    16    17    1
   17    16    18    1
   18    16    19    1
   19    19    20    1
   20    19    21    1
   21    19    22    1
   22    22    23    1
   23    22    24    1
   24    22    25    1
@<TRIPOS>SUBSTRUCTURE
       1 MOL1            1 RESIDUE      1      MOL     
@<SCITEGIC>MOL_PROPERTY
VConf Rank
SciTegic.value.IntegerValue
440

@<SCITEGIC>MOL_PROPERTY
Conf_Id
SciTegic.value.IntegerValue
30

@<SCITEGIC>MOL_PROPERTY
Delta U+W
SciTegic.value.DoubleValue
0.843

@<SCITEGIC>MOL_PROPERTY
U+W
SciTegic.value.DoubleValue
-50.787

@<SCITEGIC>MOL_PROPERTY
Grad RMS
SciTegic.value.DoubleValue
0.000000

@<SCITEGIC>MOL_PROPERTY
U
SciTegic.value.DoubleValue
8.647

@<SCITEGIC>MOL_PROPERTY
W
SciTegic.value.DoubleValue
-59.434

@<SCITEGIC>MOL_PROPERTY
W(PB)
SciTegic.value.DoubleValue
-61.861

@<SCITEGIC>MOL_PROPERTY
W(SA)
SciTegic.value.DoubleValue
2.428

@<SCITEGIC>MOL_PROPERTY
Valence
SciTegic.value.DoubleValue
8.924

@<SCITEGIC>MOL_PROPERTY
Coulomb
SciTegic.value.DoubleValue
-1.170

@<SCITEGIC>MOL_PROPERTY
VdW
SciTegic.value.DoubleValue
0.894

@<SCITEGIC>MOL_PROPERTY
VdW6
SciTegic.value.DoubleValue
-10.224

@<SCITEGIC>MOL_PROPERTY
VdW12
SciTegic.value.DoubleValue
11.118

@<SCITEGIC>MOL_PROPERTY
Bond
SciTegic.value.DoubleValue
0.231

@<SCITEGIC>MOL_PROPERTY
Angle
SciTegic.value.DoubleValue
3.232

@<SCITEGIC>MOL_PROPERTY
Pdih
SciTegic.value.DoubleValue
5.460

@<SCITEGIC>MOL_PROPERTY
Idih
SciTegic.value.DoubleValue
0.000

@<SCITEGIC>MOL_PROPERTY
Tether
SciTegic.value.DoubleValue
0.000

@<TRIPOS>MOLECULE
guest-8_confgen4.mol2 : confsearch ligand conformer 441
          25          24           1
SMALL
USER_CHARGES
 
@<TRIPOS>ATOM
       1    C1      16.302789   17.874210   25.623180 C.2        1 MOL1         0.6168
       2    O1      15.725166   18.929377   25.445481 O.co2      1 MOL1        -0.6703
       3    O2      15.831593   16.960305   26.270382 O.co2      1 MOL1        -0.6703
       4    C2      17.689808   17.657083   25.016194 C.3        1 MOL1        -0.1963
       5    H1      17.632110   16.766665   24.379222 H          1 MOL1         0.0750
       6    H2      18.373332   17.419005   25.839615 H          1 MOL1         0.0750
       7    C3      18.249235   18.851677   24.198635 C.3        1 MOL1        -0.1860
       8    H3      17.556431   19.088914   23.379339 H          1 MOL1         0.0752
       9    H4      18.298381   19.741837   24.841057 H          1 MOL1         0.0752
      10    C4      19.649783   18.548232   23.623281 C.3        1 MOL1        -0.1858
      11    H5      19.598218   17.657980   22.981463 H          1 MOL1         0.0752
      12    H6      20.340636   18.311333   24.444096 H          1 MOL1         0.0752
      13    C5      20.204329   19.737849   22.810398 C.3        1 MOL1        -0.1858
      14    H7      19.513690   19.974954   21.989482 H          1 MOL1         0.0752
      15    H8      20.256051   20.628245   23.451977 H          1 MOL1         0.0752
      16    C6      21.604674   19.435098   22.234821 C.3        1 MOL1        -0.1858
      17    H9      21.553173   18.544754   21.593160 H          1 MOL1         0.0752
      18    H10     22.295512   19.198064   23.055584 H          1 MOL1         0.0752
      19    C7      22.159057   20.624104   21.422243 C.3        1 MOL1        -0.1834
      20    H11     21.471461   20.862935   20.599042 H          1 MOL1         0.0752
      21    H12     22.213802   21.516239   22.061450 H          1 MOL1         0.0752
      22    C8      23.557434   20.317875   20.849205 C.3        1 MOL1        -0.2849
      23    H13     23.525956   19.447832   20.180302 H          1 MOL1         0.0764
      24    H14     23.936040   21.173353   20.274835 H          1 MOL1         0.0764
      25    H15     24.273889   20.106074   21.653711 H          1 MOL1         0.0764
@<TRIPOS>BOND
    1     1     2    1
    2     1     3    2
    3     1     4    1
    4     4     5    1
    5     4     6    1
    6     4     7    1
    7     7     8    1
    8     7     9    1
    9     7    10    1
   10    10    11    1
   11    10    12    1
   12    10    13    1
   13    13    14    1
   14    13    15    1
   15    13    16    1
   16    16    17    1
   17    16    18    1
   18    16    19    1
   19    19    20    1
   20    19    21    1
   21    19    22    1
   22    22    23    1
   23    22    24    1
   24    22    25    1
@<TRIPOS>SUBSTRUCTURE
       1 MOL1            1 RESIDUE      1      MOL     
@<SCITEGIC>MOL_PROPERTY
VConf Rank
SciTegic.value.IntegerValue
441

@<SCITEGIC>MOL_PROPERTY
Conf_Id
SciTegic.value.IntegerValue
0

@<SCITEGIC>MOL_PROPERTY
Delta U+W
SciTegic.value.DoubleValue
0.000

@<SCITEGIC>MOL_PROPERTY
U+W
SciTegic.value.DoubleValue
-51.629

@<SCITEGIC>MOL_PROPERTY
Grad RMS
SciTegic.value.DoubleValue
0.000000

@<SCITEGIC>MOL_PROPERTY
U
SciTegic.value.DoubleValue
6.586

@<SCITEGIC>MOL_PROPERTY
W
SciTegic.value.DoubleValue
-58.216

@<SCITEGIC>MOL_PROPERTY
W(PB)
SciTegic.value.DoubleValue
-60.757

@<SCITEGIC>MOL_PROPERTY
W(SA)
SciTegic.value.DoubleValue
2.541

@<SCITEGIC>MOL_PROPERTY
Valence
SciTegic.value.DoubleValue
8.027

@<SCITEGIC>MOL_PROPERTY
Coulomb
SciTegic.value.DoubleValue
-2.892

@<SCITEGIC>MOL_PROPERTY
VdW
SciTegic.value.DoubleValue
1.451

@<SCITEGIC>MOL_PROPERTY
VdW6
SciTegic.value.DoubleValue
-7.931

@<SCITEGIC>MOL_PROPERTY
VdW12
SciTegic.value.DoubleValue
9.383

@<SCITEGIC>MOL_PROPERTY
Bond
SciTegic.value.DoubleValue
0.149

@<SCITEGIC>MOL_PROPERTY
Angle
SciTegic.value.DoubleValue
2.726

@<SCITEGIC>MOL_PROPERTY
Pdih
SciTegic.value.DoubleValue
5.152

@<SCITEGIC>MOL_PROPERTY
Idih
SciTegic.value.DoubleValue
0.000

@<SCITEGIC>MOL_PROPERTY
Tether
SciTegic.value.DoubleValue
0.000

@<TRIPOS>MOLECULE
guest-8_confgen4.mol2 : confsearch ligand conformer 442
          25          24           1
SMALL
USER_CHARGES
 
@<TRIPOS>ATOM
       1    C1      17.242170   22.603344   24.412989 C.2        1 MOL1         0.6168
       2    O1      17.657841   23.293302   25.322822 O.co2      1 MOL1        -0.6703
       3    O2      16.533852   23.022726   23.519107 O.co2      1 MOL1        -0.6703
       4    C2      17.650928   21.135075   24.378537 C.3        1 MOL1        -0.1963
       5    H1      16.831305   20.563845   23.926300 H          1 MOL1         0.0750
       6    H2      17.756947   20.786676   25.412937 H          1 MOL1         0.0750
       7    C3      18.965489   20.895058   23.596012 C.3        1 MOL1        -0.1860
       8    H3      18.847089   21.261194   22.566682 H          1 MOL1         0.0752
       9    H4      19.772669   21.484151   24.053201 H          1 MOL1         0.0752
      10    C4      19.357972   19.401886   23.575592 C.3        1 MOL1        -0.1858
      11    H5      18.548604   18.815677   23.119013 H          1 MOL1         0.0752
      12    H6      19.474211   19.038642   24.605990 H          1 MOL1         0.0752
      13    C5      20.668858   19.165740   22.795026 C.3        1 MOL1        -0.1858
      14    H7      20.552836   19.528836   21.764587 H          1 MOL1         0.0752
      15    H8      21.478347   19.751838   23.251447 H          1 MOL1         0.0752
      16    C6      21.062004   17.672796   22.774233 C.3        1 MOL1        -0.1858
      17    H9      20.252745   17.086422   22.317765 H          1 MOL1         0.0752
      18    H10     21.178116   17.309399   23.804551 H          1 MOL1         0.0752
      19    C7      22.372338   17.436574   21.994115 C.3        1 MOL1        -0.1834
      20    H11     22.259347   17.797200   20.962287 H          1 MOL1         0.0752
      21    H12     23.184711   18.020145   22.449072 H          1 MOL1         0.0752
      22    C8      22.761475   15.944651   21.975631 C.3        1 MOL1        -0.2849
      23    H13     23.694697   15.795092   21.417225 H          1 MOL1         0.0764
      24    H14     22.911900   15.565258   22.994861 H          1 MOL1         0.0764
      25    H15     21.979571   15.340643   21.496886 H          1 MOL1         0.0764
@<TRIPOS>BOND
    1     1     2    1
    2     1     3    2
    3     1     4    1
    4     4     5    1
    5     4     6    1
    6     4     7    1
    7     7     8    1
    8     7     9    1
    9     7    10    1
   10    10    11    1
   11    10    12    1
   12    10    13    1
   13    13    14    1
   14    13    15    1
   15    13    16    1
   16    16    17    1
   17    16    18    1
   18    16    19    1
   19    19    20    1
   20    19    21    1
   21    19    22    1
   22    22    23    1
   23    22    24    1
   24    22    25    1
@<TRIPOS>SUBSTRUCTURE
       1 MOL1            1 RESIDUE      1      MOL     
@<SCITEGIC>MOL_PROPERTY
VConf Rank
SciTegic.value.IntegerValue
442

@<SCITEGIC>MOL_PROPERTY
Conf_Id
SciTegic.value.IntegerValue
27

@<SCITEGIC>MOL_PROPERTY
Delta U+W
SciTegic.value.DoubleValue
-1.297

@<SCITEGIC>MOL_PROPERTY
U+W
SciTegic.value.DoubleValue
-52.926

@<SCITEGIC>MOL_PROPERTY
Grad RMS
SciTegic.value.DoubleValue
0.000000

@<SCITEGIC>MOL_PROPERTY
U
SciTegic.value.DoubleValue
5.617

@<SCITEGIC>MOL_PROPERTY
W
SciTegic.value.DoubleValue
-58.543

@<SCITEGIC>MOL_PROPERTY
W(PB)
SciTegic.value.DoubleValue
-61.065

@<SCITEGIC>MOL_PROPERTY
W(SA)
SciTegic.value.DoubleValue
2.522

@<SCITEGIC>MOL_PROPERTY
Valence
SciTegic.value.DoubleValue
7.531

@<SCITEGIC>MOL_PROPERTY
Coulomb
SciTegic.value.DoubleValue
-2.818

@<SCITEGIC>MOL_PROPERTY
VdW
SciTegic.value.DoubleValue
0.904

@<SCITEGIC>MOL_PROPERTY
VdW6
SciTegic.value.DoubleValue
-7.640

@<SCITEGIC>MOL_PROPERTY
VdW12
SciTegic.value.DoubleValue
8.544

@<SCITEGIC>MOL_PROPERTY
Bond
SciTegic.value.DoubleValue
0.115

@<SCITEGIC>MOL_PROPERTY
Angle
SciTegic.value.DoubleValue
2.271

@<SCITEGIC>MOL_PROPERTY
Pdih
SciTegic.value.DoubleValue
5.144

@<SCITEGIC>MOL_PROPERTY
Idih
SciTegic.value.DoubleValue
0.001

@<SCITEGIC>MOL_PROPERTY
Tether
SciTegic.value.DoubleValue
0.000

@<TRIPOS>MOLECULE
guest-8_confgen4.mol2 : confsearch ligand conformer 443
          25          24           1
SMALL
USER_CHARGES
 
@<TRIPOS>ATOM
       1    C1      21.486730   17.233508   19.996336 C.2        1 MOL1         0.6168
       2    O1      22.516905   17.692495   19.543405 O.co2      1 MOL1        -0.6703
       3    O2      21.396835   16.115433   20.464087 O.co2      1 MOL1        -0.6703
       4    C2      20.234370   18.104817   19.959238 C.3        1 MOL1        -0.1963
       5    H1      19.355030   17.458786   20.069925 H          1 MOL1         0.0750
       6    H2      20.175784   18.552295   18.960080 H          1 MOL1         0.0750
       7    C3      20.214208   19.225481   21.030989 C.3        1 MOL1        -0.1860
       8    H3      21.114406   19.846809   20.924838 H          1 MOL1         0.0752
       9    H4      19.353369   19.881724   20.844308 H          1 MOL1         0.0752
      10    C4      20.128548   18.669793   22.470309 C.3        1 MOL1        -0.1858
      11    H5      20.996015   18.025797   22.670792 H          1 MOL1         0.0752
      12    H6      19.234542   18.038653   22.567463 H          1 MOL1         0.0752
      13    C5      20.077490   19.802308   23.518370 C.3        1 MOL1        -0.1858
      14    H7      20.971863   20.432862   23.420454 H          1 MOL1         0.0752
      15    H8      19.209049   20.445861   23.321681 H          1 MOL1         0.0752
      16    C6      19.992749   19.247789   24.956837 C.3        1 MOL1        -0.1858
      17    H9      20.861131   18.604126   25.153660 H          1 MOL1         0.0752
      18    H10     19.098624   18.616907   25.054873 H          1 MOL1         0.0752
      19    C7      19.942218   20.379408   26.004814 C.3        1 MOL1        -0.1834
      20    H11     20.836146   21.011505   25.910854 H          1 MOL1         0.0752
      21    H12     19.073577   21.024248   25.812140 H          1 MOL1         0.0752
      22    C8      19.857827   19.821476   27.439804 C.3        1 MOL1        -0.2849
      23    H13     20.731149   19.197430   27.670612 H          1 MOL1         0.0764
      24    H14     19.822750   20.639145   28.171424 H          1 MOL1         0.0764
      25    H15     18.955330   19.210217   27.571163 H          1 MOL1         0.0764
@<TRIPOS>BOND
    1     1     2    1
    2     1     3    2
    3     1     4    1
    4     4     5    1
    5     4     6    1
    6     4     7    1
    7     7     8    1
    8     7     9    1
    9     7    10    1
   10    10    11    1
   11    10    12    1
   12    10    13    1
   13    13    14    1
   14    13    15    1
   15    13    16    1
   16    16    17    1
   17    16    18    1
   18    16    19    1
   19    19    20    1
   20    19    21    1
   21    19    22    1
   22    22    23    1
   23    22    24    1
   24    22    25    1
@<TRIPOS>SUBSTRUCTURE
       1 MOL1            1 RESIDUE      1      MOL     
@<SCITEGIC>MOL_PROPERTY
VConf Rank
SciTegic.value.IntegerValue
443

@<SCITEGIC>MOL_PROPERTY
Conf_Id
SciTegic.value.IntegerValue
37

@<SCITEGIC>MOL_PROPERTY
Delta U+W
SciTegic.value.DoubleValue
-0.230

@<SCITEGIC>MOL_PROPERTY
U+W
SciTegic.value.DoubleValue
-51.860

@<SCITEGIC>MOL_PROPERTY
Grad RMS
SciTegic.value.DoubleValue
0.000000

@<SCITEGIC>MOL_PROPERTY
U
SciTegic.value.DoubleValue
7.816

@<SCITEGIC>MOL_PROPERTY
W
SciTegic.value.DoubleValue
-59.675

@<SCITEGIC>MOL_PROPERTY
W(PB)
SciTegic.value.DoubleValue
-62.180

@<SCITEGIC>MOL_PROPERTY
W(SA)
SciTegic.value.DoubleValue
2.505

@<SCITEGIC>MOL_PROPERTY
Valence
SciTegic.value.DoubleValue
7.785

@<SCITEGIC>MOL_PROPERTY
Coulomb
SciTegic.value.DoubleValue
-0.713

@<SCITEGIC>MOL_PROPERTY
VdW
SciTegic.value.DoubleValue
0.744

@<SCITEGIC>MOL_PROPERTY
VdW6
SciTegic.value.DoubleValue
-8.514

@<SCITEGIC>MOL_PROPERTY
VdW12
SciTegic.value.DoubleValue
9.259

@<SCITEGIC>MOL_PROPERTY
Bond
SciTegic.value.DoubleValue
0.136

@<SCITEGIC>MOL_PROPERTY
Angle
SciTegic.value.DoubleValue
2.433

@<SCITEGIC>MOL_PROPERTY
Pdih
SciTegic.value.DoubleValue
5.216

@<SCITEGIC>MOL_PROPERTY
Idih
SciTegic.value.DoubleValue
0.000

@<SCITEGIC>MOL_PROPERTY
Tether
SciTegic.value.DoubleValue
0.000

@<TRIPOS>MOLECULE
guest-8_confgen4.mol2 : confsearch ligand conformer 444
          25          24           1
SMALL
USER_CHARGES
 
@<TRIPOS>ATOM
       1    C1      20.654473   21.849878   20.258720 C.2        1 MOL1         0.6168
       2    O1      19.914684   21.666949   19.311976 O.co2      1 MOL1        -0.6703
       3    O2      21.852732   21.649932   20.224672 O.co2      1 MOL1        -0.6703
       4    C2      20.045429   22.375065   21.555722 C.3        1 MOL1        -0.1963
       5    H1      19.372188   23.199082   21.291666 H          1 MOL1         0.0750
       6    H2      20.846377   22.803826   22.170125 H          1 MOL1         0.0750
       7    C3      19.264356   21.306200   22.363434 C.3        1 MOL1        -0.1860
       8    H3      18.749409   21.797597   23.200039 H          1 MOL1         0.0752
       9    H4      18.484302   20.866691   21.726238 H          1 MOL1         0.0752
      10    C4      20.180693   20.190392   22.913948 C.3        1 MOL1        -0.1858
      11    H5      20.966507   20.635962   23.539239 H          1 MOL1         0.0752
      12    H6      20.686524   19.682233   22.081281 H          1 MOL1         0.0752
      13    C5      19.387788   19.155305   23.740704 C.3        1 MOL1        -0.1858
      14    H7      18.883452   19.660752   24.575691 H          1 MOL1         0.0752
      15    H8      18.602335   18.710224   23.114561 H          1 MOL1         0.0752
      16    C6      20.302641   18.039686   24.290518 C.3        1 MOL1        -0.1858
      17    H9      21.088351   18.484584   24.916462 H          1 MOL1         0.0752
      18    H10     20.807178   17.534201   23.455620 H          1 MOL1         0.0752
      19    C7      19.510448   17.004493   25.116454 C.3        1 MOL1        -0.1834
      20    H11     19.005830   17.506387   25.953676 H          1 MOL1         0.0752
      21    H12     18.724748   16.555945   24.492784 H          1 MOL1         0.0752
      22    C8      20.427597   15.892254   25.663597 C.3        1 MOL1        -0.2849
      23    H13     21.204745   16.309955   26.317021 H          1 MOL1         0.0764
      24    H14     19.848267   15.165514   26.247812 H          1 MOL1         0.0764
      25    H15     20.921602   15.352409   24.845108 H          1 MOL1         0.0764
@<TRIPOS>BOND
    1     1     2    1
    2     1     3    2
    3     1     4    1
    4     4     5    1
    5     4     6    1
    6     4     7    1
    7     7     8    1
    8     7     9    1
    9     7    10    1
   10    10    11    1
   11    10    12    1
   12    10    13    1
   13    13    14    1
   14    13    15    1
   15    13    16    1
   16    16    17    1
   17    16    18    1
   18    16    19    1
   19    19    20    1
   20    19    21    1
   21    19    22    1
   22    22    23    1
   23    22    24    1
   24    22    25    1
@<TRIPOS>SUBSTRUCTURE
       1 MOL1            1 RESIDUE      1      MOL     
@<SCITEGIC>MOL_PROPERTY
VConf Rank
SciTegic.value.IntegerValue
444

@<SCITEGIC>MOL_PROPERTY
Conf_Id
SciTegic.value.IntegerValue
54

@<SCITEGIC>MOL_PROPERTY
Delta U+W
SciTegic.value.DoubleValue
-0.224

@<SCITEGIC>MOL_PROPERTY
U+W
SciTegic.value.DoubleValue
-51.854

@<SCITEGIC>MOL_PROPERTY
Grad RMS
SciTegic.value.DoubleValue
0.000000

@<SCITEGIC>MOL_PROPERTY
U
SciTegic.value.DoubleValue
7.816

@<SCITEGIC>MOL_PROPERTY
W
SciTegic.value.DoubleValue
-59.670

@<SCITEGIC>MOL_PROPERTY
W(PB)
SciTegic.value.DoubleValue
-62.157

@<SCITEGIC>MOL_PROPERTY
W(SA)
SciTegic.value.DoubleValue
2.487

@<SCITEGIC>MOL_PROPERTY
Valence
SciTegic.value.DoubleValue
7.785

@<SCITEGIC>MOL_PROPERTY
Coulomb
SciTegic.value.DoubleValue
-0.713

@<SCITEGIC>MOL_PROPERTY
VdW
SciTegic.value.DoubleValue
0.744

@<SCITEGIC>MOL_PROPERTY
VdW6
SciTegic.value.DoubleValue
-8.515

@<SCITEGIC>MOL_PROPERTY
VdW12
SciTegic.value.DoubleValue
9.259

@<SCITEGIC>MOL_PROPERTY
Bond
SciTegic.value.DoubleValue
0.136

@<SCITEGIC>MOL_PROPERTY
Angle
SciTegic.value.DoubleValue
2.433

@<SCITEGIC>MOL_PROPERTY
Pdih
SciTegic.value.DoubleValue
5.215

@<SCITEGIC>MOL_PROPERTY
Idih
SciTegic.value.DoubleValue
0.000

@<SCITEGIC>MOL_PROPERTY
Tether
SciTegic.value.DoubleValue
0.000

@<TRIPOS>MOLECULE
guest-8_confgen4.mol2 : confsearch ligand conformer 445
          25          24           1
SMALL
USER_CHARGES
 
@<TRIPOS>ATOM
       1    C1      18.443111   18.009461   26.829285 C.2        1 MOL1         0.6168
       2    O1      17.338893   17.601252   26.527428 O.co2      1 MOL1        -0.6703
       3    O2      19.219275   17.392544   27.532202 O.co2      1 MOL1        -0.6703
       4    C2      18.873535   19.379898   26.313706 C.3        1 MOL1        -0.1963
       5    H1      19.309256   19.925028   27.159254 H          1 MOL1         0.0750
       6    H2      17.979446   19.934979   26.004968 H          1 MOL1         0.0750
       7    C3      19.897896   19.324804   25.150385 C.3        1 MOL1        -0.1860
       8    H3      20.259721   20.342757   24.958920 H          1 MOL1         0.0752
       9    H4      20.768915   18.731126   25.460660 H          1 MOL1         0.0752
      10    C4      19.293362   18.732119   23.854540 C.3        1 MOL1        -0.1858
      11    H5      18.450944   19.352743   23.519973 H          1 MOL1         0.0752
      12    H6      18.877127   17.739355   24.073959 H          1 MOL1         0.0752
      13    C5      20.317723   18.584055   22.704011 C.3        1 MOL1        -0.1858
      14    H7      21.168813   17.979156   23.045067 H          1 MOL1         0.0752
      15    H8      19.838210   18.018036   21.895395 H          1 MOL1         0.0752
      16    C6      20.826360   19.938158   22.150364 C.3        1 MOL1        -0.1858
      17    H9      21.312884   20.503005   22.955421 H          1 MOL1         0.0752
      18    H10     19.974447   20.544644   21.814157 H          1 MOL1         0.0752
      19    C7      21.841531   19.786273   20.993279 C.3        1 MOL1        -0.1834
      20    H11     22.252966   20.776787   20.754849 H          1 MOL1         0.0752
      21    H12     22.689460   19.169588   21.321938 H          1 MOL1         0.0752
      22    C8      21.226361   19.184659   19.710873 C.3        1 MOL1        -0.2849
      23    H13     20.909844   18.145841   19.866043 H          1 MOL1         0.0764
      24    H14     20.354527   19.765737   19.383209 H          1 MOL1         0.0764
      25    H15     21.960763   19.188731   18.895065 H          1 MOL1         0.0764
@<TRIPOS>BOND
    1     1     2    1
    2     1     3    2
    3     1     4    1
    4     4     5    1
    5     4     6    1
    6     4     7    1
    7     7     8    1
    8     7     9    1
    9     7    10    1
   10    10    11    1
   11    10    12    1
   12    10    13    1
   13    13    14    1
   14    13    15    1
   15    13    16    1
   16    16    17    1
   17    16    18    1
   18    16    19    1
   19    19    20    1
   20    19    21    1
   21    19    22    1
   22    22    23    1
   23    22    24    1
   24    22    25    1
@<TRIPOS>SUBSTRUCTURE
       1 MOL1            1 RESIDUE      1      MOL     
@<SCITEGIC>MOL_PROPERTY
VConf Rank
SciTegic.value.IntegerValue
445

@<SCITEGIC>MOL_PROPERTY
Conf_Id
SciTegic.value.IntegerValue
101

@<SCITEGIC>MOL_PROPERTY
Delta U+W
SciTegic.value.DoubleValue
1.534

@<SCITEGIC>MOL_PROPERTY
U+W
SciTegic.value.DoubleValue
-50.095

@<SCITEGIC>MOL_PROPERTY
Grad RMS
SciTegic.value.DoubleValue
0.000000

@<SCITEGIC>MOL_PROPERTY
U
SciTegic.value.DoubleValue
9.416

@<SCITEGIC>MOL_PROPERTY
W
SciTegic.value.DoubleValue
-59.512

@<SCITEGIC>MOL_PROPERTY
W(PB)
SciTegic.value.DoubleValue
-61.988

@<SCITEGIC>MOL_PROPERTY
W(SA)
SciTegic.value.DoubleValue
2.476

@<SCITEGIC>MOL_PROPERTY
Valence
SciTegic.value.DoubleValue
8.939

@<SCITEGIC>MOL_PROPERTY
Coulomb
SciTegic.value.DoubleValue
-0.615

@<SCITEGIC>MOL_PROPERTY
VdW
SciTegic.value.DoubleValue
1.092

@<SCITEGIC>MOL_PROPERTY
VdW6
SciTegic.value.DoubleValue
-9.710

@<SCITEGIC>MOL_PROPERTY
VdW12
SciTegic.value.DoubleValue
10.802

@<SCITEGIC>MOL_PROPERTY
Bond
SciTegic.value.DoubleValue
0.216

@<SCITEGIC>MOL_PROPERTY
Angle
SciTegic.value.DoubleValue
2.979

@<SCITEGIC>MOL_PROPERTY
Pdih
SciTegic.value.DoubleValue
5.743

@<SCITEGIC>MOL_PROPERTY
Idih
SciTegic.value.DoubleValue
0.000

@<SCITEGIC>MOL_PROPERTY
Tether
SciTegic.value.DoubleValue
0.000

@<TRIPOS>MOLECULE
guest-8_confgen4.mol2 : confsearch ligand conformer 446
          25          24           1
SMALL
USER_CHARGES
 
@<TRIPOS>ATOM
       1    C1      16.045389   18.146265   22.982496 C.2        1 MOL1         0.6168
       2    O1      15.680715   17.795849   24.087466 O.co2      1 MOL1        -0.6703
       3    O2      15.285404   18.510920   22.107153 O.co2      1 MOL1        -0.6703
       4    C2      17.540633   18.150210   22.685180 C.3        1 MOL1        -0.1963
       5    H1      17.675738   17.932303   21.619065 H          1 MOL1         0.0750
       6    H2      17.993121   17.325091   23.246246 H          1 MOL1         0.0750
       7    C3      18.219755   19.497002   23.046430 C.3        1 MOL1        -0.1860
       8    H3      17.677882   20.309440   22.542699 H          1 MOL1         0.0752
       9    H4      18.120868   19.681115   24.125144 H          1 MOL1         0.0752
      10    C4      19.710550   19.570252   22.637929 C.3        1 MOL1        -0.1858
      11    H5      20.056395   20.598728   22.802607 H          1 MOL1         0.0752
      12    H6      19.807904   19.376274   21.561146 H          1 MOL1         0.0752
      13    C5      20.614472   18.593479   23.429598 C.3        1 MOL1        -0.1858
      14    H7      20.517808   18.787815   24.505658 H          1 MOL1         0.0752
      15    H8      20.265587   17.565072   23.273469 H          1 MOL1         0.0752
      16    C6      22.105993   18.655116   23.012558 C.3        1 MOL1        -0.1858
      17    H9      22.191008   18.373029   21.954316 H          1 MOL1         0.0752
      18    H10     22.658784   17.890170   23.574653 H          1 MOL1         0.0752
      19    C7      22.800732   20.023830   23.220931 C.3        1 MOL1        -0.1834
      20    H11     23.843952   19.939877   22.886736 H          1 MOL1         0.0752
      21    H12     22.338894   20.785924   22.579634 H          1 MOL1         0.0752
      22    C8      22.787234   20.500531   24.689439 C.3        1 MOL1        -0.2849
      23    H13     23.223211   19.742318   25.352776 H          1 MOL1         0.0764
      24    H14     23.371487   21.423207   24.799364 H          1 MOL1         0.0764
      25    H15     21.765788   20.711306   25.030467 H          1 MOL1         0.0764
@<TRIPOS>BOND
    1     1     2    1
    2     1     3    2
    3     1     4    1
    4     4     5    1
    5     4     6    1
    6     4     7    1
    7     7     8    1
    8     7     9    1
    9     7    10    1
   10    10    11    1
   11    10    12    1
   12    10    13    1
   13    13    14    1
   14    13    15    1
   15    13    16    1
   16    16    17    1
   17    16    18    1
   18    16    19    1
   19    19    20    1
   20    19    21    1
   21    19    22    1
   22    22    23    1
   23    22    24    1
   24    22    25    1
@<TRIPOS>SUBSTRUCTURE
       1 MOL1            1 RESIDUE      1      MOL     
@<SCITEGIC>MOL_PROPERTY
VConf Rank
SciTegic.value.IntegerValue
446

@<SCITEGIC>MOL_PROPERTY
Conf_Id
SciTegic.value.IntegerValue
75

@<SCITEGIC>MOL_PROPERTY
Delta U+W
SciTegic.value.DoubleValue
1.014

@<SCITEGIC>MOL_PROPERTY
U+W
SciTegic.value.DoubleValue
-50.615

@<SCITEGIC>MOL_PROPERTY
Grad RMS
SciTegic.value.DoubleValue
0.000000

@<SCITEGIC>MOL_PROPERTY
U
SciTegic.value.DoubleValue
8.474

@<SCITEGIC>MOL_PROPERTY
W
SciTegic.value.DoubleValue
-59.089

@<SCITEGIC>MOL_PROPERTY
W(PB)
SciTegic.value.DoubleValue
-61.530

@<SCITEGIC>MOL_PROPERTY
W(SA)
SciTegic.value.DoubleValue
2.441

@<SCITEGIC>MOL_PROPERTY
Valence
SciTegic.value.DoubleValue
9.080

@<SCITEGIC>MOL_PROPERTY
Coulomb
SciTegic.value.DoubleValue
-1.772

@<SCITEGIC>MOL_PROPERTY
VdW
SciTegic.value.DoubleValue
1.165

@<SCITEGIC>MOL_PROPERTY
VdW6
SciTegic.value.DoubleValue
-9.830

@<SCITEGIC>MOL_PROPERTY
VdW12
SciTegic.value.DoubleValue
10.996

@<SCITEGIC>MOL_PROPERTY
Bond
SciTegic.value.DoubleValue
0.240

@<SCITEGIC>MOL_PROPERTY
Angle
SciTegic.value.DoubleValue
3.225

@<SCITEGIC>MOL_PROPERTY
Pdih
SciTegic.value.DoubleValue
5.615

@<SCITEGIC>MOL_PROPERTY
Idih
SciTegic.value.DoubleValue
0.001

@<SCITEGIC>MOL_PROPERTY
Tether
SciTegic.value.DoubleValue
0.000

@<TRIPOS>MOLECULE
guest-8_confgen4.mol2 : confsearch ligand conformer 447
          25          24           1
SMALL
USER_CHARGES
 
@<TRIPOS>ATOM
       1    C1      20.407450   15.815454   25.841984 C.2        1 MOL1         0.6168
       2    O1      20.359434   14.811394   25.159188 O.co2      1 MOL1        -0.6703
       3    O2      20.953462   15.866858   26.926372 O.co2      1 MOL1        -0.6703
       4    C2      19.765512   17.086892   25.298438 C.3        1 MOL1        -0.1963
       5    H1      19.386565   17.667355   26.148157 H          1 MOL1         0.0750
       6    H2      18.899464   16.798262   24.690769 H          1 MOL1         0.0750
       7    C3      20.745119   17.944162   24.459666 C.3        1 MOL1        -0.1860
       8    H3      21.612472   18.213992   25.078039 H          1 MOL1         0.0752
       9    H4      21.125228   17.344401   23.621013 H          1 MOL1         0.0752
      10    C4      20.071377   19.224225   23.919609 C.3        1 MOL1        -0.1858
      11    H5      19.692650   19.820191   24.761157 H          1 MOL1         0.0752
      12    H6      19.200692   18.947411   23.313395 H          1 MOL1         0.0752
      13    C5      21.055465   20.079895   23.087662 C.3        1 MOL1        -0.1858
      14    H7      21.895502   20.362797   23.736677 H          1 MOL1         0.0752
      15    H8      21.486255   19.483150   22.272104 H          1 MOL1         0.0752
      16    C6      20.416694   21.372861   22.519653 C.3        1 MOL1        -0.1858
      17    H9      21.175708   22.166754   22.542016 H          1 MOL1         0.0752
      18    H10     19.605574   21.717290   23.175618 H          1 MOL1         0.0752
      19    C7      19.908198   21.256195   21.061324 C.3        1 MOL1        -0.1834
      20    H11     19.553420   22.243834   20.735942 H          1 MOL1         0.0752
      21    H12     20.745823   20.997349   20.399039 H          1 MOL1         0.0752
      22    C8      18.768829   20.233901   20.868646 C.3        1 MOL1        -0.2849
      23    H13     17.943189   20.427773   21.565564 H          1 MOL1         0.0764
      24    H14     18.370729   20.290810   19.847357 H          1 MOL1         0.0764
      25    H15     19.126365   19.208842   21.026910 H          1 MOL1         0.0764
@<TRIPOS>BOND
    1     1     2    1
    2     1     3    2
    3     1     4    1
    4     4     5    1
    5     4     6    1
    6     4     7    1
    7     7     8    1
    8     7     9    1
    9     7    10    1
   10    10    11    1
   11    10    12    1
   12    10    13    1
   13    13    14    1
   14    13    15    1
   15    13    16    1
   16    16    17    1
   17    16    18    1
   18    16    19    1
   19    19    20    1
   20    19    21    1
   21    19    22    1
   22    22    23    1
   23    22    24    1
   24    22    25    1
@<TRIPOS>SUBSTRUCTURE
       1 MOL1            1 RESIDUE      1      MOL     
@<SCITEGIC>MOL_PROPERTY
VConf Rank
SciTegic.value.IntegerValue
447

@<SCITEGIC>MOL_PROPERTY
Conf_Id
SciTegic.value.IntegerValue
125

@<SCITEGIC>MOL_PROPERTY
Delta U+W
SciTegic.value.DoubleValue
2.314

@<SCITEGIC>MOL_PROPERTY
U+W
SciTegic.value.DoubleValue
-49.315

@<SCITEGIC>MOL_PROPERTY
Grad RMS
SciTegic.value.DoubleValue
0.000000

@<SCITEGIC>MOL_PROPERTY
U
SciTegic.value.DoubleValue
9.740

@<SCITEGIC>MOL_PROPERTY
W
SciTegic.value.DoubleValue
-59.054

@<SCITEGIC>MOL_PROPERTY
W(PB)
SciTegic.value.DoubleValue
-61.488

@<SCITEGIC>MOL_PROPERTY
W(SA)
SciTegic.value.DoubleValue
2.433

@<SCITEGIC>MOL_PROPERTY
Valence
SciTegic.value.DoubleValue
10.506

@<SCITEGIC>MOL_PROPERTY
Coulomb
SciTegic.value.DoubleValue
-1.761

@<SCITEGIC>MOL_PROPERTY
VdW
SciTegic.value.DoubleValue
0.994

@<SCITEGIC>MOL_PROPERTY
VdW6
SciTegic.value.DoubleValue
-9.209

@<SCITEGIC>MOL_PROPERTY
VdW12
SciTegic.value.DoubleValue
10.203

@<SCITEGIC>MOL_PROPERTY
Bond
SciTegic.value.DoubleValue
0.193

@<SCITEGIC>MOL_PROPERTY
Angle
SciTegic.value.DoubleValue
2.979

@<SCITEGIC>MOL_PROPERTY
Pdih
SciTegic.value.DoubleValue
7.334

@<SCITEGIC>MOL_PROPERTY
Idih
SciTegic.value.DoubleValue
0.001

@<SCITEGIC>MOL_PROPERTY
Tether
SciTegic.value.DoubleValue
0.000

@<TRIPOS>MOLECULE
guest-8_confgen4.mol2 : confsearch ligand conformer 448
          25          24           1
SMALL
USER_CHARGES
 
@<TRIPOS>ATOM
       1    C1      16.079129   19.813979   23.541561 C.2        1 MOL1         0.6168
       2    O1      15.601360   19.262183   22.569989 O.co2      1 MOL1        -0.6703
       3    O2      15.441865   20.525707   24.292614 O.co2      1 MOL1        -0.6703
       4    C2      17.565630   19.622317   23.820122 C.3        1 MOL1        -0.1963
       5    H1      17.837618   18.611940   23.494731 H          1 MOL1         0.0750
       6    H2      17.716827   19.667067   24.905245 H          1 MOL1         0.0750
       7    C3      18.449716   20.681852   23.112293 C.3        1 MOL1        -0.1860
       8    H3      18.325064   20.595802   22.023998 H          1 MOL1         0.0752
       9    H4      18.088916   21.682630   23.387451 H          1 MOL1         0.0752
      10    C4      19.949978   20.578571   23.476572 C.3        1 MOL1        -0.1858
      11    H5      20.072118   20.674618   24.564151 H          1 MOL1         0.0752
      12    H6      20.476417   21.432178   23.028099 H          1 MOL1         0.0752
      13    C5      20.611795   19.267656   22.992121 C.3        1 MOL1        -0.1858
      14    H7      20.137263   18.411845   23.487131 H          1 MOL1         0.0752
      15    H8      20.445315   19.149592   21.912812 H          1 MOL1         0.0752
      16    C6      22.130196   19.254522   23.284510 C.3        1 MOL1        -0.1858
      17    H9      22.298874   19.325224   24.367763 H          1 MOL1         0.0752
      18    H10     22.588159   20.148371   22.839371 H          1 MOL1         0.0752
      19    C7      22.852968   18.005226   22.728923 C.3        1 MOL1        -0.1834
      20    H11     22.690821   17.934371   21.644490 H          1 MOL1         0.0752
      21    H12     23.934916   18.131031   22.873106 H          1 MOL1         0.0752
      22    C8      22.411082   16.690244   23.407262 C.3        1 MOL1        -0.2849
      23    H13     21.360097   16.461224   23.191235 H          1 MOL1         0.0764
      24    H14     23.015417   15.849068   23.043810 H          1 MOL1         0.0764
      25    H15     22.534411   16.749191   24.496493 H          1 MOL1         0.0764
@<TRIPOS>BOND
    1     1     2    1
    2     1     3    2
    3     1     4    1
    4     4     5    1
    5     4     6    1
    6     4     7    1
    7     7     8    1
    8     7     9    1
    9     7    10    1
   10    10    11    1
   11    10    12    1
   12    10    13    1
   13    13    14    1
   14    13    15    1
   15    13    16    1
   16    16    17    1
   17    16    18    1
   18    16    19    1
   19    19    20    1
   20    19    21    1
   21    19    22    1
   22    22    23    1
   23    22    24    1
   24    22    25    1
@<TRIPOS>SUBSTRUCTURE
       1 MOL1            1 RESIDUE      1      MOL     
@<SCITEGIC>MOL_PROPERTY
VConf Rank
SciTegic.value.IntegerValue
448

@<SCITEGIC>MOL_PROPERTY
Conf_Id
SciTegic.value.IntegerValue
4

@<SCITEGIC>MOL_PROPERTY
Delta U+W
SciTegic.value.DoubleValue
0.189

@<SCITEGIC>MOL_PROPERTY
U+W
SciTegic.value.DoubleValue
-51.441

@<SCITEGIC>MOL_PROPERTY
Grad RMS
SciTegic.value.DoubleValue
0.000000

@<SCITEGIC>MOL_PROPERTY
U
SciTegic.value.DoubleValue
7.701

@<SCITEGIC>MOL_PROPERTY
W
SciTegic.value.DoubleValue
-59.141

@<SCITEGIC>MOL_PROPERTY
W(PB)
SciTegic.value.DoubleValue
-61.609

@<SCITEGIC>MOL_PROPERTY
W(SA)
SciTegic.value.DoubleValue
2.467

@<SCITEGIC>MOL_PROPERTY
Valence
SciTegic.value.DoubleValue
8.550

@<SCITEGIC>MOL_PROPERTY
Coulomb
SciTegic.value.DoubleValue
-1.988

@<SCITEGIC>MOL_PROPERTY
VdW
SciTegic.value.DoubleValue
1.139

@<SCITEGIC>MOL_PROPERTY
VdW6
SciTegic.value.DoubleValue
-8.988

@<SCITEGIC>MOL_PROPERTY
VdW12
SciTegic.value.DoubleValue
10.127

@<SCITEGIC>MOL_PROPERTY
Bond
SciTegic.value.DoubleValue
0.191

@<SCITEGIC>MOL_PROPERTY
Angle
SciTegic.value.DoubleValue
2.738

@<SCITEGIC>MOL_PROPERTY
Pdih
SciTegic.value.DoubleValue
5.621

@<SCITEGIC>MOL_PROPERTY
Idih
SciTegic.value.DoubleValue
0.001

@<SCITEGIC>MOL_PROPERTY
Tether
SciTegic.value.DoubleValue
0.000

@<TRIPOS>MOLECULE
guest-8_confgen4.mol2 : confsearch ligand conformer 449
          25          24           1
SMALL
USER_CHARGES
 
@<TRIPOS>ATOM
       1    C1      20.520920   22.701135   21.221829 C.2        1 MOL1         0.6168
       2    O1      20.981643   23.490920   22.022246 O.co2      1 MOL1        -0.6703
       3    O2      20.404658   22.935889   20.035189 O.co2      1 MOL1        -0.6703
       4    C2      20.086408   21.331233   21.730344 C.3        1 MOL1        -0.1963
       5    H1      19.247850   20.989246   21.112103 H          1 MOL1         0.0750
       6    H2      19.707789   21.459706   22.750571 H          1 MOL1         0.0750
       7    C3      21.234166   20.288662   21.699735 C.3        1 MOL1        -0.1860
       8    H3      21.652457   20.254662   20.684193 H          1 MOL1         0.0752
       9    H4      22.048198   20.619750   22.359327 H          1 MOL1         0.0752
      10    C4      20.785133   18.862680   22.098609 C.3        1 MOL1        -0.1858
      11    H5      21.626050   18.174800   21.935546 H          1 MOL1         0.0752
      12    H6      19.978107   18.530733   21.431156 H          1 MOL1         0.0752
      13    C5      20.322273   18.752492   23.569939 C.3        1 MOL1        -0.1858
      14    H7      21.112144   19.131540   24.232502 H          1 MOL1         0.0752
      15    H8      19.439790   19.384619   23.725719 H          1 MOL1         0.0752
      16    C6      19.984072   17.292918   23.952647 C.3        1 MOL1        -0.1858
      17    H9      20.851648   16.655407   23.734161 H          1 MOL1         0.0752
      18    H10     19.162127   16.926334   23.322640 H          1 MOL1         0.0752
      19    C7      19.610697   17.118436   25.443273 C.3        1 MOL1        -0.1834
      20    H11     19.503121   16.045911   25.656217 H          1 MOL1         0.0752
      21    H12     20.432980   17.479341   26.076444 H          1 MOL1         0.0752
      22    C8      18.300521   17.836263   25.834105 C.3        1 MOL1        -0.2849
      23    H13     17.469710   17.514456   25.192777 H          1 MOL1         0.0764
      24    H14     18.033044   17.607439   26.873812 H          1 MOL1         0.0764
      25    H15     18.399557   18.925611   25.749249 H          1 MOL1         0.0764
@<TRIPOS>BOND
    1     1     2    1
    2     1     3    2
    3     1     4    1
    4     4     5    1
    5     4     6    1
    6     4     7    1
    7     7     8    1
    8     7     9    1
    9     7    10    1
   10    10    11    1
   11    10    12    1
   12    10    13    1
   13    13    14    1
   14    13    15    1
   15    13    16    1
   16    16    17    1
   17    16    18    1
   18    16    19    1
   19    19    20    1
   20    19    21    1
   21    19    22    1
   22    22    23    1
   23    22    24    1
   24    22    25    1
@<TRIPOS>SUBSTRUCTURE
       1 MOL1            1 RESIDUE      1      MOL     
@<SCITEGIC>MOL_PROPERTY
VConf Rank
SciTegic.value.IntegerValue
449

@<SCITEGIC>MOL_PROPERTY
Conf_Id
SciTegic.value.IntegerValue
17

@<SCITEGIC>MOL_PROPERTY
Delta U+W
SciTegic.value.DoubleValue
0.219

@<SCITEGIC>MOL_PROPERTY
U+W
SciTegic.value.DoubleValue
-51.411

@<SCITEGIC>MOL_PROPERTY
Grad RMS
SciTegic.value.DoubleValue
0.000000

@<SCITEGIC>MOL_PROPERTY
U
SciTegic.value.DoubleValue
7.701

@<SCITEGIC>MOL_PROPERTY
W
SciTegic.value.DoubleValue
-59.111

@<SCITEGIC>MOL_PROPERTY
W(PB)
SciTegic.value.DoubleValue
-61.599

@<SCITEGIC>MOL_PROPERTY
W(SA)
SciTegic.value.DoubleValue
2.488

@<SCITEGIC>MOL_PROPERTY
Valence
SciTegic.value.DoubleValue
8.550

@<SCITEGIC>MOL_PROPERTY
Coulomb
SciTegic.value.DoubleValue
-1.988

@<SCITEGIC>MOL_PROPERTY
VdW
SciTegic.value.DoubleValue
1.139

@<SCITEGIC>MOL_PROPERTY
VdW6
SciTegic.value.DoubleValue
-8.988

@<SCITEGIC>MOL_PROPERTY
VdW12
SciTegic.value.DoubleValue
10.127

@<SCITEGIC>MOL_PROPERTY
Bond
SciTegic.value.DoubleValue
0.191

@<SCITEGIC>MOL_PROPERTY
Angle
SciTegic.value.DoubleValue
2.738

@<SCITEGIC>MOL_PROPERTY
Pdih
SciTegic.value.DoubleValue
5.621

@<SCITEGIC>MOL_PROPERTY
Idih
SciTegic.value.DoubleValue
0.001

@<SCITEGIC>MOL_PROPERTY
Tether
SciTegic.value.DoubleValue
0.000

@<TRIPOS>MOLECULE
guest-8_confgen4.mol2 : confsearch ligand conformer 450
          25          24           1
SMALL
USER_CHARGES
 
@<TRIPOS>ATOM
       1    C1      21.089291   22.847002   22.537857 C.2        1 MOL1         0.6168
       2    O1      20.757405   23.620902   23.414208 O.co2      1 MOL1        -0.6703
       3    O2      20.661759   22.894246   21.401169 O.co2      1 MOL1        -0.6703
       4    C2      22.113770   21.767675   22.876130 C.3        1 MOL1        -0.1963
       5    H1      22.652672   22.068472   23.782705 H          1 MOL1         0.0750
       6    H2      22.848576   21.745910   22.062760 H          1 MOL1         0.0750
       7    C3      21.501645   20.354668   23.059468 C.3        1 MOL1        -0.1860
       8    H3      20.952258   20.084406   22.147986 H          1 MOL1         0.0752
       9    H4      22.315079   19.624837   23.168723 H          1 MOL1         0.0752
      10    C4      20.569245   20.268885   24.291549 C.3        1 MOL1        -0.1858
      11    H5      19.713159   20.944907   24.159516 H          1 MOL1         0.0752
      12    H6      21.112770   20.627820   25.176192 H          1 MOL1         0.0752
      13    C5      20.056124   18.837553   24.577414 C.3        1 MOL1        -0.1858
      14    H7      20.910436   18.161475   24.718552 H          1 MOL1         0.0752
      15    H8      19.508030   18.848489   25.529429 H          1 MOL1         0.0752
      16    C6      19.129369   18.283059   23.470756 C.3        1 MOL1        -0.1858
      17    H9      19.683663   18.194011   22.527486 H          1 MOL1         0.0752
      18    H10     18.306067   18.988602   23.293905 H          1 MOL1         0.0752
      19    C7      18.552387   16.902508   23.848802 C.3        1 MOL1        -0.1834
      20    H11     19.373603   16.194777   24.028186 H          1 MOL1         0.0752
      21    H12     17.987599   16.981078   24.788092 H          1 MOL1         0.0752
      22    C8      17.631433   16.349256   22.742693 C.3        1 MOL1        -0.2849
      23    H13     18.179236   16.229763   21.798756 H          1 MOL1         0.0764
      24    H14     17.230081   15.368188   23.028136 H          1 MOL1         0.0764
      25    H15     16.783543   17.023443   22.563993 H          1 MOL1         0.0764
@<TRIPOS>BOND
    1     1     2    1
    2     1     3    2
    3     1     4    1
    4     4     5    1
    5     4     6    1
    6     4     7    1
    7     7     8    1
    8     7     9    1
    9     7    10    1
   10    10    11    1
   11    10    12    1
   12    10    13    1
   13    13    14    1
   14    13    15    1
   15    13    16    1
   16    16    17    1
   17    16    18    1
   18    16    19    1
   19    19    20    1
   20    19    21    1
   21    19    22    1
   22    22    23    1
   23    22    24    1
   24    22    25    1
@<TRIPOS>SUBSTRUCTURE
       1 MOL1            1 RESIDUE      1      MOL     
@<SCITEGIC>MOL_PROPERTY
VConf Rank
SciTegic.value.IntegerValue
450

@<SCITEGIC>MOL_PROPERTY
Conf_Id
SciTegic.value.IntegerValue
142

@<SCITEGIC>MOL_PROPERTY
Delta U+W
SciTegic.value.DoubleValue
0.593

@<SCITEGIC>MOL_PROPERTY
U+W
SciTegic.value.DoubleValue
-51.037

@<SCITEGIC>MOL_PROPERTY
Grad RMS
SciTegic.value.DoubleValue
0.000000

@<SCITEGIC>MOL_PROPERTY
U
SciTegic.value.DoubleValue
8.903

@<SCITEGIC>MOL_PROPERTY
W
SciTegic.value.DoubleValue
-59.940

@<SCITEGIC>MOL_PROPERTY
W(PB)
SciTegic.value.DoubleValue
-62.418

@<SCITEGIC>MOL_PROPERTY
W(SA)
SciTegic.value.DoubleValue
2.478

@<SCITEGIC>MOL_PROPERTY
Valence
SciTegic.value.DoubleValue
8.305

@<SCITEGIC>MOL_PROPERTY
Coulomb
SciTegic.value.DoubleValue
-0.223

@<SCITEGIC>MOL_PROPERTY
VdW
SciTegic.value.DoubleValue
0.821

@<SCITEGIC>MOL_PROPERTY
VdW6
SciTegic.value.DoubleValue
-9.236

@<SCITEGIC>MOL_PROPERTY
VdW12
SciTegic.value.DoubleValue
10.057

@<SCITEGIC>MOL_PROPERTY
Bond
SciTegic.value.DoubleValue
0.173

@<SCITEGIC>MOL_PROPERTY
Angle
SciTegic.value.DoubleValue
2.663

@<SCITEGIC>MOL_PROPERTY
Pdih
SciTegic.value.DoubleValue
5.469

@<SCITEGIC>MOL_PROPERTY
Idih
SciTegic.value.DoubleValue
0.001

@<SCITEGIC>MOL_PROPERTY
Tether
SciTegic.value.DoubleValue
0.000

@<TRIPOS>MOLECULE
guest-8_confgen4.mol2 : confsearch ligand conformer 451
          25          24           1
SMALL
USER_CHARGES
 
@<TRIPOS>ATOM
       1    C1      21.716843   16.085500   22.590061 C.2        1 MOL1         0.6168
       2    O1      22.216281   15.126768   23.145896 O.co2      1 MOL1        -0.6703
       3    O2      20.947041   15.993837   21.654080 O.co2      1 MOL1        -0.6703
       4    C2      22.100637   17.479458   23.078447 C.3        1 MOL1        -0.1963
       5    H1      21.800728   18.212283   22.320608 H          1 MOL1         0.0750
       6    H2      23.194875   17.517055   23.130874 H          1 MOL1         0.0750
       7    C3      21.506172   17.851672   24.464160 C.3        1 MOL1        -0.1860
       8    H3      21.881399   17.138544   25.211040 H          1 MOL1         0.0752
       9    H4      21.887805   18.834610   24.769179 H          1 MOL1         0.0752
      10    C4      19.956372   17.854271   24.516663 C.3        1 MOL1        -0.1858
      11    H5      19.638475   18.121566   25.533566 H          1 MOL1         0.0752
      12    H6      19.591183   16.832266   24.345699 H          1 MOL1         0.0752
      13    C5      19.261448   18.803084   23.508119 C.3        1 MOL1        -0.1858
      14    H7      19.478980   18.480481   22.481103 H          1 MOL1         0.0752
      15    H8      18.174735   18.703023   23.632919 H          1 MOL1         0.0752
      16    C6      19.653082   20.288256   23.685757 C.3        1 MOL1        -0.1858
      17    H9      20.726009   20.416961   23.492452 H          1 MOL1         0.0752
      18    H10     19.474644   20.593121   24.725897 H          1 MOL1         0.0752
      19    C7      18.856013   21.205907   22.734950 C.3        1 MOL1        -0.1834
      20    H11     19.031067   20.900891   21.693894 H          1 MOL1         0.0752
      21    H12     17.779784   21.091383   22.924654 H          1 MOL1         0.0752
      22    C8      19.252058   22.685955   22.909015 C.3        1 MOL1        -0.2849
      23    H13     20.318256   22.835112   22.693747 H          1 MOL1         0.0764
      24    H14     18.675934   23.323569   22.225959 H          1 MOL1         0.0764
      25    H15     19.058521   23.026187   23.934753 H          1 MOL1         0.0764
@<TRIPOS>BOND
    1     1     2    1
    2     1     3    2
    3     1     4    1
    4     4     5    1
    5     4     6    1
    6     4     7    1
    7     7     8    1
    8     7     9    1
    9     7    10    1
   10    10    11    1
   11    10    12    1
   12    10    13    1
   13    13    14    1
   14    13    15    1
   15    13    16    1
   16    16    17    1
   17    16    18    1
   18    16    19    1
   19    19    20    1
   20    19    21    1
   21    19    22    1
   22    22    23    1
   23    22    24    1
   24    22    25    1
@<TRIPOS>SUBSTRUCTURE
       1 MOL1            1 RESIDUE      1      MOL     
@<SCITEGIC>MOL_PROPERTY
VConf Rank
SciTegic.value.IntegerValue
451

@<SCITEGIC>MOL_PROPERTY
Conf_Id
SciTegic.value.IntegerValue
135

@<SCITEGIC>MOL_PROPERTY
Delta U+W
SciTegic.value.DoubleValue
1.314

@<SCITEGIC>MOL_PROPERTY
U+W
SciTegic.value.DoubleValue
-50.316

@<SCITEGIC>MOL_PROPERTY
Grad RMS
SciTegic.value.DoubleValue
0.000000

@<SCITEGIC>MOL_PROPERTY
U
SciTegic.value.DoubleValue
9.773

@<SCITEGIC>MOL_PROPERTY
W
SciTegic.value.DoubleValue
-60.088

@<SCITEGIC>MOL_PROPERTY
W(PB)
SciTegic.value.DoubleValue
-62.535

@<SCITEGIC>MOL_PROPERTY
W(SA)
SciTegic.value.DoubleValue
2.447

@<SCITEGIC>MOL_PROPERTY
Valence
SciTegic.value.DoubleValue
8.741

@<SCITEGIC>MOL_PROPERTY
Coulomb
SciTegic.value.DoubleValue
0.479

@<SCITEGIC>MOL_PROPERTY
VdW
SciTegic.value.DoubleValue
0.552

@<SCITEGIC>MOL_PROPERTY
VdW6
SciTegic.value.DoubleValue
-10.627

@<SCITEGIC>MOL_PROPERTY
VdW12
SciTegic.value.DoubleValue
11.179

@<SCITEGIC>MOL_PROPERTY
Bond
SciTegic.value.DoubleValue
0.227

@<SCITEGIC>MOL_PROPERTY
Angle
SciTegic.value.DoubleValue
3.155

@<SCITEGIC>MOL_PROPERTY
Pdih
SciTegic.value.DoubleValue
5.358

@<SCITEGIC>MOL_PROPERTY
Idih
SciTegic.value.DoubleValue
0.001

@<SCITEGIC>MOL_PROPERTY
Tether
SciTegic.value.DoubleValue
0.000

@<TRIPOS>MOLECULE
guest-8_confgen4.mol2 : confsearch ligand conformer 452
          25          24           1
SMALL
USER_CHARGES
 
@<TRIPOS>ATOM
       1    C1      19.826965   15.496764   25.252602 C.2        1 MOL1         0.6168
       2    O1      20.811520   14.798198   25.113323 O.co2      1 MOL1        -0.6703
       3    O2      19.017075   15.347911   26.146297 O.co2      1 MOL1        -0.6703
       4    C2      19.607587   16.637242   24.264996 C.3        1 MOL1        -0.1963
       5    H1      18.527040   16.785216   24.151551 H          1 MOL1         0.0750
       6    H2      19.995695   16.313934   23.292877 H          1 MOL1         0.0750
       7    C3      20.284137   17.958268   24.715549 C.3        1 MOL1        -0.1860
       8    H3      19.943325   18.196768   25.732609 H          1 MOL1         0.0752
       9    H4      21.371280   17.812341   24.779628 H          1 MOL1         0.0752
      10    C4      19.970397   19.162408   23.795469 C.3        1 MOL1        -0.1858
      11    H5      20.359781   20.066514   24.280198 H          1 MOL1         0.0752
      12    H6      18.882639   19.290906   23.712713 H          1 MOL1         0.0752
      13    C5      20.593962   19.039432   22.384616 C.3        1 MOL1        -0.1858
      14    H7      21.686620   18.970841   22.473992 H          1 MOL1         0.0752
      15    H8      20.263483   18.103499   21.917404 H          1 MOL1         0.0752
      16    C6      20.228352   20.200389   21.425462 C.3        1 MOL1        -0.1858
      17    H9      19.143285   20.219452   21.254660 H          1 MOL1         0.0752
      18    H10     20.679391   19.976160   20.449163 H          1 MOL1         0.0752
      19    C7      20.725403   21.596844   21.876076 C.3        1 MOL1        -0.1834
      20    H11     21.615728   21.497884   22.512286 H          1 MOL1         0.0752
      21    H12     21.046033   22.159342   20.988329 H          1 MOL1         0.0752
      22    C8      19.639037   22.424222   22.598933 C.3        1 MOL1        -0.2849
      23    H13     19.278468   21.922359   23.504053 H          1 MOL1         0.0764
      24    H14     20.035501   23.404326   22.893924 H          1 MOL1         0.0764
      25    H15     18.777009   22.595157   21.941080 H          1 MOL1         0.0764
@<TRIPOS>BOND
    1     1     2    1
    2     1     3    2
    3     1     4    1
    4     4     5    1
    5     4     6    1
    6     4     7    1
    7     7     8    1
    8     7     9    1
    9     7    10    1
   10    10    11    1
   11    10    12    1
   12    10    13    1
   13    13    14    1
   14    13    15    1
   15    13    16    1
   16    16    17    1
   17    16    18    1
   18    16    19    1
   19    19    20    1
   20    19    21    1
   21    19    22    1
   22    22    23    1
   23    22    24    1
   24    22    25    1
@<TRIPOS>SUBSTRUCTURE
       1 MOL1            1 RESIDUE      1      MOL     
@<SCITEGIC>MOL_PROPERTY
VConf Rank
SciTegic.value.IntegerValue
452

@<SCITEGIC>MOL_PROPERTY
Conf_Id
SciTegic.value.IntegerValue
19

@<SCITEGIC>MOL_PROPERTY
Delta U+W
SciTegic.value.DoubleValue
3.222

@<SCITEGIC>MOL_PROPERTY
U+W
SciTegic.value.DoubleValue
-48.407

@<SCITEGIC>MOL_PROPERTY
Grad RMS
SciTegic.value.DoubleValue
0.000000

@<SCITEGIC>MOL_PROPERTY
U
SciTegic.value.DoubleValue
10.617

@<SCITEGIC>MOL_PROPERTY
W
SciTegic.value.DoubleValue
-59.025

@<SCITEGIC>MOL_PROPERTY
W(PB)
SciTegic.value.DoubleValue
-61.462

@<SCITEGIC>MOL_PROPERTY
W(SA)
SciTegic.value.DoubleValue
2.437

@<SCITEGIC>MOL_PROPERTY
Valence
SciTegic.value.DoubleValue
11.188

@<SCITEGIC>MOL_PROPERTY
Coulomb
SciTegic.value.DoubleValue
-1.778

@<SCITEGIC>MOL_PROPERTY
VdW
SciTegic.value.DoubleValue
1.208

@<SCITEGIC>MOL_PROPERTY
VdW6
SciTegic.value.DoubleValue
-9.786

@<SCITEGIC>MOL_PROPERTY
VdW12
SciTegic.value.DoubleValue
10.993

@<SCITEGIC>MOL_PROPERTY
Bond
SciTegic.value.DoubleValue
0.241

@<SCITEGIC>MOL_PROPERTY
Angle
SciTegic.value.DoubleValue
3.294

@<SCITEGIC>MOL_PROPERTY
Pdih
SciTegic.value.DoubleValue
7.653

@<SCITEGIC>MOL_PROPERTY
Idih
SciTegic.value.DoubleValue
0.001

@<SCITEGIC>MOL_PROPERTY
Tether
SciTegic.value.DoubleValue
0.000

@<TRIPOS>MOLECULE
guest-8_confgen4.mol2 : confsearch ligand conformer 453
          25          24           1
SMALL
USER_CHARGES
 
@<TRIPOS>ATOM
       1    C1      24.101027   19.986162   22.220112 C.2        1 MOL1         0.6168
       2    O1      24.873891   19.115904   22.569502 O.co2      1 MOL1        -0.6703
       3    O2      24.442858   21.119889   21.947007 O.co2      1 MOL1        -0.6703
       4    C2      22.617602   19.643212   22.142536 C.3        1 MOL1        -0.1963
       5    H1      22.534842   18.593808   21.839101 H          1 MOL1         0.0750
       6    H2      22.170138   20.249056   21.345619 H          1 MOL1         0.0750
       7    C3      21.875188   19.888570   23.482107 C.3        1 MOL1        -0.1860
       8    H3      22.299475   19.241769   24.262436 H          1 MOL1         0.0752
       9    H4      22.062710   20.923044   23.801710 H          1 MOL1         0.0752
      10    C4      20.345759   19.669379   23.394153 C.3        1 MOL1        -0.1858
      11    H5      19.927412   20.298250   22.596602 H          1 MOL1         0.0752
      12    H6      19.901638   20.015678   24.335865 H          1 MOL1         0.0752
      13    C5      19.946729   18.192335   23.162681 C.3        1 MOL1        -0.1858
      14    H7      20.440658   17.815942   22.258336 H          1 MOL1         0.0752
      15    H8      20.318572   17.579778   23.995209 H          1 MOL1         0.0752
      16    C6      18.422791   17.964782   22.997434 C.3        1 MOL1        -0.1858
      17    H9      18.269568   16.897613   22.786377 H          1 MOL1         0.0752
      18    H10     18.056888   18.499171   22.110051 H          1 MOL1         0.0752
      19    C7      17.571732   18.337371   24.237225 C.3        1 MOL1        -0.1834
      20    H11     16.759800   17.604181   24.339691 H          1 MOL1         0.0752
      21    H12     18.174249   18.254926   25.152326 H          1 MOL1         0.0752
      22    C8      16.936629   19.742391   24.138092 C.3        1 MOL1        -0.2849
      23    H13     16.269916   19.808387   23.268483 H          1 MOL1         0.0764
      24    H14     16.341294   19.958919   25.034472 H          1 MOL1         0.0764
      25    H15     17.695280   20.527455   24.041962 H          1 MOL1         0.0764
@<TRIPOS>BOND
    1     1     2    1
    2     1     3    2
    3     1     4    1
    4     4     5    1
    5     4     6    1
    6     4     7    1
    7     7     8    1
    8     7     9    1
    9     7    10    1
   10    10    11    1
   11    10    12    1
   12    10    13    1
   13    13    14    1
   14    13    15    1
   15    13    16    1
   16    16    17    1
   17    16    18    1
   18    16    19    1
   19    19    20    1
   20    19    21    1
   21    19    22    1
   22    22    23    1
   23    22    24    1
   24    22    25    1
@<TRIPOS>SUBSTRUCTURE
       1 MOL1            1 RESIDUE      1      MOL     
@<SCITEGIC>MOL_PROPERTY
VConf Rank
SciTegic.value.IntegerValue
453

@<SCITEGIC>MOL_PROPERTY
Conf_Id
SciTegic.value.IntegerValue
20

@<SCITEGIC>MOL_PROPERTY
Delta U+W
SciTegic.value.DoubleValue
3.224

@<SCITEGIC>MOL_PROPERTY
U+W
SciTegic.value.DoubleValue
-48.406

@<SCITEGIC>MOL_PROPERTY
Grad RMS
SciTegic.value.DoubleValue
0.000000

@<SCITEGIC>MOL_PROPERTY
U
SciTegic.value.DoubleValue
10.617

@<SCITEGIC>MOL_PROPERTY
W
SciTegic.value.DoubleValue
-59.023

@<SCITEGIC>MOL_PROPERTY
W(PB)
SciTegic.value.DoubleValue
-61.467

@<SCITEGIC>MOL_PROPERTY
W(SA)
SciTegic.value.DoubleValue
2.444

@<SCITEGIC>MOL_PROPERTY
Valence
SciTegic.value.DoubleValue
11.188

@<SCITEGIC>MOL_PROPERTY
Coulomb
SciTegic.value.DoubleValue
-1.778

@<SCITEGIC>MOL_PROPERTY
VdW
SciTegic.value.DoubleValue
1.208

@<SCITEGIC>MOL_PROPERTY
VdW6
SciTegic.value.DoubleValue
-9.786

@<SCITEGIC>MOL_PROPERTY
VdW12
SciTegic.value.DoubleValue
10.993

@<SCITEGIC>MOL_PROPERTY
Bond
SciTegic.value.DoubleValue
0.241

@<SCITEGIC>MOL_PROPERTY
Angle
SciTegic.value.DoubleValue
3.294

@<SCITEGIC>MOL_PROPERTY
Pdih
SciTegic.value.DoubleValue
7.653

@<SCITEGIC>MOL_PROPERTY
Idih
SciTegic.value.DoubleValue
0.001

@<SCITEGIC>MOL_PROPERTY
Tether
SciTegic.value.DoubleValue
0.000

@<TRIPOS>MOLECULE
guest-8_confgen4.mol2 : confsearch ligand conformer 454
          25          24           1
SMALL
USER_CHARGES
 
@<TRIPOS>ATOM
       1    C1      18.514459   17.539741   25.886889 C.2        1 MOL1         0.6168
       2    O1      18.905327   18.011824   26.936654 O.co2      1 MOL1        -0.6703
       3    O2      18.952460   16.511292   25.409745 O.co2      1 MOL1        -0.6703
       4    C2      17.366692   18.238543   25.160462 C.3        1 MOL1        -0.1963
       5    H1      16.501110   18.187076   25.830974 H          1 MOL1         0.0750
       6    H2      17.105783   17.659709   24.266222 H          1 MOL1         0.0750
       7    C3      17.626937   19.724227   24.783469 C.3        1 MOL1        -0.1860
       8    H3      16.654476   20.207554   24.618715 H          1 MOL1         0.0752
       9    H4      18.086001   20.250977   25.631637 H          1 MOL1         0.0752
      10    C4      18.478586   19.930809   23.506323 C.3        1 MOL1        -0.1858
      11    H5      18.466834   21.000693   23.256938 H          1 MOL1         0.0752
      12    H6      18.008081   19.411656   22.660191 H          1 MOL1         0.0752
      13    C5      19.947083   19.469889   23.646682 C.3        1 MOL1        -0.1858
      14    H7      20.386311   19.908328   24.553266 H          1 MOL1         0.0752
      15    H8      19.985825   18.379743   23.765356 H          1 MOL1         0.0752
      16    C6      20.791283   19.869691   22.417026 C.3        1 MOL1        -0.1858
      17    H9      20.766834   20.961006   22.292926 H          1 MOL1         0.0752
      18    H10     20.347835   19.434410   21.510982 H          1 MOL1         0.0752
      19    C7      22.255084   19.399917   22.551100 C.3        1 MOL1        -0.1834
      20    H11     22.701842   19.834295   23.456186 H          1 MOL1         0.0752
      21    H12     22.283657   18.308248   22.673762 H          1 MOL1         0.0752
      22    C8      23.095419   19.800002   21.321695 C.3        1 MOL1        -0.2849
      23    H13     23.109884   20.890321   21.193766 H          1 MOL1         0.0764
      24    H14     24.132517   19.458159   21.434096 H          1 MOL1         0.0764
      25    H15     22.688491   19.352614   20.405382 H          1 MOL1         0.0764
@<TRIPOS>BOND
    1     1     2    1
    2     1     3    2
    3     1     4    1
    4     4     5    1
    5     4     6    1
    6     4     7    1
    7     7     8    1
    8     7     9    1
    9     7    10    1
   10    10    11    1
   11    10    12    1
   12    10    13    1
   13    13    14    1
   14    13    15    1
   15    13    16    1
   16    16    17    1
   17    16    18    1
   18    16    19    1
   19    19    20    1
   20    19    21    1
   21    19    22    1
   22    22    23    1
   23    22    24    1
   24    22    25    1
@<TRIPOS>SUBSTRUCTURE
       1 MOL1            1 RESIDUE      1      MOL     
@<SCITEGIC>MOL_PROPERTY
VConf Rank
SciTegic.value.IntegerValue
454

@<SCITEGIC>MOL_PROPERTY
Conf_Id
SciTegic.value.IntegerValue
24

@<SCITEGIC>MOL_PROPERTY
Delta U+W
SciTegic.value.DoubleValue
1.784

@<SCITEGIC>MOL_PROPERTY
U+W
SciTegic.value.DoubleValue
-49.846

@<SCITEGIC>MOL_PROPERTY
Grad RMS
SciTegic.value.DoubleValue
0.000000

@<SCITEGIC>MOL_PROPERTY
U
SciTegic.value.DoubleValue
10.904

@<SCITEGIC>MOL_PROPERTY
W
SciTegic.value.DoubleValue
-60.749

@<SCITEGIC>MOL_PROPERTY
W(PB)
SciTegic.value.DoubleValue
-63.220

@<SCITEGIC>MOL_PROPERTY
W(SA)
SciTegic.value.DoubleValue
2.471

@<SCITEGIC>MOL_PROPERTY
Valence
SciTegic.value.DoubleValue
9.445

@<SCITEGIC>MOL_PROPERTY
Coulomb
SciTegic.value.DoubleValue
0.780

@<SCITEGIC>MOL_PROPERTY
VdW
SciTegic.value.DoubleValue
0.679

@<SCITEGIC>MOL_PROPERTY
VdW6
SciTegic.value.DoubleValue
-10.008

@<SCITEGIC>MOL_PROPERTY
VdW12
SciTegic.value.DoubleValue
10.687

@<SCITEGIC>MOL_PROPERTY
Bond
SciTegic.value.DoubleValue
0.201

@<SCITEGIC>MOL_PROPERTY
Angle
SciTegic.value.DoubleValue
3.198

@<SCITEGIC>MOL_PROPERTY
Pdih
SciTegic.value.DoubleValue
6.039

@<SCITEGIC>MOL_PROPERTY
Idih
SciTegic.value.DoubleValue
0.006

@<SCITEGIC>MOL_PROPERTY
Tether
SciTegic.value.DoubleValue
0.000

@<TRIPOS>MOLECULE
guest-8_confgen4.mol2 : confsearch ligand conformer 455
          25          24           1
SMALL
USER_CHARGES
 
@<TRIPOS>ATOM
       1    C1      20.597923   15.905037   24.281443 C.2        1 MOL1         0.6168
       2    O1      19.670368   15.303992   23.775449 O.co2      1 MOL1        -0.6703
       3    O2      21.716328   15.935126   23.806591 O.co2      1 MOL1        -0.6703
       4    C2      20.364862   16.604837   25.619110 C.3        1 MOL1        -0.1963
       5    H1      21.308075   17.050636   25.957340 H          1 MOL1         0.0750
       6    H2      20.114198   15.817304   26.339127 H          1 MOL1         0.0750
       7    C3      19.233601   17.671301   25.621603 C.3        1 MOL1        -0.1860
       8    H3      18.352545   17.283946   25.091235 H          1 MOL1         0.0752
       9    H4      18.915858   17.826093   26.661559 H          1 MOL1         0.0752
      10    C4      19.638698   19.049445   25.042209 C.3        1 MOL1        -0.1858
      11    H5      20.512235   19.436233   25.584579 H          1 MOL1         0.0752
      12    H6      18.819011   19.755312   25.234168 H          1 MOL1         0.0752
      13    C5      19.934768   19.033059   23.525403 C.3        1 MOL1        -0.1858
      14    H7      20.834026   18.436210   23.327632 H          1 MOL1         0.0752
      15    H8      19.104130   18.550162   22.992581 H          1 MOL1         0.0752
      16    C6      20.147636   20.457930   22.969526 C.3        1 MOL1        -0.1858
      17    H9      20.975334   20.940927   23.506798 H          1 MOL1         0.0752
      18    H10     19.249528   21.063057   23.154428 H          1 MOL1         0.0752
      19    C7      20.454677   20.441850   21.457296 C.3        1 MOL1        -0.1834
      20    H11     21.353727   19.838770   21.268596 H          1 MOL1         0.0752
      21    H12     19.628186   19.959881   20.916856 H          1 MOL1         0.0752
      22    C8      20.667143   21.865808   20.905147 C.3        1 MOL1        -0.2849
      23    H13     21.509279   22.360048   21.407051 H          1 MOL1         0.0764
      24    H14     20.884304   21.835261   19.829520 H          1 MOL1         0.0764
      25    H15     19.770567   22.482079   21.052570 H          1 MOL1         0.0764
@<TRIPOS>BOND
    1     1     2    1
    2     1     3    2
    3     1     4    1
    4     4     5    1
    5     4     6    1
    6     4     7    1
    7     7     8    1
    8     7     9    1
    9     7    10    1
   10    10    11    1
   11    10    12    1
   12    10    13    1
   13    13    14    1
   14    13    15    1
   15    13    16    1
   16    16    17    1
   17    16    18    1
   18    16    19    1
   19    19    20    1
   20    19    21    1
   21    19    22    1
   22    22    23    1
   23    22    24    1
   24    22    25    1
@<TRIPOS>SUBSTRUCTURE
       1 MOL1            1 RESIDUE      1      MOL     
@<SCITEGIC>MOL_PROPERTY
VConf Rank
SciTegic.value.IntegerValue
455

@<SCITEGIC>MOL_PROPERTY
Conf_Id
SciTegic.value.IntegerValue
9

@<SCITEGIC>MOL_PROPERTY
Delta U+W
SciTegic.value.DoubleValue
1.764

@<SCITEGIC>MOL_PROPERTY
U+W
SciTegic.value.DoubleValue
-49.865

@<SCITEGIC>MOL_PROPERTY
Grad RMS
SciTegic.value.DoubleValue
0.000000

@<SCITEGIC>MOL_PROPERTY
U
SciTegic.value.DoubleValue
10.902

@<SCITEGIC>MOL_PROPERTY
W
SciTegic.value.DoubleValue
-60.768

@<SCITEGIC>MOL_PROPERTY
W(PB)
SciTegic.value.DoubleValue
-63.223

@<SCITEGIC>MOL_PROPERTY
W(SA)
SciTegic.value.DoubleValue
2.456

@<SCITEGIC>MOL_PROPERTY
Valence
SciTegic.value.DoubleValue
9.445

@<SCITEGIC>MOL_PROPERTY
Coulomb
SciTegic.value.DoubleValue
0.778

@<SCITEGIC>MOL_PROPERTY
VdW
SciTegic.value.DoubleValue
0.679

@<SCITEGIC>MOL_PROPERTY
VdW6
SciTegic.value.DoubleValue
-10.007

@<SCITEGIC>MOL_PROPERTY
VdW12
SciTegic.value.DoubleValue
10.687

@<SCITEGIC>MOL_PROPERTY
Bond
SciTegic.value.DoubleValue
0.201

@<SCITEGIC>MOL_PROPERTY
Angle
SciTegic.value.DoubleValue
3.198

@<SCITEGIC>MOL_PROPERTY
Pdih
SciTegic.value.DoubleValue
6.040

@<SCITEGIC>MOL_PROPERTY
Idih
SciTegic.value.DoubleValue
0.006

@<SCITEGIC>MOL_PROPERTY
Tether
SciTegic.value.DoubleValue
0.000

@<TRIPOS>MOLECULE
guest-8_confgen4.mol2 : confsearch ligand conformer 456
          25          24           1
SMALL
USER_CHARGES
 
@<TRIPOS>ATOM
       1    C1      19.763872   21.521329   20.567020 C.2        1 MOL1         0.6168
       2    O1      20.239421   22.420169   21.232259 O.co2      1 MOL1        -0.6703
       3    O2      19.675722   21.554454   19.355417 O.co2      1 MOL1        -0.6703
       4    C2      19.268960   20.274156   21.290442 C.3        1 MOL1        -0.1963
       5    H1      18.415735   19.874470   20.729626 H          1 MOL1         0.0750
       6    H2      18.890357   20.583405   22.269466 H          1 MOL1         0.0750
       7    C3      20.367746   19.187822   21.432551 C.3        1 MOL1        -0.1860
       8    H3      20.702984   18.912815   20.422886 H          1 MOL1         0.0752
       9    H4      21.247170   19.603661   21.943535 H          1 MOL1         0.0752
      10    C4      19.881041   17.907754   22.158383 C.3        1 MOL1        -0.1858
      11    H5      20.383604   17.044388   21.701276 H          1 MOL1         0.0752
      12    H6      18.807364   17.754781   21.983291 H          1 MOL1         0.0752
      13    C5      20.184161   17.871104   23.677441 C.3        1 MOL1        -0.1858
      14    H7      19.874288   16.892075   24.067352 H          1 MOL1         0.0752
      15    H8      21.269957   17.934098   23.827453 H          1 MOL1         0.0752
      16    C6      19.480033   18.981409   24.492671 C.3        1 MOL1        -0.1858
      17    H9      18.416880   19.009605   24.218252 H          1 MOL1         0.0752
      18    H10     19.903211   19.959762   24.230005 H          1 MOL1         0.0752
      19    C7      19.589350   18.780060   26.022064 C.3        1 MOL1        -0.1834
      20    H11     18.984930   19.548580   26.523279 H          1 MOL1         0.0752
      21    H12     19.152683   17.811220   26.301177 H          1 MOL1         0.0752
      22    C8      21.039341   18.866274   26.545913 C.3        1 MOL1        -0.2849
      23    H13     21.505351   19.817261   26.256771 H          1 MOL1         0.0764
      24    H14     21.056620   18.800409   27.641456 H          1 MOL1         0.0764
      25    H15     21.655576   18.047548   26.153719 H          1 MOL1         0.0764
@<TRIPOS>BOND
    1     1     2    1
    2     1     3    2
    3     1     4    1
    4     4     5    1
    5     4     6    1
    6     4     7    1
    7     7     8    1
    8     7     9    1
    9     7    10    1
   10    10    11    1
   11    10    12    1
   12    10    13    1
   13    13    14    1
   14    13    15    1
   15    13    16    1
   16    16    17    1
   17    16    18    1
   18    16    19    1
   19    19    20    1
   20    19    21    1
   21    19    22    1
   22    22    23    1
   23    22    24    1
   24    22    25    1
@<TRIPOS>SUBSTRUCTURE
       1 MOL1            1 RESIDUE      1      MOL     
@<SCITEGIC>MOL_PROPERTY
VConf Rank
SciTegic.value.IntegerValue
456

@<SCITEGIC>MOL_PROPERTY
Conf_Id
SciTegic.value.IntegerValue
89

@<SCITEGIC>MOL_PROPERTY
Delta U+W
SciTegic.value.DoubleValue
2.903

@<SCITEGIC>MOL_PROPERTY
U+W
SciTegic.value.DoubleValue
-48.726

@<SCITEGIC>MOL_PROPERTY
Grad RMS
SciTegic.value.DoubleValue
0.000000

@<SCITEGIC>MOL_PROPERTY
U
SciTegic.value.DoubleValue
10.996

@<SCITEGIC>MOL_PROPERTY
W
SciTegic.value.DoubleValue
-59.723

@<SCITEGIC>MOL_PROPERTY
W(PB)
SciTegic.value.DoubleValue
-62.151

@<SCITEGIC>MOL_PROPERTY
W(SA)
SciTegic.value.DoubleValue
2.428

@<SCITEGIC>MOL_PROPERTY
Valence
SciTegic.value.DoubleValue
10.985

@<SCITEGIC>MOL_PROPERTY
Coulomb
SciTegic.value.DoubleValue
-0.995

@<SCITEGIC>MOL_PROPERTY
VdW
SciTegic.value.DoubleValue
1.006

@<SCITEGIC>MOL_PROPERTY
VdW6
SciTegic.value.DoubleValue
-10.062

@<SCITEGIC>MOL_PROPERTY
VdW12
SciTegic.value.DoubleValue
11.069

@<SCITEGIC>MOL_PROPERTY
Bond
SciTegic.value.DoubleValue
0.238

@<SCITEGIC>MOL_PROPERTY
Angle
SciTegic.value.DoubleValue
3.202

@<SCITEGIC>MOL_PROPERTY
Pdih
SciTegic.value.DoubleValue
7.544

@<SCITEGIC>MOL_PROPERTY
Idih
SciTegic.value.DoubleValue
0.001

@<SCITEGIC>MOL_PROPERTY
Tether
SciTegic.value.DoubleValue
0.000

@<TRIPOS>MOLECULE
guest-8_confgen4.mol2 : confsearch ligand conformer 457
          25          24           1
SMALL
USER_CHARGES
 
@<TRIPOS>ATOM
       1    C1      21.802111   18.178716   26.372606 C.2        1 MOL1         0.6168
       2    O1      20.888279   17.664946   26.987596 O.co2      1 MOL1        -0.6703
       3    O2      22.786255   17.569597   26.001067 O.co2      1 MOL1        -0.6703
       4    C2      21.737865   19.682194   26.110550 C.3        1 MOL1        -0.1963
       5    H1      22.571465   20.126759   26.666383 H          1 MOL1         0.0750
       6    H2      20.817451   20.082578   26.552480 H          1 MOL1         0.0750
       7    C3      21.845749   20.101201   24.617106 C.3        1 MOL1        -0.1860
       8    H3      22.171569   21.149603   24.583374 H          1 MOL1         0.0752
       9    H4      22.638123   19.523312   24.121363 H          1 MOL1         0.0752
      10    C4      20.526563   19.993130   23.812121 C.3        1 MOL1        -0.1858
      11    H5      20.691161   20.472330   22.839087 H          1 MOL1         0.0752
      12    H6      19.739655   20.573172   24.313002 H          1 MOL1         0.0752
      13    C5      20.040656   18.540055   23.591100 C.3        1 MOL1        -0.1858
      14    H7      20.846112   17.940251   23.145851 H          1 MOL1         0.0752
      15    H8      19.812361   18.083904   24.561999 H          1 MOL1         0.0752
      16    C6      18.770182   18.439918   22.712895 C.3        1 MOL1        -0.1858
      17    H9      17.975729   19.065973   23.141526 H          1 MOL1         0.0752
      18    H10     18.404020   17.404881   22.751963 H          1 MOL1         0.0752
      19    C7      19.004243   18.829515   21.235441 C.3        1 MOL1        -0.1834
      20    H11     19.291921   19.886173   21.161658 H          1 MOL1         0.0752
      21    H12     19.836214   18.241118   20.824586 H          1 MOL1         0.0752
      22    C8      17.741257   18.594717   20.382310 C.3        1 MOL1        -0.2849
      23    H13     16.899217   19.192474   20.755167 H          1 MOL1         0.0764
      24    H14     17.922045   18.878561   19.337419 H          1 MOL1         0.0764
      25    H15     17.445693   17.537512   20.399705 H          1 MOL1         0.0764
@<TRIPOS>BOND
    1     1     2    1
    2     1     3    2
    3     1     4    1
    4     4     5    1
    5     4     6    1
    6     4     7    1
    7     7     8    1
    8     7     9    1
    9     7    10    1
   10    10    11    1
   11    10    12    1
   12    10    13    1
   13    13    14    1
   14    13    15    1
   15    13    16    1
   16    16    17    1
   17    16    18    1
   18    16    19    1
   19    19    20    1
   20    19    21    1
   21    19    22    1
   22    22    23    1
   23    22    24    1
   24    22    25    1
@<TRIPOS>SUBSTRUCTURE
       1 MOL1            1 RESIDUE      1      MOL     
@<SCITEGIC>MOL_PROPERTY
VConf Rank
SciTegic.value.IntegerValue
457

@<SCITEGIC>MOL_PROPERTY
Conf_Id
SciTegic.value.IntegerValue
114

@<SCITEGIC>MOL_PROPERTY
Delta U+W
SciTegic.value.DoubleValue
2.758

@<SCITEGIC>MOL_PROPERTY
U+W
SciTegic.value.DoubleValue
-48.871

@<SCITEGIC>MOL_PROPERTY
Grad RMS
SciTegic.value.DoubleValue
0.000000

@<SCITEGIC>MOL_PROPERTY
U
SciTegic.value.DoubleValue
11.422

@<SCITEGIC>MOL_PROPERTY
W
SciTegic.value.DoubleValue
-60.293

@<SCITEGIC>MOL_PROPERTY
W(PB)
SciTegic.value.DoubleValue
-62.719

@<SCITEGIC>MOL_PROPERTY
W(SA)
SciTegic.value.DoubleValue
2.425

@<SCITEGIC>MOL_PROPERTY
Valence
SciTegic.value.DoubleValue
10.135

@<SCITEGIC>MOL_PROPERTY
Coulomb
SciTegic.value.DoubleValue
0.369

@<SCITEGIC>MOL_PROPERTY
VdW
SciTegic.value.DoubleValue
0.918

@<SCITEGIC>MOL_PROPERTY
VdW6
SciTegic.value.DoubleValue
-10.482

@<SCITEGIC>MOL_PROPERTY
VdW12
SciTegic.value.DoubleValue
11.400

@<SCITEGIC>MOL_PROPERTY
Bond
SciTegic.value.DoubleValue
0.245

@<SCITEGIC>MOL_PROPERTY
Angle
SciTegic.value.DoubleValue
3.539

@<SCITEGIC>MOL_PROPERTY
Pdih
SciTegic.value.DoubleValue
6.346

@<SCITEGIC>MOL_PROPERTY
Idih
SciTegic.value.DoubleValue
0.006

@<SCITEGIC>MOL_PROPERTY
Tether
SciTegic.value.DoubleValue
0.000

@<TRIPOS>MOLECULE
guest-8_confgen4.mol2 : confsearch ligand conformer 458
          25          24           1
SMALL
USER_CHARGES
 
@<TRIPOS>ATOM
       1    C1      17.420005   21.697561   23.557338 C.2        1 MOL1         0.6168
       2    O1      17.632497   22.338686   24.567719 O.co2      1 MOL1        -0.6703
       3    O2      17.419975   22.180127   22.441889 O.co2      1 MOL1        -0.6703
       4    C2      17.115902   20.208545   23.696267 C.3        1 MOL1        -0.1963
       5    H1      16.253931   19.988247   23.055602 H          1 MOL1         0.0750
       6    H2      16.803037   20.010065   24.728496 H          1 MOL1         0.0750
       7    C3      18.299964   19.285651   23.307371 C.3        1 MOL1        -0.1860
       8    H3      17.955522   18.242773   23.311406 H          1 MOL1         0.0752
       9    H4      18.605664   19.515649   22.278305 H          1 MOL1         0.0752
      10    C4      19.503429   19.430139   24.269685 C.3        1 MOL1        -0.1858
      11    H5      19.152830   19.288134   25.301072 H          1 MOL1         0.0752
      12    H6      19.903173   20.452289   24.217580 H          1 MOL1         0.0752
      13    C5      20.640738   18.417242   23.995362 C.3        1 MOL1        -0.1858
      14    H7      21.371482   18.499938   24.809831 H          1 MOL1         0.0752
      15    H8      20.241476   17.394834   24.037704 H          1 MOL1         0.0752
      16    C6      21.354656   18.644339   22.639895 C.3        1 MOL1        -0.1858
      17    H9      21.750569   19.668090   22.596684 H          1 MOL1         0.0752
      18    H10     20.625969   18.557528   21.824087 H          1 MOL1         0.0752
      19    C7      22.496315   17.636215   22.370195 C.3        1 MOL1        -0.1834
      20    H11     22.106177   16.610461   22.424124 H          1 MOL1         0.0752
      21    H12     22.854020   17.777875   21.341011 H          1 MOL1         0.0752
      22    C8      23.692359   17.789733   23.334984 C.3        1 MOL1        -0.2849
      23    H13     24.510521   17.119617   23.040949 H          1 MOL1         0.0764
      24    H14     24.077200   18.817778   23.323346 H          1 MOL1         0.0764
      25    H15     23.412402   17.538004   24.365355 H          1 MOL1         0.0764
@<TRIPOS>BOND
    1     1     2    1
    2     1     3    2
    3     1     4    1
    4     4     5    1
    5     4     6    1
    6     4     7    1
    7     7     8    1
    8     7     9    1
    9     7    10    1
   10    10    11    1
   11    10    12    1
   12    10    13    1
   13    13    14    1
   14    13    15    1
   15    13    16    1
   16    16    17    1
   17    16    18    1
   18    16    19    1
   19    19    20    1
   20    19    21    1
   21    19    22    1
   22    22    23    1
   23    22    24    1
   24    22    25    1
@<TRIPOS>SUBSTRUCTURE
       1 MOL1            1 RESIDUE      1      MOL     
@<SCITEGIC>MOL_PROPERTY
VConf Rank
SciTegic.value.IntegerValue
458

@<SCITEGIC>MOL_PROPERTY
Conf_Id
SciTegic.value.IntegerValue
87

@<SCITEGIC>MOL_PROPERTY
Delta U+W
SciTegic.value.DoubleValue
1.453

@<SCITEGIC>MOL_PROPERTY
U+W
SciTegic.value.DoubleValue
-50.176

@<SCITEGIC>MOL_PROPERTY
Grad RMS
SciTegic.value.DoubleValue
0.000000

@<SCITEGIC>MOL_PROPERTY
U
SciTegic.value.DoubleValue
9.763

@<SCITEGIC>MOL_PROPERTY
W
SciTegic.value.DoubleValue
-59.940

@<SCITEGIC>MOL_PROPERTY
W(PB)
SciTegic.value.DoubleValue
-62.392

@<SCITEGIC>MOL_PROPERTY
W(SA)
SciTegic.value.DoubleValue
2.452

@<SCITEGIC>MOL_PROPERTY
Valence
SciTegic.value.DoubleValue
8.883

@<SCITEGIC>MOL_PROPERTY
Coulomb
SciTegic.value.DoubleValue
-0.122

@<SCITEGIC>MOL_PROPERTY
VdW
SciTegic.value.DoubleValue
1.003

@<SCITEGIC>MOL_PROPERTY
VdW6
SciTegic.value.DoubleValue
-9.782

@<SCITEGIC>MOL_PROPERTY
VdW12
SciTegic.value.DoubleValue
10.785

@<SCITEGIC>MOL_PROPERTY
Bond
SciTegic.value.DoubleValue
0.212

@<SCITEGIC>MOL_PROPERTY
Angle
SciTegic.value.DoubleValue
2.940

@<SCITEGIC>MOL_PROPERTY
Pdih
SciTegic.value.DoubleValue
5.730

@<SCITEGIC>MOL_PROPERTY
Idih
SciTegic.value.DoubleValue
0.001

@<SCITEGIC>MOL_PROPERTY
Tether
SciTegic.value.DoubleValue
0.000

@<TRIPOS>MOLECULE
guest-8_confgen4.mol2 : confsearch ligand conformer 459
          25          24           1
SMALL
USER_CHARGES
 
@<TRIPOS>ATOM
       1    C1      18.680658   15.638567   24.673213 C.2        1 MOL1         0.6168
       2    O1      19.086345   14.863747   23.829556 O.co2      1 MOL1        -0.6703
       3    O2      18.538348   15.345306   25.843892 O.co2      1 MOL1        -0.6703
       4    C2      18.349196   17.062966   24.242646 C.3        1 MOL1        -0.1963
       5    H1      17.523309   17.424069   24.867142 H          1 MOL1         0.0750
       6    H2      17.984392   17.030324   23.208999 H          1 MOL1         0.0750
       7    C3      19.560841   18.021174   24.350821 C.3        1 MOL1        -0.1860
       8    H3      19.920389   18.037107   25.388903 H          1 MOL1         0.0752
       9    H4      20.380025   17.628736   23.733800 H          1 MOL1         0.0752
      10    C4      19.199456   19.455906   23.901853 C.3        1 MOL1        -0.1858
      11    H5      18.334466   19.804705   24.482156 H          1 MOL1         0.0752
      12    H6      18.878096   19.447014   22.852065 H          1 MOL1         0.0752
      13    C5      20.354866   20.470594   24.090998 C.3        1 MOL1        -0.1858
      14    H7      19.999376   21.469668   23.806642 H          1 MOL1         0.0752
      15    H8      20.597700   20.535343   25.160254 H          1 MOL1         0.0752
      16    C6      21.654764   20.148542   23.307183 C.3        1 MOL1        -0.1858
      17    H9      22.101144   19.228305   23.706149 H          1 MOL1         0.0752
      18    H10     22.387647   20.942634   23.504135 H          1 MOL1         0.0752
      19    C7      21.481433   19.999119   21.775595 C.3        1 MOL1        -0.1834
      20    H11     22.456404   19.748729   21.335549 H          1 MOL1         0.0752
      21    H12     20.820319   19.151555   21.551103 H          1 MOL1         0.0752
      22    C8      20.942052   21.275867   21.095136 C.3        1 MOL1        -0.2849
      23    H13     21.580019   22.140303   21.320268 H          1 MOL1         0.0764
      24    H14     20.915866   21.148768   20.005234 H          1 MOL1         0.0764
      25    H15     19.921896   21.504325   21.428355 H          1 MOL1         0.0764
@<TRIPOS>BOND
    1     1     2    1
    2     1     3    2
    3     1     4    1
    4     4     5    1
    5     4     6    1
    6     4     7    1
    7     7     8    1
    8     7     9    1
    9     7    10    1
   10    10    11    1
   11    10    12    1
   12    10    13    1
   13    13    14    1
   14    13    15    1
   15    13    16    1
   16    16    17    1
   17    16    18    1
   18    16    19    1
   19    19    20    1
   20    19    21    1
   21    19    22    1
   22    22    23    1
   23    22    24    1
   24    22    25    1
@<TRIPOS>SUBSTRUCTURE
       1 MOL1            1 RESIDUE      1      MOL     
@<SCITEGIC>MOL_PROPERTY
VConf Rank
SciTegic.value.IntegerValue
459

@<SCITEGIC>MOL_PROPERTY
Conf_Id
SciTegic.value.IntegerValue
29

@<SCITEGIC>MOL_PROPERTY
Delta U+W
SciTegic.value.DoubleValue
0.850

@<SCITEGIC>MOL_PROPERTY
U+W
SciTegic.value.DoubleValue
-50.780

@<SCITEGIC>MOL_PROPERTY
Grad RMS
SciTegic.value.DoubleValue
0.000000

@<SCITEGIC>MOL_PROPERTY
U
SciTegic.value.DoubleValue
8.646

@<SCITEGIC>MOL_PROPERTY
W
SciTegic.value.DoubleValue
-59.426

@<SCITEGIC>MOL_PROPERTY
W(PB)
SciTegic.value.DoubleValue
-61.868

@<SCITEGIC>MOL_PROPERTY
W(SA)
SciTegic.value.DoubleValue
2.442

@<SCITEGIC>MOL_PROPERTY
Valence
SciTegic.value.DoubleValue
8.924

@<SCITEGIC>MOL_PROPERTY
Coulomb
SciTegic.value.DoubleValue
-1.171

@<SCITEGIC>MOL_PROPERTY
VdW
SciTegic.value.DoubleValue
0.894

@<SCITEGIC>MOL_PROPERTY
VdW6
SciTegic.value.DoubleValue
-10.223

@<SCITEGIC>MOL_PROPERTY
VdW12
SciTegic.value.DoubleValue
11.117

@<SCITEGIC>MOL_PROPERTY
Bond
SciTegic.value.DoubleValue
0.231

@<SCITEGIC>MOL_PROPERTY
Angle
SciTegic.value.DoubleValue
3.232

@<SCITEGIC>MOL_PROPERTY
Pdih
SciTegic.value.DoubleValue
5.461

@<SCITEGIC>MOL_PROPERTY
Idih
SciTegic.value.DoubleValue
0.001

@<SCITEGIC>MOL_PROPERTY
Tether
SciTegic.value.DoubleValue
0.000

@<TRIPOS>MOLECULE
guest-8_confgen4.mol2 : confsearch ligand conformer 460
          25          24           1
SMALL
USER_CHARGES
 
@<TRIPOS>ATOM
       1    C1      17.156769   17.202489   25.272100 C.2        1 MOL1         0.6168
       2    O1      16.237327   17.996672   25.247890 O.co2      1 MOL1        -0.6703
       3    O2      17.344599   16.417453   26.180493 O.co2      1 MOL1        -0.6703
       4    C2      18.140182   17.203899   24.107167 C.3        1 MOL1        -0.1963
       5    H1      17.593037   17.486275   23.199715 H          1 MOL1         0.0750
       6    H2      18.499504   16.177865   23.963552 H          1 MOL1         0.0750
       7    C3      19.335040   18.163371   24.330064 C.3        1 MOL1        -0.1860
       8    H3      18.949637   19.178928   24.490979 H          1 MOL1         0.0752
       9    H4      19.868139   17.873705   25.246056 H          1 MOL1         0.0752
      10    C4      20.312057   18.150884   23.131766 C.3        1 MOL1        -0.1858
      11    H5      19.790118   18.478790   22.223216 H          1 MOL1         0.0752
      12    H6      20.632429   17.117333   22.942673 H          1 MOL1         0.0752
      13    C5      21.575034   19.019540   23.356855 C.3        1 MOL1        -0.1858
      14    H7      22.133669   18.617019   24.212644 H          1 MOL1         0.0752
      15    H8      22.240115   18.909349   22.490307 H          1 MOL1         0.0752
      16    C6      21.306576   20.527340   23.606441 C.3        1 MOL1        -0.1858
      17    H9      22.270902   21.038228   23.731170 H          1 MOL1         0.0752
      18    H10     20.781132   20.649487   24.562607 H          1 MOL1         0.0752
      19    C7      20.501595   21.246491   22.496053 C.3        1 MOL1        -0.1834
      20    H11     19.497702   20.809169   22.413696 H          1 MOL1         0.0752
      21    H12     20.353300   22.293657   22.793298 H          1 MOL1         0.0752
      22    C8      21.199003   21.214647   21.118866 C.3        1 MOL1        -0.2849
      23    H13     21.272637   20.190079   20.733142 H          1 MOL1         0.0764
      24    H14     20.633012   21.805995   20.387641 H          1 MOL1         0.0764
      25    H15     22.211902   21.632986   21.181832 H          1 MOL1         0.0764
@<TRIPOS>BOND
    1     1     2    1
    2     1     3    2
    3     1     4    1
    4     4     5    1
    5     4     6    1
    6     4     7    1
    7     7     8    1
    8     7     9    1
    9     7    10    1
   10    10    11    1
   11    10    12    1
   12    10    13    1
   13    13    14    1
   14    13    15    1
   15    13    16    1
   16    16    17    1
   17    16    18    1
   18    16    19    1
   19    19    20    1
   20    19    21    1
   21    19    22    1
   22    22    23    1
   23    22    24    1
   24    22    25    1
@<TRIPOS>SUBSTRUCTURE
       1 MOL1            1 RESIDUE      1      MOL     
@<SCITEGIC>MOL_PROPERTY
VConf Rank
SciTegic.value.IntegerValue
460

@<SCITEGIC>MOL_PROPERTY
Conf_Id
SciTegic.value.IntegerValue
30

@<SCITEGIC>MOL_PROPERTY
Delta U+W
SciTegic.value.DoubleValue
0.843

@<SCITEGIC>MOL_PROPERTY
U+W
SciTegic.value.DoubleValue
-50.787

@<SCITEGIC>MOL_PROPERTY
Grad RMS
SciTegic.value.DoubleValue
0.000000

@<SCITEGIC>MOL_PROPERTY
U
SciTegic.value.DoubleValue
8.647

@<SCITEGIC>MOL_PROPERTY
W
SciTegic.value.DoubleValue
-59.434

@<SCITEGIC>MOL_PROPERTY
W(PB)
SciTegic.value.DoubleValue
-61.861

@<SCITEGIC>MOL_PROPERTY
W(SA)
SciTegic.value.DoubleValue
2.428

@<SCITEGIC>MOL_PROPERTY
Valence
SciTegic.value.DoubleValue
8.924

@<SCITEGIC>MOL_PROPERTY
Coulomb
SciTegic.value.DoubleValue
-1.170

@<SCITEGIC>MOL_PROPERTY
VdW
SciTegic.value.DoubleValue
0.894

@<SCITEGIC>MOL_PROPERTY
VdW6
SciTegic.value.DoubleValue
-10.224

@<SCITEGIC>MOL_PROPERTY
VdW12
SciTegic.value.DoubleValue
11.118

@<SCITEGIC>MOL_PROPERTY
Bond
SciTegic.value.DoubleValue
0.231

@<SCITEGIC>MOL_PROPERTY
Angle
SciTegic.value.DoubleValue
3.232

@<SCITEGIC>MOL_PROPERTY
Pdih
SciTegic.value.DoubleValue
5.460

@<SCITEGIC>MOL_PROPERTY
Idih
SciTegic.value.DoubleValue
0.000

@<SCITEGIC>MOL_PROPERTY
Tether
SciTegic.value.DoubleValue
0.000

@<TRIPOS>MOLECULE
guest-8_confgen4.mol2 : confsearch ligand conformer 461
          25          24           1
SMALL
USER_CHARGES
 
@<TRIPOS>ATOM
       1    C1      16.377625   19.663188   20.259144 C.2        1 MOL1         0.6168
       2    O1      15.943626   20.629438   20.856312 O.co2      1 MOL1        -0.6703
       3    O2      15.836578   19.190282   19.279478 O.co2      1 MOL1        -0.6703
       4    C2      17.663580   18.988993   20.739955 C.3        1 MOL1        -0.1963
       5    H1      18.372539   19.003441   19.903848 H          1 MOL1         0.0750
       6    H2      17.425992   17.937836   20.941266 H          1 MOL1         0.0750
       7    C3      18.317695   19.628463   21.993601 C.3        1 MOL1        -0.1860
       8    H3      18.547212   20.683066   21.787111 H          1 MOL1         0.0752
       9    H4      17.599838   19.616452   22.825492 H          1 MOL1         0.0752
      10    C4      19.607347   18.887876   22.409506 C.3        1 MOL1        -0.1858
      11    H5      20.323448   18.901119   21.576342 H          1 MOL1         0.0752
      12    H6      19.375477   17.833845   22.615393 H          1 MOL1         0.0752
      13    C5      20.256350   19.525651   23.656713 C.3        1 MOL1        -0.1858
      14    H7      20.488363   20.579691   23.451106 H          1 MOL1         0.0752
      15    H8      19.540490   19.512508   24.490065 H          1 MOL1         0.0752
      16    C6      21.545897   18.785644   24.073094 C.3        1 MOL1        -0.1858
      17    H9      22.261928   18.798710   23.239895 H          1 MOL1         0.0752
      18    H10     21.314094   17.731592   24.278854 H          1 MOL1         0.0752
      19    C7      22.194723   19.423075   25.319716 C.3        1 MOL1        -0.1834
      20    H11     22.429765   20.477183   25.116985 H          1 MOL1         0.0752
      21    H12     21.481947   19.410070   26.155939 H          1 MOL1         0.0752
      22    C8      23.482055   18.681341   25.732284 C.3        1 MOL1        -0.2849
      23    H13     24.225583   18.706045   24.924848 H          1 MOL1         0.0764
      24    H14     23.929765   19.147572   26.619567 H          1 MOL1         0.0764
      25    H15     23.270633   17.630910   25.971641 H          1 MOL1         0.0764
@<TRIPOS>BOND
    1     1     2    1
    2     1     3    2
    3     1     4    1
    4     4     5    1
    5     4     6    1
    6     4     7    1
    7     7     8    1
    8     7     9    1
    9     7    10    1
   10    10    11    1
   11    10    12    1
   12    10    13    1
   13    13    14    1
   14    13    15    1
   15    13    16    1
   16    16    17    1
   17    16    18    1
   18    16    19    1
   19    19    20    1
   20    19    21    1
   21    19    22    1
   22    22    23    1
   23    22    24    1
   24    22    25    1
@<TRIPOS>SUBSTRUCTURE
       1 MOL1            1 RESIDUE      1      MOL     
@<SCITEGIC>MOL_PROPERTY
VConf Rank
SciTegic.value.IntegerValue
461

@<SCITEGIC>MOL_PROPERTY
Conf_Id
SciTegic.value.IntegerValue
0

@<SCITEGIC>MOL_PROPERTY
Delta U+W
SciTegic.value.DoubleValue
0.000

@<SCITEGIC>MOL_PROPERTY
U+W
SciTegic.value.DoubleValue
-51.629

@<SCITEGIC>MOL_PROPERTY
Grad RMS
SciTegic.value.DoubleValue
0.000000

@<SCITEGIC>MOL_PROPERTY
U
SciTegic.value.DoubleValue
6.586

@<SCITEGIC>MOL_PROPERTY
W
SciTegic.value.DoubleValue
-58.216

@<SCITEGIC>MOL_PROPERTY
W(PB)
SciTegic.value.DoubleValue
-60.757

@<SCITEGIC>MOL_PROPERTY
W(SA)
SciTegic.value.DoubleValue
2.541

@<SCITEGIC>MOL_PROPERTY
Valence
SciTegic.value.DoubleValue
8.027

@<SCITEGIC>MOL_PROPERTY
Coulomb
SciTegic.value.DoubleValue
-2.892

@<SCITEGIC>MOL_PROPERTY
VdW
SciTegic.value.DoubleValue
1.451

@<SCITEGIC>MOL_PROPERTY
VdW6
SciTegic.value.DoubleValue
-7.931

@<SCITEGIC>MOL_PROPERTY
VdW12
SciTegic.value.DoubleValue
9.383

@<SCITEGIC>MOL_PROPERTY
Bond
SciTegic.value.DoubleValue
0.149

@<SCITEGIC>MOL_PROPERTY
Angle
SciTegic.value.DoubleValue
2.726

@<SCITEGIC>MOL_PROPERTY
Pdih
SciTegic.value.DoubleValue
5.152

@<SCITEGIC>MOL_PROPERTY
Idih
SciTegic.value.DoubleValue
0.000

@<SCITEGIC>MOL_PROPERTY
Tether
SciTegic.value.DoubleValue
0.000

@<TRIPOS>MOLECULE
guest-8_confgen4.mol2 : confsearch ligand conformer 462
          25          24           1
SMALL
USER_CHARGES
 
@<TRIPOS>ATOM
       1    C1      16.343141   16.905236   24.733653 C.2        1 MOL1         0.6168
       2    O1      16.588082   15.972363   25.472822 O.co2      1 MOL1        -0.6703
       3    O2      15.350262   17.599003   24.831114 O.co2      1 MOL1        -0.6703
       4    C2      17.348846   17.238042   23.637350 C.3        1 MOL1        -0.1963
       5    H1      16.797116   17.642998   22.780490 H          1 MOL1         0.0750
       6    H2      17.816760   16.302218   23.308876 H          1 MOL1         0.0750
       7    C3      18.431695   18.243801   24.099853 C.3        1 MOL1        -0.1860
       8    H3      17.946158   19.169911   24.437742 H          1 MOL1         0.0752
       9    H4      18.965666   17.829216   24.966217 H          1 MOL1         0.0752
      10    C4      19.437411   18.564395   22.973009 C.3        1 MOL1        -0.1858
      11    H5      18.900377   18.977582   22.108108 H          1 MOL1         0.0752
      12    H6      19.920002   17.636443   22.636571 H          1 MOL1         0.0752
      13    C5      20.515750   19.567051   23.437048 C.3        1 MOL1        -0.1858
      14    H7      20.033405   20.495100   23.773461 H          1 MOL1         0.0752
      15    H8      21.052905   19.154055   24.301920 H          1 MOL1         0.0752
      16    C6      21.521859   19.888075   22.310742 C.3        1 MOL1        -0.1858
      17    H9      20.985019   20.301197   21.445740 H          1 MOL1         0.0752
      18    H10     22.004392   18.960207   21.974116 H          1 MOL1         0.0752
      19    C7      22.599850   20.890221   22.774425 C.3        1 MOL1        -0.1834
      20    H11     22.120948   21.820492   23.110188 H          1 MOL1         0.0752
      21    H12     23.140330   20.479505   23.638533 H          1 MOL1         0.0752
      22    C8      23.602510   21.208207   21.646968 C.3        1 MOL1        -0.2849
      23    H13     24.361288   21.921673   21.993824 H          1 MOL1         0.0764
      24    H14     24.119653   20.299051   21.313207 H          1 MOL1         0.0764
      25    H15     23.092594   21.650128   20.780892 H          1 MOL1         0.0764
@<TRIPOS>BOND
    1     1     2    1
    2     1     3    2
    3     1     4    1
    4     4     5    1
    5     4     6    1
    6     4     7    1
    7     7     8    1
    8     7     9    1
    9     7    10    1
   10    10    11    1
   11    10    12    1
   12    10    13    1
   13    13    14    1
   14    13    15    1
   15    13    16    1
   16    16    17    1
   17    16    18    1
   18    16    19    1
   19    19    20    1
   20    19    21    1
   21    19    22    1
   22    22    23    1
   23    22    24    1
   24    22    25    1
@<TRIPOS>SUBSTRUCTURE
       1 MOL1            1 RESIDUE      1      MOL     
@<SCITEGIC>MOL_PROPERTY
VConf Rank
SciTegic.value.IntegerValue
462

@<SCITEGIC>MOL_PROPERTY
Conf_Id
SciTegic.value.IntegerValue
27

@<SCITEGIC>MOL_PROPERTY
Delta U+W
SciTegic.value.DoubleValue
-1.297

@<SCITEGIC>MOL_PROPERTY
U+W
SciTegic.value.DoubleValue
-52.926

@<SCITEGIC>MOL_PROPERTY
Grad RMS
SciTegic.value.DoubleValue
0.000000

@<SCITEGIC>MOL_PROPERTY
U
SciTegic.value.DoubleValue
5.617

@<SCITEGIC>MOL_PROPERTY
W
SciTegic.value.DoubleValue
-58.543

@<SCITEGIC>MOL_PROPERTY
W(PB)
SciTegic.value.DoubleValue
-61.065

@<SCITEGIC>MOL_PROPERTY
W(SA)
SciTegic.value.DoubleValue
2.522

@<SCITEGIC>MOL_PROPERTY
Valence
SciTegic.value.DoubleValue
7.531

@<SCITEGIC>MOL_PROPERTY
Coulomb
SciTegic.value.DoubleValue
-2.818

@<SCITEGIC>MOL_PROPERTY
VdW
SciTegic.value.DoubleValue
0.904

@<SCITEGIC>MOL_PROPERTY
VdW6
SciTegic.value.DoubleValue
-7.640

@<SCITEGIC>MOL_PROPERTY
VdW12
SciTegic.value.DoubleValue
8.544

@<SCITEGIC>MOL_PROPERTY
Bond
SciTegic.value.DoubleValue
0.115

@<SCITEGIC>MOL_PROPERTY
Angle
SciTegic.value.DoubleValue
2.271

@<SCITEGIC>MOL_PROPERTY
Pdih
SciTegic.value.DoubleValue
5.144

@<SCITEGIC>MOL_PROPERTY
Idih
SciTegic.value.DoubleValue
0.001

@<SCITEGIC>MOL_PROPERTY
Tether
SciTegic.value.DoubleValue
0.000

@<TRIPOS>MOLECULE
guest-8_confgen4.mol2 : confsearch ligand conformer 463
          25          24           1
SMALL
USER_CHARGES
 
@<TRIPOS>ATOM
       1    C1      21.636022   22.104019   25.611235 C.2        1 MOL1         0.6168
       2    O1      21.324608   22.017714   26.782835 O.co2      1 MOL1        -0.6703
       3    O2      22.778738   22.004233   25.209730 O.co2      1 MOL1        -0.6703
       4    C2      20.531779   22.369099   24.591752 C.3        1 MOL1        -0.1963
       5    H1      20.989143   22.755065   23.672679 H          1 MOL1         0.0750
       6    H2      19.900578   23.170664   24.993080 H          1 MOL1         0.0750
       7    C3      19.655862   21.129296   24.274576 C.3        1 MOL1        -0.1860
       8    H3      19.227412   20.738017   25.207852 H          1 MOL1         0.0752
       9    H4      18.811238   21.441182   23.645381 H          1 MOL1         0.0752
      10    C4      20.444342   20.013630   23.552525 C.3        1 MOL1        -0.1858
      11    H5      21.281220   19.683834   24.183630 H          1 MOL1         0.0752
      12    H6      20.881791   20.413232   22.627332 H          1 MOL1         0.0752
      13    C5      19.546112   18.803236   23.218219 C.3        1 MOL1        -0.1858
      14    H7      19.109159   18.404334   24.143981 H          1 MOL1         0.0752
      15    H8      18.710177   19.130102   22.584650 H          1 MOL1         0.0752
      16    C6      20.333501   17.687701   22.497482 C.3        1 MOL1        -0.1858
      17    H9      21.169555   17.360766   23.130930 H          1 MOL1         0.0752
      18    H10     20.770844   18.086490   21.571858 H          1 MOL1         0.0752
      19    C7      19.436225   16.477421   22.163582 C.3        1 MOL1        -0.1834
      20    H11     18.998449   16.074742   23.087533 H          1 MOL1         0.0752
      21    H12     18.599776   16.800434   21.528371 H          1 MOL1         0.0752
      22    C8      20.226301   15.365748   21.444161 C.3        1 MOL1        -0.2849
      23    H13     21.051016   15.001550   22.070740 H          1 MOL1         0.0764
      24    H14     19.573398   14.513661   21.214498 H          1 MOL1         0.0764
      25    H15     20.649397   15.732704   20.499847 H          1 MOL1         0.0764
@<TRIPOS>BOND
    1     1     2    1
    2     1     3    2
    3     1     4    1
    4     4     5    1
    5     4     6    1
    6     4     7    1
    7     7     8    1
    8     7     9    1
    9     7    10    1
   10    10    11    1
   11    10    12    1
   12    10    13    1
   13    13    14    1
   14    13    15    1
   15    13    16    1
   16    16    17    1
   17    16    18    1
   18    16    19    1
   19    19    20    1
   20    19    21    1
   21    19    22    1
   22    22    23    1
   23    22    24    1
   24    22    25    1
@<TRIPOS>SUBSTRUCTURE
       1 MOL1            1 RESIDUE      1      MOL     
@<SCITEGIC>MOL_PROPERTY
VConf Rank
SciTegic.value.IntegerValue
463

@<SCITEGIC>MOL_PROPERTY
Conf_Id
SciTegic.value.IntegerValue
37

@<SCITEGIC>MOL_PROPERTY
Delta U+W
SciTegic.value.DoubleValue
-0.230

@<SCITEGIC>MOL_PROPERTY
U+W
SciTegic.value.DoubleValue
-51.860

@<SCITEGIC>MOL_PROPERTY
Grad RMS
SciTegic.value.DoubleValue
0.000000

@<SCITEGIC>MOL_PROPERTY
U
SciTegic.value.DoubleValue
7.816

@<SCITEGIC>MOL_PROPERTY
W
SciTegic.value.DoubleValue
-59.675

@<SCITEGIC>MOL_PROPERTY
W(PB)
SciTegic.value.DoubleValue
-62.180

@<SCITEGIC>MOL_PROPERTY
W(SA)
SciTegic.value.DoubleValue
2.505

@<SCITEGIC>MOL_PROPERTY
Valence
SciTegic.value.DoubleValue
7.785

@<SCITEGIC>MOL_PROPERTY
Coulomb
SciTegic.value.DoubleValue
-0.713

@<SCITEGIC>MOL_PROPERTY
VdW
SciTegic.value.DoubleValue
0.744

@<SCITEGIC>MOL_PROPERTY
VdW6
SciTegic.value.DoubleValue
-8.514

@<SCITEGIC>MOL_PROPERTY
VdW12
SciTegic.value.DoubleValue
9.259

@<SCITEGIC>MOL_PROPERTY
Bond
SciTegic.value.DoubleValue
0.136

@<SCITEGIC>MOL_PROPERTY
Angle
SciTegic.value.DoubleValue
2.433

@<SCITEGIC>MOL_PROPERTY
Pdih
SciTegic.value.DoubleValue
5.216

@<SCITEGIC>MOL_PROPERTY
Idih
SciTegic.value.DoubleValue
0.000

@<SCITEGIC>MOL_PROPERTY
Tether
SciTegic.value.DoubleValue
0.000

@<TRIPOS>MOLECULE
guest-8_confgen4.mol2 : confsearch ligand conformer 464
          25          24           1
SMALL
USER_CHARGES
 
@<TRIPOS>ATOM
       1    C1      18.666023   16.570595   25.947522 C.2        1 MOL1         0.6168
       2    O1      19.555874   15.922475   26.462478 O.co2      1 MOL1        -0.6703
       3    O2      17.844832   16.099321   25.185611 O.co2      1 MOL1        -0.6703
       4    C2      18.566495   18.054268   26.290708 C.3        1 MOL1        -0.1963
       5    H1      18.676706   18.147487   27.377514 H          1 MOL1         0.0750
       6    H2      17.557019   18.403995   26.042727 H          1 MOL1         0.0750
       7    C3      19.627961   18.937183   25.584525 C.3        1 MOL1        -0.1860
       8    H3      19.571721   19.956030   25.991142 H          1 MOL1         0.0752
       9    H4      20.632036   18.557667   25.820054 H          1 MOL1         0.0752
      10    C4      19.433999   18.988697   24.052372 C.3        1 MOL1        -0.1858
      11    H5      18.424416   19.355938   23.822374 H          1 MOL1         0.0752
      12    H6      19.506274   17.974501   23.635712 H          1 MOL1         0.0752
      13    C5      20.481214   19.897752   23.373705 C.3        1 MOL1        -0.1858
      14    H7      20.408835   20.913240   23.786720 H          1 MOL1         0.0752
      15    H8      21.490412   19.529659   23.604169 H          1 MOL1         0.0752
      16    C6      20.288460   19.949153   21.842673 C.3        1 MOL1        -0.1858
      17    H9      19.279207   20.316951   21.611990 H          1 MOL1         0.0752
      18    H10     20.360683   18.933674   21.429498 H          1 MOL1         0.0752
      19    C7      21.335349   20.857187   21.163804 C.3        1 MOL1        -0.1834
      20    H11     21.264771   21.874392   21.573426 H          1 MOL1         0.0752
      21    H12     22.346220   20.491030   21.390856 H          1 MOL1         0.0752
      22    C8      21.139400   20.905747   19.635128 C.3        1 MOL1        -0.2849
      23    H13     20.146772   21.298543   19.378621 H          1 MOL1         0.0764
      24    H14     21.891685   21.555297   19.169043 H          1 MOL1         0.0764
      25    H15     21.236293   19.904733   19.194696 H          1 MOL1         0.0764
@<TRIPOS>BOND
    1     1     2    1
    2     1     3    2
    3     1     4    1
    4     4     5    1
    5     4     6    1
    6     4     7    1
    7     7     8    1
    8     7     9    1
    9     7    10    1
   10    10    11    1
   11    10    12    1
   12    10    13    1
   13    13    14    1
   14    13    15    1
   15    13    16    1
   16    16    17    1
   17    16    18    1
   18    16    19    1
   19    19    20    1
   20    19    21    1
   21    19    22    1
   22    22    23    1
   23    22    24    1
   24    22    25    1
@<TRIPOS>SUBSTRUCTURE
       1 MOL1            1 RESIDUE      1      MOL     
@<SCITEGIC>MOL_PROPERTY
VConf Rank
SciTegic.value.IntegerValue
464

@<SCITEGIC>MOL_PROPERTY
Conf_Id
SciTegic.value.IntegerValue
54

@<SCITEGIC>MOL_PROPERTY
Delta U+W
SciTegic.value.DoubleValue
-0.224

@<SCITEGIC>MOL_PROPERTY
U+W
SciTegic.value.DoubleValue
-51.854

@<SCITEGIC>MOL_PROPERTY
Grad RMS
SciTegic.value.DoubleValue
0.000000

@<SCITEGIC>MOL_PROPERTY
U
SciTegic.value.DoubleValue
7.816

@<SCITEGIC>MOL_PROPERTY
W
SciTegic.value.DoubleValue
-59.670

@<SCITEGIC>MOL_PROPERTY
W(PB)
SciTegic.value.DoubleValue
-62.157

@<SCITEGIC>MOL_PROPERTY
W(SA)
SciTegic.value.DoubleValue
2.487

@<SCITEGIC>MOL_PROPERTY
Valence
SciTegic.value.DoubleValue
7.785

@<SCITEGIC>MOL_PROPERTY
Coulomb
SciTegic.value.DoubleValue
-0.713

@<SCITEGIC>MOL_PROPERTY
VdW
SciTegic.value.DoubleValue
0.744

@<SCITEGIC>MOL_PROPERTY
VdW6
SciTegic.value.DoubleValue
-8.515

@<SCITEGIC>MOL_PROPERTY
VdW12
SciTegic.value.DoubleValue
9.259

@<SCITEGIC>MOL_PROPERTY
Bond
SciTegic.value.DoubleValue
0.136

@<SCITEGIC>MOL_PROPERTY
Angle
SciTegic.value.DoubleValue
2.433

@<SCITEGIC>MOL_PROPERTY
Pdih
SciTegic.value.DoubleValue
5.215

@<SCITEGIC>MOL_PROPERTY
Idih
SciTegic.value.DoubleValue
0.000

@<SCITEGIC>MOL_PROPERTY
Tether
SciTegic.value.DoubleValue
0.000

@<TRIPOS>MOLECULE
guest-8_confgen4.mol2 : confsearch ligand conformer 465
          25          24           1
SMALL
USER_CHARGES
 
@<TRIPOS>ATOM
       1    C1      19.654253   20.654257   27.039602 C.2        1 MOL1         0.6168
       2    O1      20.689312   20.391979   27.620045 O.co2      1 MOL1        -0.6703
       3    O2      19.160225   21.764387   27.013943 O.co2      1 MOL1        -0.6703
       4    C2      18.923391   19.525244   26.318246 C.3        1 MOL1        -0.1963
       5    H1      17.863382   19.596866   26.588840 H          1 MOL1         0.0750
       6    H2      19.286604   18.566830   26.708565 H          1 MOL1         0.0750
       7    C3      19.067104   19.563732   24.774378 C.3        1 MOL1        -0.1860
       8    H3      18.387431   18.817378   24.344487 H          1 MOL1         0.0752
       9    H4      18.738296   20.544184   24.402898 H          1 MOL1         0.0752
      10    C4      20.515515   19.283656   24.305749 C.3        1 MOL1        -0.1858
      11    H5      20.827003   18.284249   24.638824 H          1 MOL1         0.0752
      12    H6      21.194652   19.996753   24.792825 H          1 MOL1         0.0752
      13    C5      20.705512   19.402798   22.774520 C.3        1 MOL1        -0.1858
      14    H7      20.376213   20.395663   22.439322 H          1 MOL1         0.0752
      15    H8      21.780402   19.343510   22.561758 H          1 MOL1         0.0752
      16    C6      19.962662   18.306223   21.971696 C.3        1 MOL1        -0.1858
      17    H9      18.886615   18.368125   22.177040 H          1 MOL1         0.0752
      18    H10     20.288639   17.313585   22.310848 H          1 MOL1         0.0752
      19    C7      20.163906   18.421963   20.442451 C.3        1 MOL1        -0.1834
      20    H11     19.500001   17.701270   19.945383 H          1 MOL1         0.0752
      21    H12     19.850533   19.418264   20.101155 H          1 MOL1         0.0752
      22    C8      21.615525   18.149752   19.991182 C.3        1 MOL1        -0.2849
      23    H13     22.303271   18.918675   20.364232 H          1 MOL1         0.0764
      24    H14     21.962361   17.172483   20.351407 H          1 MOL1         0.0764
      25    H15     21.682561   18.148908   18.895550 H          1 MOL1         0.0764
@<TRIPOS>BOND
    1     1     2    1
    2     1     3    2
    3     1     4    1
    4     4     5    1
    5     4     6    1
    6     4     7    1
    7     7     8    1
    8     7     9    1
    9     7    10    1
   10    10    11    1
   11    10    12    1
   12    10    13    1
   13    13    14    1
   14    13    15    1
   15    13    16    1
   16    16    17    1
   17    16    18    1
   18    16    19    1
   19    19    20    1
   20    19    21    1
   21    19    22    1
   22    22    23    1
   23    22    24    1
   24    22    25    1
@<TRIPOS>SUBSTRUCTURE
       1 MOL1            1 RESIDUE      1      MOL     
@<SCITEGIC>MOL_PROPERTY
VConf Rank
SciTegic.value.IntegerValue
465

@<SCITEGIC>MOL_PROPERTY
Conf_Id
SciTegic.value.IntegerValue
101

@<SCITEGIC>MOL_PROPERTY
Delta U+W
SciTegic.value.DoubleValue
1.534

@<SCITEGIC>MOL_PROPERTY
U+W
SciTegic.value.DoubleValue
-50.095

@<SCITEGIC>MOL_PROPERTY
Grad RMS
SciTegic.value.DoubleValue
0.000000

@<SCITEGIC>MOL_PROPERTY
U
SciTegic.value.DoubleValue
9.416

@<SCITEGIC>MOL_PROPERTY
W
SciTegic.value.DoubleValue
-59.512

@<SCITEGIC>MOL_PROPERTY
W(PB)
SciTegic.value.DoubleValue
-61.988

@<SCITEGIC>MOL_PROPERTY
W(SA)
SciTegic.value.DoubleValue
2.476

@<SCITEGIC>MOL_PROPERTY
Valence
SciTegic.value.DoubleValue
8.939

@<SCITEGIC>MOL_PROPERTY
Coulomb
SciTegic.value.DoubleValue
-0.615

@<SCITEGIC>MOL_PROPERTY
VdW
SciTegic.value.DoubleValue
1.092

@<SCITEGIC>MOL_PROPERTY
VdW6
SciTegic.value.DoubleValue
-9.710

@<SCITEGIC>MOL_PROPERTY
VdW12
SciTegic.value.DoubleValue
10.802

@<SCITEGIC>MOL_PROPERTY
Bond
SciTegic.value.DoubleValue
0.216

@<SCITEGIC>MOL_PROPERTY
Angle
SciTegic.value.DoubleValue
2.979

@<SCITEGIC>MOL_PROPERTY
Pdih
SciTegic.value.DoubleValue
5.743

@<SCITEGIC>MOL_PROPERTY
Idih
SciTegic.value.DoubleValue
0.000

@<SCITEGIC>MOL_PROPERTY
Tether
SciTegic.value.DoubleValue
0.000

@<TRIPOS>MOLECULE
guest-8_confgen4.mol2 : confsearch ligand conformer 466
          25          24           1
SMALL
USER_CHARGES
 
@<TRIPOS>ATOM
       1    C1      23.050218   16.403022   24.274937 C.2        1 MOL1         0.6168
       2    O1      24.011202   16.618621   23.563064 O.co2      1 MOL1        -0.6703
       3    O2      23.113101   15.792584   25.323835 O.co2      1 MOL1        -0.6703
       4    C2      21.694636   16.947894   23.839415 C.3        1 MOL1        -0.1963
       5    H1      20.920026   16.262145   24.202826 H          1 MOL1         0.0750
       6    H2      21.663194   16.924102   22.744515 H          1 MOL1         0.0750
       7    C3      21.428681   18.382655   24.365044 C.3        1 MOL1        -0.1860
       8    H3      21.565342   18.387865   25.455330 H          1 MOL1         0.0752
       9    H4      22.181705   19.069960   23.955328 H          1 MOL1         0.0752
      10    C4      20.009677   18.909232   24.042784 C.3        1 MOL1        -0.1858
      11    H5      19.872841   19.859908   24.573803 H          1 MOL1         0.0752
      12    H6      19.258748   18.215642   24.444785 H          1 MOL1         0.0752
      13    C5      19.763197   19.128144   22.529765 C.3        1 MOL1        -0.1858
      14    H7      20.513147   19.821895   22.128143 H          1 MOL1         0.0752
      15    H8      19.907726   18.180906   21.995377 H          1 MOL1         0.0752
      16    C6      18.337962   19.642409   22.203275 C.3        1 MOL1        -0.1858
      17    H9      17.605491   18.894057   22.535136 H          1 MOL1         0.0752
      18    H10     18.230461   19.707411   21.111997 H          1 MOL1         0.0752
      19    C7      17.965516   21.012888   22.821765 C.3        1 MOL1        -0.1834
      20    H11     16.938340   21.262896   22.522686 H          1 MOL1         0.0752
      21    H12     17.952511   20.944374   23.917429 H          1 MOL1         0.0752
      22    C8      18.902764   22.158465   22.382263 C.3        1 MOL1        -0.2849
      23    H13     18.949832   22.229775   21.287878 H          1 MOL1         0.0764
      24    H14     18.541939   23.120126   22.769275 H          1 MOL1         0.0764
      25    H15     19.921047   22.008147   22.762504 H          1 MOL1         0.0764
@<TRIPOS>BOND
    1     1     2    1
    2     1     3    2
    3     1     4    1
    4     4     5    1
    5     4     6    1
    6     4     7    1
    7     7     8    1
    8     7     9    1
    9     7    10    1
   10    10    11    1
   11    10    12    1
   12    10    13    1
   13    13    14    1
   14    13    15    1
   15    13    16    1
   16    16    17    1
   17    16    18    1
   18    16    19    1
   19    19    20    1
   20    19    21    1
   21    19    22    1
   22    22    23    1
   23    22    24    1
   24    22    25    1
@<TRIPOS>SUBSTRUCTURE
       1 MOL1            1 RESIDUE      1      MOL     
@<SCITEGIC>MOL_PROPERTY
VConf Rank
SciTegic.value.IntegerValue
466

@<SCITEGIC>MOL_PROPERTY
Conf_Id
SciTegic.value.IntegerValue
75

@<SCITEGIC>MOL_PROPERTY
Delta U+W
SciTegic.value.DoubleValue
1.014

@<SCITEGIC>MOL_PROPERTY
U+W
SciTegic.value.DoubleValue
-50.615

@<SCITEGIC>MOL_PROPERTY
Grad RMS
SciTegic.value.DoubleValue
0.000000

@<SCITEGIC>MOL_PROPERTY
U
SciTegic.value.DoubleValue
8.474

@<SCITEGIC>MOL_PROPERTY
W
SciTegic.value.DoubleValue
-59.089

@<SCITEGIC>MOL_PROPERTY
W(PB)
SciTegic.value.DoubleValue
-61.530

@<SCITEGIC>MOL_PROPERTY
W(SA)
SciTegic.value.DoubleValue
2.441

@<SCITEGIC>MOL_PROPERTY
Valence
SciTegic.value.DoubleValue
9.080

@<SCITEGIC>MOL_PROPERTY
Coulomb
SciTegic.value.DoubleValue
-1.772

@<SCITEGIC>MOL_PROPERTY
VdW
SciTegic.value.DoubleValue
1.165

@<SCITEGIC>MOL_PROPERTY
VdW6
SciTegic.value.DoubleValue
-9.830

@<SCITEGIC>MOL_PROPERTY
VdW12
SciTegic.value.DoubleValue
10.996

@<SCITEGIC>MOL_PROPERTY
Bond
SciTegic.value.DoubleValue
0.240

@<SCITEGIC>MOL_PROPERTY
Angle
SciTegic.value.DoubleValue
3.225

@<SCITEGIC>MOL_PROPERTY
Pdih
SciTegic.value.DoubleValue
5.615

@<SCITEGIC>MOL_PROPERTY
Idih
SciTegic.value.DoubleValue
0.001

@<SCITEGIC>MOL_PROPERTY
Tether
SciTegic.value.DoubleValue
0.000

@<TRIPOS>MOLECULE
guest-8_confgen4.mol2 : confsearch ligand conformer 467
          25          24           1
SMALL
USER_CHARGES
 
@<TRIPOS>ATOM
       1    C1      16.384989   20.242637   25.033902 C.2        1 MOL1         0.6168
       2    O1      16.483978   20.118109   26.238620 O.co2      1 MOL1        -0.6703
       3    O2      15.600450   20.999849   24.497435 O.co2      1 MOL1        -0.6703
       4    C2      17.311314   19.418790   24.146614 C.3        1 MOL1        -0.1963
       5    H1      16.777429   19.189716   23.216532 H          1 MOL1         0.0750
       6    H2      17.507307   18.465184   24.651419 H          1 MOL1         0.0750
       7    C3      18.644518   20.141776   23.833663 C.3        1 MOL1        -0.1860
       8    H3      18.430782   21.100140   23.340357 H          1 MOL1         0.0752
       9    H4      19.160084   20.375577   24.775504 H          1 MOL1         0.0752
      10    C4      19.565067   19.287076   22.935761 C.3        1 MOL1        -0.1858
      11    H5      19.045534   19.055480   21.995941 H          1 MOL1         0.0752
      12    H6      19.764395   18.328476   23.429289 H          1 MOL1         0.0752
      13    C5      20.892650   20.015972   22.621170 C.3        1 MOL1        -0.1858
      14    H7      20.653001   20.953274   22.100642 H          1 MOL1         0.0752
      15    H8      21.400848   20.303867   23.551584 H          1 MOL1         0.0752
      16    C6      21.850732   19.188659   21.726710 C.3        1 MOL1        -0.1858
      17    H9      22.370440   19.881667   21.051052 H          1 MOL1         0.0752
      18    H10     21.277639   18.512770   21.077423 H          1 MOL1         0.0752
      19    C7      22.932126   18.393707   22.499719 C.3        1 MOL1        -0.1834
      20    H11     23.599995   17.914452   21.770721 H          1 MOL1         0.0752
      21    H12     23.556761   19.088509   23.077922 H          1 MOL1         0.0752
      22    C8      22.367972   17.308858   23.440571 C.3        1 MOL1        -0.2849
      23    H13     21.685643   16.637291   22.903555 H          1 MOL1         0.0764
      24    H14     23.181678   16.702088   23.858263 H          1 MOL1         0.0764
      25    H15     21.825847   17.758125   24.281931 H          1 MOL1         0.0764
@<TRIPOS>BOND
    1     1     2    1
    2     1     3    2
    3     1     4    1
    4     4     5    1
    5     4     6    1
    6     4     7    1
    7     7     8    1
    8     7     9    1
    9     7    10    1
   10    10    11    1
   11    10    12    1
   12    10    13    1
   13    13    14    1
   14    13    15    1
   15    13    16    1
   16    16    17    1
   17    16    18    1
   18    16    19    1
   19    19    20    1
   20    19    21    1
   21    19    22    1
   22    22    23    1
   23    22    24    1
   24    22    25    1
@<TRIPOS>SUBSTRUCTURE
       1 MOL1            1 RESIDUE      1      MOL     
@<SCITEGIC>MOL_PROPERTY
VConf Rank
SciTegic.value.IntegerValue
467

@<SCITEGIC>MOL_PROPERTY
Conf_Id
SciTegic.value.IntegerValue
125

@<SCITEGIC>MOL_PROPERTY
Delta U+W
SciTegic.value.DoubleValue
2.314

@<SCITEGIC>MOL_PROPERTY
U+W
SciTegic.value.DoubleValue
-49.315

@<SCITEGIC>MOL_PROPERTY
Grad RMS
SciTegic.value.DoubleValue
0.000000

@<SCITEGIC>MOL_PROPERTY
U
SciTegic.value.DoubleValue
9.740

@<SCITEGIC>MOL_PROPERTY
W
SciTegic.value.DoubleValue
-59.054

@<SCITEGIC>MOL_PROPERTY
W(PB)
SciTegic.value.DoubleValue
-61.488

@<SCITEGIC>MOL_PROPERTY
W(SA)
SciTegic.value.DoubleValue
2.433

@<SCITEGIC>MOL_PROPERTY
Valence
SciTegic.value.DoubleValue
10.506

@<SCITEGIC>MOL_PROPERTY
Coulomb
SciTegic.value.DoubleValue
-1.761

@<SCITEGIC>MOL_PROPERTY
VdW
SciTegic.value.DoubleValue
0.994

@<SCITEGIC>MOL_PROPERTY
VdW6
SciTegic.value.DoubleValue
-9.209

@<SCITEGIC>MOL_PROPERTY
VdW12
SciTegic.value.DoubleValue
10.203

@<SCITEGIC>MOL_PROPERTY
Bond
SciTegic.value.DoubleValue
0.193

@<SCITEGIC>MOL_PROPERTY
Angle
SciTegic.value.DoubleValue
2.979

@<SCITEGIC>MOL_PROPERTY
Pdih
SciTegic.value.DoubleValue
7.334

@<SCITEGIC>MOL_PROPERTY
Idih
SciTegic.value.DoubleValue
0.001

@<SCITEGIC>MOL_PROPERTY
Tether
SciTegic.value.DoubleValue
0.000

@<TRIPOS>MOLECULE
guest-8_confgen4.mol2 : confsearch ligand conformer 468
          25          24           1
SMALL
USER_CHARGES
 
@<TRIPOS>ATOM
       1    C1      23.978760   17.937355   22.791046 C.2        1 MOL1         0.6168
       2    O1      23.983865   17.295784   21.759031 O.co2      1 MOL1        -0.6703
       3    O2      24.935796   18.023224   23.534989 O.co2      1 MOL1        -0.6703
       4    C2      22.693061   18.654582   23.186750 C.3        1 MOL1        -0.1963
       5    H1      22.192758   18.973368   22.265451 H          1 MOL1         0.0750
       6    H2      22.965822   19.561147   23.740009 H          1 MOL1         0.0750
       7    C3      21.751134   17.768217   24.042537 C.3        1 MOL1        -0.1860
       8    H3      21.447540   16.887047   23.460558 H          1 MOL1         0.0752
       9    H4      22.313003   17.389750   24.907703 H          1 MOL1         0.0752
      10    C4      20.496122   18.514379   24.554728 C.3        1 MOL1        -0.1858
      11    H5      20.803028   19.389216   25.144169 H          1 MOL1         0.0752
      12    H6      19.953516   17.851190   25.242238 H          1 MOL1         0.0752
      13    C5      19.539929   18.958283   23.423428 C.3        1 MOL1        -0.1858
      14    H7      20.051982   19.674407   22.769521 H          1 MOL1         0.0752
      15    H8      19.274042   18.089748   22.805758 H          1 MOL1         0.0752
      16    C6      18.252846   19.604439   23.986548 C.3        1 MOL1        -0.1858
      17    H9      18.512156   20.500874   24.566247 H          1 MOL1         0.0752
      18    H10     17.779517   18.905485   24.689589 H          1 MOL1         0.0752
      19    C7      17.221899   19.974737   22.894831 C.3        1 MOL1        -0.1834
      20    H11     16.956129   19.079133   22.316415 H          1 MOL1         0.0752
      21    H12     16.297996   20.313818   23.383354 H          1 MOL1         0.0752
      22    C8      17.714047   21.083287   21.939064 C.3        1 MOL1        -0.2849
      23    H13     18.569480   20.745964   21.340621 H          1 MOL1         0.0764
      24    H14     16.915771   21.372320   21.243284 H          1 MOL1         0.0764
      25    H15     18.015753   21.978661   22.497980 H          1 MOL1         0.0764
@<TRIPOS>BOND
    1     1     2    1
    2     1     3    2
    3     1     4    1
    4     4     5    1
    5     4     6    1
    6     4     7    1
    7     7     8    1
    8     7     9    1
    9     7    10    1
   10    10    11    1
   11    10    12    1
   12    10    13    1
   13    13    14    1
   14    13    15    1
   15    13    16    1
   16    16    17    1
   17    16    18    1
   18    16    19    1
   19    19    20    1
   20    19    21    1
   21    19    22    1
   22    22    23    1
   23    22    24    1
   24    22    25    1
@<TRIPOS>SUBSTRUCTURE
       1 MOL1            1 RESIDUE      1      MOL     
@<SCITEGIC>MOL_PROPERTY
VConf Rank
SciTegic.value.IntegerValue
468

@<SCITEGIC>MOL_PROPERTY
Conf_Id
SciTegic.value.IntegerValue
4

@<SCITEGIC>MOL_PROPERTY
Delta U+W
SciTegic.value.DoubleValue
0.189

@<SCITEGIC>MOL_PROPERTY
U+W
SciTegic.value.DoubleValue
-51.441

@<SCITEGIC>MOL_PROPERTY
Grad RMS
SciTegic.value.DoubleValue
0.000000

@<SCITEGIC>MOL_PROPERTY
U
SciTegic.value.DoubleValue
7.701

@<SCITEGIC>MOL_PROPERTY
W
SciTegic.value.DoubleValue
-59.141

@<SCITEGIC>MOL_PROPERTY
W(PB)
SciTegic.value.DoubleValue
-61.609

@<SCITEGIC>MOL_PROPERTY
W(SA)
SciTegic.value.DoubleValue
2.467

@<SCITEGIC>MOL_PROPERTY
Valence
SciTegic.value.DoubleValue
8.550

@<SCITEGIC>MOL_PROPERTY
Coulomb
SciTegic.value.DoubleValue
-1.988

@<SCITEGIC>MOL_PROPERTY
VdW
SciTegic.value.DoubleValue
1.139

@<SCITEGIC>MOL_PROPERTY
VdW6
SciTegic.value.DoubleValue
-8.988

@<SCITEGIC>MOL_PROPERTY
VdW12
SciTegic.value.DoubleValue
10.127

@<SCITEGIC>MOL_PROPERTY
Bond
SciTegic.value.DoubleValue
0.191

@<SCITEGIC>MOL_PROPERTY
Angle
SciTegic.value.DoubleValue
2.738

@<SCITEGIC>MOL_PROPERTY
Pdih
SciTegic.value.DoubleValue
5.621

@<SCITEGIC>MOL_PROPERTY
Idih
SciTegic.value.DoubleValue
0.001

@<SCITEGIC>MOL_PROPERTY
Tether
SciTegic.value.DoubleValue
0.000

@<TRIPOS>MOLECULE
guest-8_confgen4.mol2 : confsearch ligand conformer 469
          25          24           1
SMALL
USER_CHARGES
 
@<TRIPOS>ATOM
       1    C1      24.003507   20.140429   22.962800 C.2        1 MOL1         0.6168
       2    O1      24.143062   20.553773   21.828619 O.co2      1 MOL1        -0.6703
       3    O2      24.879640   20.174478   23.804210 O.co2      1 MOL1        -0.6703
       4    C2      22.646915   19.568971   23.359179 C.3        1 MOL1        -0.1963
       5    H1      22.813379   18.787207   24.109839 H          1 MOL1         0.0750
       6    H2      22.218286   19.085040   22.474415 H          1 MOL1         0.0750
       7    C3      21.681144   20.647745   23.914852 C.3        1 MOL1        -0.1860
       8    H3      22.179733   21.176182   24.739236 H          1 MOL1         0.0752
       9    H4      21.485204   21.399820   23.138115 H          1 MOL1         0.0752
      10    C4      20.342421   20.070994   24.433826 C.3        1 MOL1        -0.1858
      11    H5      19.776418   20.881973   24.912224 H          1 MOL1         0.0752
      12    H6      20.541300   19.326710   25.217064 H          1 MOL1         0.0752
      13    C5      19.473419   19.437737   23.322513 C.3        1 MOL1        -0.1858
      14    H7      19.317739   20.168408   22.517250 H          1 MOL1         0.0752
      15    H8      20.002770   18.583006   22.884508 H          1 MOL1         0.0752
      16    C6      18.103695   18.970709   23.867439 C.3        1 MOL1        -0.1858
      17    H9      17.607118   19.817477   24.360632 H          1 MOL1         0.0752
      18    H10     18.254821   18.205275   24.640847 H          1 MOL1         0.0752
      19    C7      17.161012   18.420116   22.771989 C.3        1 MOL1        -0.1834
      20    H11     16.176965   18.224476   23.219878 H          1 MOL1         0.0752
      21    H12     17.003421   19.185181   21.999236 H          1 MOL1         0.0752
      22    C8      17.676463   17.119652   22.118007 C.3        1 MOL1        -0.2849
      23    H13     17.871578   16.349417   22.875488 H          1 MOL1         0.0764
      24    H14     16.932263   16.722161   21.415824 H          1 MOL1         0.0764
      25    H15     18.602792   17.293245   21.556342 H          1 MOL1         0.0764
@<TRIPOS>BOND
    1     1     2    1
    2     1     3    2
    3     1     4    1
    4     4     5    1
    5     4     6    1
    6     4     7    1
    7     7     8    1
    8     7     9    1
    9     7    10    1
   10    10    11    1
   11    10    12    1
   12    10    13    1
   13    13    14    1
   14    13    15    1
   15    13    16    1
   16    16    17    1
   17    16    18    1
   18    16    19    1
   19    19    20    1
   20    19    21    1
   21    19    22    1
   22    22    23    1
   23    22    24    1
   24    22    25    1
@<TRIPOS>SUBSTRUCTURE
       1 MOL1            1 RESIDUE      1      MOL     
@<SCITEGIC>MOL_PROPERTY
VConf Rank
SciTegic.value.IntegerValue
469

@<SCITEGIC>MOL_PROPERTY
Conf_Id
SciTegic.value.IntegerValue
17

@<SCITEGIC>MOL_PROPERTY
Delta U+W
SciTegic.value.DoubleValue
0.219

@<SCITEGIC>MOL_PROPERTY
U+W
SciTegic.value.DoubleValue
-51.411

@<SCITEGIC>MOL_PROPERTY
Grad RMS
SciTegic.value.DoubleValue
0.000000

@<SCITEGIC>MOL_PROPERTY
U
SciTegic.value.DoubleValue
7.701

@<SCITEGIC>MOL_PROPERTY
W
SciTegic.value.DoubleValue
-59.111

@<SCITEGIC>MOL_PROPERTY
W(PB)
SciTegic.value.DoubleValue
-61.599

@<SCITEGIC>MOL_PROPERTY
W(SA)
SciTegic.value.DoubleValue
2.488

@<SCITEGIC>MOL_PROPERTY
Valence
SciTegic.value.DoubleValue
8.550

@<SCITEGIC>MOL_PROPERTY
Coulomb
SciTegic.value.DoubleValue
-1.988

@<SCITEGIC>MOL_PROPERTY
VdW
SciTegic.value.DoubleValue
1.139

@<SCITEGIC>MOL_PROPERTY
VdW6
SciTegic.value.DoubleValue
-8.988

@<SCITEGIC>MOL_PROPERTY
VdW12
SciTegic.value.DoubleValue
10.127

@<SCITEGIC>MOL_PROPERTY
Bond
SciTegic.value.DoubleValue
0.191

@<SCITEGIC>MOL_PROPERTY
Angle
SciTegic.value.DoubleValue
2.738

@<SCITEGIC>MOL_PROPERTY
Pdih
SciTegic.value.DoubleValue
5.621

@<SCITEGIC>MOL_PROPERTY
Idih
SciTegic.value.DoubleValue
0.001

@<SCITEGIC>MOL_PROPERTY
Tether
SciTegic.value.DoubleValue
0.000

@<TRIPOS>MOLECULE
guest-8_confgen4.mol2 : confsearch ligand conformer 470
          25          24           1
SMALL
USER_CHARGES
 
@<TRIPOS>ATOM
       1    C1      22.983824   21.638040   23.520112 C.2        1 MOL1         0.6168
       2    O1      22.663390   22.764322   23.194731 O.co2      1 MOL1        -0.6703
       3    O2      23.762724   20.951225   22.888703 O.co2      1 MOL1        -0.6703
       4    C2      22.391628   21.059624   24.802169 C.3        1 MOL1        -0.1963
       5    H1      22.021138   21.886147   25.420531 H          1 MOL1         0.0750
       6    H2      23.210479   20.589103   25.359015 H          1 MOL1         0.0750
       7    C3      21.264628   20.021760   24.562152 C.3        1 MOL1        -0.1860
       8    H3      21.653510   19.215612   23.926098 H          1 MOL1         0.0752
       9    H4      20.989914   19.564831   25.522368 H          1 MOL1         0.0752
      10    C4      20.006813   20.652246   23.917838 C.3        1 MOL1        -0.1858
      11    H5      20.255992   21.050189   22.924423 H          1 MOL1         0.0752
      12    H6      19.687936   21.511364   24.523709 H          1 MOL1         0.0752
      13    C5      18.818505   19.669017   23.795743 C.3        1 MOL1        -0.1858
      14    H7      18.561807   19.276505   24.789166 H          1 MOL1         0.0752
      15    H8      17.939681   20.227684   23.445861 H          1 MOL1         0.0752
      16    C6      19.087061   18.495916   22.824792 C.3        1 MOL1        -0.1858
      17    H9      19.915942   17.881510   23.199479 H          1 MOL1         0.0752
      18    H10     19.396877   18.891637   21.847903 H          1 MOL1         0.0752
      19    C7      17.839249   17.605252   22.647513 C.3        1 MOL1        -0.1834
      20    H11     17.525640   17.209232   23.623360 H          1 MOL1         0.0752
      21    H12     17.004429   18.208316   22.264351 H          1 MOL1         0.0752
      22    C8      18.109735   16.433826   21.681945 C.3        1 MOL1        -0.2849
      23    H13     18.919765   15.794642   22.057013 H          1 MOL1         0.0764
      24    H14     17.212556   15.811730   21.567393 H          1 MOL1         0.0764
      25    H15     18.395979   16.802202   20.688092 H          1 MOL1         0.0764
@<TRIPOS>BOND
    1     1     2    1
    2     1     3    2
    3     1     4    1
    4     4     5    1
    5     4     6    1
    6     4     7    1
    7     7     8    1
    8     7     9    1
    9     7    10    1
   10    10    11    1
   11    10    12    1
   12    10    13    1
   13    13    14    1
   14    13    15    1
   15    13    16    1
   16    16    17    1
   17    16    18    1
   18    16    19    1
   19    19    20    1
   20    19    21    1
   21    19    22    1
   22    22    23    1
   23    22    24    1
   24    22    25    1
@<TRIPOS>SUBSTRUCTURE
       1 MOL1            1 RESIDUE      1      MOL     
@<SCITEGIC>MOL_PROPERTY
VConf Rank
SciTegic.value.IntegerValue
470

@<SCITEGIC>MOL_PROPERTY
Conf_Id
SciTegic.value.IntegerValue
142

@<SCITEGIC>MOL_PROPERTY
Delta U+W
SciTegic.value.DoubleValue
0.593

@<SCITEGIC>MOL_PROPERTY
U+W
SciTegic.value.DoubleValue
-51.037

@<SCITEGIC>MOL_PROPERTY
Grad RMS
SciTegic.value.DoubleValue
0.000000

@<SCITEGIC>MOL_PROPERTY
U
SciTegic.value.DoubleValue
8.903

@<SCITEGIC>MOL_PROPERTY
W
SciTegic.value.DoubleValue
-59.940

@<SCITEGIC>MOL_PROPERTY
W(PB)
SciTegic.value.DoubleValue
-62.418

@<SCITEGIC>MOL_PROPERTY
W(SA)
SciTegic.value.DoubleValue
2.478

@<SCITEGIC>MOL_PROPERTY
Valence
SciTegic.value.DoubleValue
8.305

@<SCITEGIC>MOL_PROPERTY
Coulomb
SciTegic.value.DoubleValue
-0.223

@<SCITEGIC>MOL_PROPERTY
VdW
SciTegic.value.DoubleValue
0.821

@<SCITEGIC>MOL_PROPERTY
VdW6
SciTegic.value.DoubleValue
-9.236

@<SCITEGIC>MOL_PROPERTY
VdW12
SciTegic.value.DoubleValue
10.057

@<SCITEGIC>MOL_PROPERTY
Bond
SciTegic.value.DoubleValue
0.173

@<SCITEGIC>MOL_PROPERTY
Angle
SciTegic.value.DoubleValue
2.663

@<SCITEGIC>MOL_PROPERTY
Pdih
SciTegic.value.DoubleValue
5.469

@<SCITEGIC>MOL_PROPERTY
Idih
SciTegic.value.DoubleValue
0.001

@<SCITEGIC>MOL_PROPERTY
Tether
SciTegic.value.DoubleValue
0.000

@<TRIPOS>MOLECULE
guest-8_confgen4.mol2 : confsearch ligand conformer 471
          25          24           1
SMALL
USER_CHARGES
 
@<TRIPOS>ATOM
       1    C1      19.987226   22.560156   22.481000 C.2        1 MOL1         0.6168
       2    O1      19.140827   23.428452   22.395965 O.co2      1 MOL1        -0.6703
       3    O2      21.099867   22.748203   22.932357 O.co2      1 MOL1        -0.6703
       4    C2      19.640252   21.165828   21.966807 C.3        1 MOL1        -0.1963
       5    H1      20.567182   20.591671   21.855250 H          1 MOL1         0.0750
       6    H2      19.224775   21.283610   20.959323 H          1 MOL1         0.0750
       7    C3      18.624653   20.397008   22.855404 C.3        1 MOL1        -0.1860
       8    H3      17.685488   20.966206   22.889459 H          1 MOL1         0.0752
       9    H4      18.378511   19.439770   22.377956 H          1 MOL1         0.0752
      10    C4      19.105334   20.147167   24.308391 C.3        1 MOL1        -0.1858
      11    H5      18.318668   19.606555   24.851983 H          1 MOL1         0.0752
      12    H6      19.215306   21.113391   24.819667 H          1 MOL1         0.0752
      13    C5      20.435364   19.363591   24.440133 C.3        1 MOL1        -0.1858
      14    H7      21.256278   19.944461   23.998721 H          1 MOL1         0.0752
      15    H8      20.673840   19.265925   25.507898 H          1 MOL1         0.0752
      16    C6      20.388473   17.954778   23.804747 C.3        1 MOL1        -0.1858
      17    H9      20.222885   18.038695   22.722784 H          1 MOL1         0.0752
      18    H10     19.539086   17.393845   24.217749 H          1 MOL1         0.0752
      19    C7      21.694700   17.172272   24.055528 C.3        1 MOL1        -0.1834
      20    H11     22.546062   17.733049   23.645421 H          1 MOL1         0.0752
      21    H12     21.867139   17.075061   25.136355 H          1 MOL1         0.0752
      22    C8      21.648740   15.769879   23.416095 C.3        1 MOL1        -0.2849
      23    H13     21.509215   15.838210   22.329251 H          1 MOL1         0.0764
      24    H14     22.584673   15.227974   23.604256 H          1 MOL1         0.0764
      25    H15     20.823799   15.176006   23.830993 H          1 MOL1         0.0764
@<TRIPOS>BOND
    1     1     2    1
    2     1     3    2
    3     1     4    1
    4     4     5    1
    5     4     6    1
    6     4     7    1
    7     7     8    1
    8     7     9    1
    9     7    10    1
   10    10    11    1
   11    10    12    1
   12    10    13    1
   13    13    14    1
   14    13    15    1
   15    13    16    1
   16    16    17    1
   17    16    18    1
   18    16    19    1
   19    19    20    1
   20    19    21    1
   21    19    22    1
   22    22    23    1
   23    22    24    1
   24    22    25    1
@<TRIPOS>SUBSTRUCTURE
       1 MOL1            1 RESIDUE      1      MOL     
@<SCITEGIC>MOL_PROPERTY
VConf Rank
SciTegic.value.IntegerValue
471

@<SCITEGIC>MOL_PROPERTY
Conf_Id
SciTegic.value.IntegerValue
135

@<SCITEGIC>MOL_PROPERTY
Delta U+W
SciTegic.value.DoubleValue
1.314

@<SCITEGIC>MOL_PROPERTY
U+W
SciTegic.value.DoubleValue
-50.316

@<SCITEGIC>MOL_PROPERTY
Grad RMS
SciTegic.value.DoubleValue
0.000000

@<SCITEGIC>MOL_PROPERTY
U
SciTegic.value.DoubleValue
9.773

@<SCITEGIC>MOL_PROPERTY
W
SciTegic.value.DoubleValue
-60.088

@<SCITEGIC>MOL_PROPERTY
W(PB)
SciTegic.value.DoubleValue
-62.535

@<SCITEGIC>MOL_PROPERTY
W(SA)
SciTegic.value.DoubleValue
2.447

@<SCITEGIC>MOL_PROPERTY
Valence
SciTegic.value.DoubleValue
8.741

@<SCITEGIC>MOL_PROPERTY
Coulomb
SciTegic.value.DoubleValue
0.479

@<SCITEGIC>MOL_PROPERTY
VdW
SciTegic.value.DoubleValue
0.552

@<SCITEGIC>MOL_PROPERTY
VdW6
SciTegic.value.DoubleValue
-10.627

@<SCITEGIC>MOL_PROPERTY
VdW12
SciTegic.value.DoubleValue
11.179

@<SCITEGIC>MOL_PROPERTY
Bond
SciTegic.value.DoubleValue
0.227

@<SCITEGIC>MOL_PROPERTY
Angle
SciTegic.value.DoubleValue
3.155

@<SCITEGIC>MOL_PROPERTY
Pdih
SciTegic.value.DoubleValue
5.358

@<SCITEGIC>MOL_PROPERTY
Idih
SciTegic.value.DoubleValue
0.001

@<SCITEGIC>MOL_PROPERTY
Tether
SciTegic.value.DoubleValue
0.000

@<TRIPOS>MOLECULE
guest-8_confgen4.mol2 : confsearch ligand conformer 472
          25          24           1
SMALL
USER_CHARGES
 
@<TRIPOS>ATOM
       1    C1      23.715397   19.468635   21.123895 C.2        1 MOL1         0.6168
       2    O1      24.616602   19.979692   21.759027 O.co2      1 MOL1        -0.6703
       3    O2      23.893352   18.772191   20.144064 O.co2      1 MOL1        -0.6703
       4    C2      22.283480   19.695018   21.595641 C.3        1 MOL1        -0.1963
       5    H1      21.630537   19.688148   20.714751 H          1 MOL1         0.0750
       6    H2      22.232139   20.698984   22.031058 H          1 MOL1         0.0750
       7    C3      21.813797   18.627419   22.618118 C.3        1 MOL1        -0.1860
       8    H3      21.971832   17.631464   22.181604 H          1 MOL1         0.0752
       9    H4      22.444354   18.675175   23.516671 H          1 MOL1         0.0752
      10    C4      20.324118   18.760668   23.015657 C.3        1 MOL1        -0.1858
      11    H5      20.054579   17.878920   23.610516 H          1 MOL1         0.0752
      12    H6      19.697360   18.737974   22.113860 H          1 MOL1         0.0752
      13    C5      20.016764   20.035320   23.837398 C.3        1 MOL1        -0.1858
      14    H7      20.603936   20.020719   24.765627 H          1 MOL1         0.0752
      15    H8      20.345210   20.920454   23.278707 H          1 MOL1         0.0752
      16    C6      18.517279   20.223421   24.180373 C.3        1 MOL1        -0.1858
      17    H9      17.931431   20.333466   23.257563 H          1 MOL1         0.0752
      18    H10     18.417882   21.179760   24.711794 H          1 MOL1         0.0752
      19    C7      17.910067   19.111674   25.072289 C.3        1 MOL1        -0.1834
      20    H11     18.692710   18.645340   25.686486 H          1 MOL1         0.0752
      21    H12     17.203803   19.572456   25.776684 H          1 MOL1         0.0752
      22    C8      17.147834   18.035535   24.267186 C.3        1 MOL1        -0.2849
      23    H13     17.798943   17.526948   23.547106 H          1 MOL1         0.0764
      24    H14     16.732856   17.274354   24.940390 H          1 MOL1         0.0764
      25    H15     16.313452   18.482642   23.711323 H          1 MOL1         0.0764
@<TRIPOS>BOND
    1     1     2    1
    2     1     3    2
    3     1     4    1
    4     4     5    1
    5     4     6    1
    6     4     7    1
    7     7     8    1
    8     7     9    1
    9     7    10    1
   10    10    11    1
   11    10    12    1
   12    10    13    1
   13    13    14    1
   14    13    15    1
   15    13    16    1
   16    16    17    1
   17    16    18    1
   18    16    19    1
   19    19    20    1
   20    19    21    1
   21    19    22    1
   22    22    23    1
   23    22    24    1
   24    22    25    1
@<TRIPOS>SUBSTRUCTURE
       1 MOL1            1 RESIDUE      1      MOL     
@<SCITEGIC>MOL_PROPERTY
VConf Rank
SciTegic.value.IntegerValue
472

@<SCITEGIC>MOL_PROPERTY
Conf_Id
SciTegic.value.IntegerValue
19

@<SCITEGIC>MOL_PROPERTY
Delta U+W
SciTegic.value.DoubleValue
3.222

@<SCITEGIC>MOL_PROPERTY
U+W
SciTegic.value.DoubleValue
-48.407

@<SCITEGIC>MOL_PROPERTY
Grad RMS
SciTegic.value.DoubleValue
0.000000

@<SCITEGIC>MOL_PROPERTY
U
SciTegic.value.DoubleValue
10.617

@<SCITEGIC>MOL_PROPERTY
W
SciTegic.value.DoubleValue
-59.025

@<SCITEGIC>MOL_PROPERTY
W(PB)
SciTegic.value.DoubleValue
-61.462

@<SCITEGIC>MOL_PROPERTY
W(SA)
SciTegic.value.DoubleValue
2.437

@<SCITEGIC>MOL_PROPERTY
Valence
SciTegic.value.DoubleValue
11.188

@<SCITEGIC>MOL_PROPERTY
Coulomb
SciTegic.value.DoubleValue
-1.778

@<SCITEGIC>MOL_PROPERTY
VdW
SciTegic.value.DoubleValue
1.208

@<SCITEGIC>MOL_PROPERTY
VdW6
SciTegic.value.DoubleValue
-9.786

@<SCITEGIC>MOL_PROPERTY
VdW12
SciTegic.value.DoubleValue
10.993

@<SCITEGIC>MOL_PROPERTY
Bond
SciTegic.value.DoubleValue
0.241

@<SCITEGIC>MOL_PROPERTY
Angle
SciTegic.value.DoubleValue
3.294

@<SCITEGIC>MOL_PROPERTY
Pdih
SciTegic.value.DoubleValue
7.653

@<SCITEGIC>MOL_PROPERTY
Idih
SciTegic.value.DoubleValue
0.001

@<SCITEGIC>MOL_PROPERTY
Tether
SciTegic.value.DoubleValue
0.000

@<TRIPOS>MOLECULE
guest-8_confgen4.mol2 : confsearch ligand conformer 473
          25          24           1
SMALL
USER_CHARGES
 
@<TRIPOS>ATOM
       1    C1      22.698437   22.490090   23.617986 C.2        1 MOL1         0.6168
       2    O1      22.350384   23.457754   22.970510 O.co2      1 MOL1        -0.6703
       3    O2      23.832348   22.322952   24.021818 O.co2      1 MOL1        -0.6703
       4    C2      21.660795   21.414949   23.920566 C.3        1 MOL1        -0.1963
       5    H1      20.691592   21.912243   24.036825 H          1 MOL1         0.0750
       6    H2      21.912679   20.962188   24.886956 H          1 MOL1         0.0750
       7    C3      21.590583   20.323702   22.820531 C.3        1 MOL1        -0.1860
       8    H3      21.290676   20.780233   21.867159 H          1 MOL1         0.0752
       9    H4      22.599843   19.917764   22.665432 H          1 MOL1         0.0752
      10    C4      20.636639   19.154767   23.164798 C.3        1 MOL1        -0.1858
      11    H5      20.922864   18.716090   24.130312 H          1 MOL1         0.0752
      12    H6      20.776385   18.372567   22.408080 H          1 MOL1         0.0752
      13    C5      19.144839   19.564723   23.195354 C.3        1 MOL1        -0.1858
      14    H7      19.006120   20.393323   23.900800 H          1 MOL1         0.0752
      15    H8      18.851911   19.947356   22.208246 H          1 MOL1         0.0752
      16    C6      18.181445   18.424464   23.611472 C.3        1 MOL1        -0.1858
      17    H9      17.167809   18.846345   23.649292 H          1 MOL1         0.0752
      18    H10     18.406124   18.097517   24.635939 H          1 MOL1         0.0752
      19    C7      18.161165   17.208112   22.652160 C.3        1 MOL1        -0.1834
      20    H11     17.130086   16.835674   22.578217 H          1 MOL1         0.0752
      21    H12     18.446989   17.517732   21.637431 H          1 MOL1         0.0752
      22    C8      19.056620   16.042978   23.129536 C.3        1 MOL1        -0.2849
      23    H13     18.727617   15.674849   24.110006 H          1 MOL1         0.0764
      24    H14     19.006096   15.205045   22.422343 H          1 MOL1         0.0764
      25    H15     20.106602   16.344556   23.217321 H          1 MOL1         0.0764
@<TRIPOS>BOND
    1     1     2    1
    2     1     3    2
    3     1     4    1
    4     4     5    1
    5     4     6    1
    6     4     7    1
    7     7     8    1
    8     7     9    1
    9     7    10    1
   10    10    11    1
   11    10    12    1
   12    10    13    1
   13    13    14    1
   14    13    15    1
   15    13    16    1
   16    16    17    1
   17    16    18    1
   18    16    19    1
   19    19    20    1
   20    19    21    1
   21    19    22    1
   22    22    23    1
   23    22    24    1
   24    22    25    1
@<TRIPOS>SUBSTRUCTURE
       1 MOL1            1 RESIDUE      1      MOL     
@<SCITEGIC>MOL_PROPERTY
VConf Rank
SciTegic.value.IntegerValue
473

@<SCITEGIC>MOL_PROPERTY
Conf_Id
SciTegic.value.IntegerValue
20

@<SCITEGIC>MOL_PROPERTY
Delta U+W
SciTegic.value.DoubleValue
3.224

@<SCITEGIC>MOL_PROPERTY
U+W
SciTegic.value.DoubleValue
-48.406

@<SCITEGIC>MOL_PROPERTY
Grad RMS
SciTegic.value.DoubleValue
0.000000

@<SCITEGIC>MOL_PROPERTY
U
SciTegic.value.DoubleValue
10.617

@<SCITEGIC>MOL_PROPERTY
W
SciTegic.value.DoubleValue
-59.023

@<SCITEGIC>MOL_PROPERTY
W(PB)
SciTegic.value.DoubleValue
-61.467

@<SCITEGIC>MOL_PROPERTY
W(SA)
SciTegic.value.DoubleValue
2.444

@<SCITEGIC>MOL_PROPERTY
Valence
SciTegic.value.DoubleValue
11.188

@<SCITEGIC>MOL_PROPERTY
Coulomb
SciTegic.value.DoubleValue
-1.778

@<SCITEGIC>MOL_PROPERTY
VdW
SciTegic.value.DoubleValue
1.208

@<SCITEGIC>MOL_PROPERTY
VdW6
SciTegic.value.DoubleValue
-9.786

@<SCITEGIC>MOL_PROPERTY
VdW12
SciTegic.value.DoubleValue
10.993

@<SCITEGIC>MOL_PROPERTY
Bond
SciTegic.value.DoubleValue
0.241

@<SCITEGIC>MOL_PROPERTY
Angle
SciTegic.value.DoubleValue
3.294

@<SCITEGIC>MOL_PROPERTY
Pdih
SciTegic.value.DoubleValue
7.653

@<SCITEGIC>MOL_PROPERTY
Idih
SciTegic.value.DoubleValue
0.001

@<SCITEGIC>MOL_PROPERTY
Tether
SciTegic.value.DoubleValue
0.000

@<TRIPOS>MOLECULE
guest-8_confgen4.mol2 : confsearch ligand conformer 474
          25          24           1
SMALL
USER_CHARGES
 
@<TRIPOS>ATOM
       1    C1      18.232326   21.696976   22.290292 C.2        1 MOL1         0.6168
       2    O1      18.995767   22.642061   22.250066 O.co2      1 MOL1        -0.6703
       3    O2      17.361246   21.573760   23.128896 O.co2      1 MOL1        -0.6703
       4    C2      18.327911   20.640460   21.191189 C.3        1 MOL1        -0.1963
       5    H1      18.092070   21.152034   20.250902 H          1 MOL1         0.0750
       6    H2      17.541685   19.891873   21.346925 H          1 MOL1         0.0750
       7    C3      19.712826   19.946983   21.056252 C.3        1 MOL1        -0.1860
       8    H3      19.776256   19.509188   20.050896 H          1 MOL1         0.0752
       9    H4      20.514118   20.697076   21.109972 H          1 MOL1         0.0752
      10    C4      19.975312   18.815364   22.080765 C.3        1 MOL1        -0.1858
      11    H5      20.905160   18.304633   21.795249 H          1 MOL1         0.0752
      12    H6      19.177239   18.063427   22.013667 H          1 MOL1         0.0752
      13    C5      20.106010   19.304944   23.540854 C.3        1 MOL1        -0.1858
      14    H7      20.829964   20.129884   23.589943 H          1 MOL1         0.0752
      15    H8      19.143522   19.700554   23.888868 H          1 MOL1         0.0752
      16    C6      20.551346   18.168457   24.486709 C.3        1 MOL1        -0.1858
      17    H9      21.519046   17.769702   24.152767 H          1 MOL1         0.0752
      18    H10     19.828866   17.342545   24.432625 H          1 MOL1         0.0752
      19    C7      20.671109   18.653521   25.946758 C.3        1 MOL1        -0.1834
      20    H11     21.393774   19.479288   26.004397 H          1 MOL1         0.0752
      21    H12     19.704302   19.051666   26.284946 H          1 MOL1         0.0752
      22    C8      21.115361   17.516572   26.888912 C.3        1 MOL1        -0.2849
      23    H13     22.095422   17.120752   26.591965 H          1 MOL1         0.0764
      24    H14     21.195132   17.879124   27.921993 H          1 MOL1         0.0764
      25    H15     20.393040   16.689878   26.874642 H          1 MOL1         0.0764
@<TRIPOS>BOND
    1     1     2    1
    2     1     3    2
    3     1     4    1
    4     4     5    1
    5     4     6    1
    6     4     7    1
    7     7     8    1
    8     7     9    1
    9     7    10    1
   10    10    11    1
   11    10    12    1
   12    10    13    1
   13    13    14    1
   14    13    15    1
   15    13    16    1
   16    16    17    1
   17    16    18    1
   18    16    19    1
   19    19    20    1
   20    19    21    1
   21    19    22    1
   22    22    23    1
   23    22    24    1
   24    22    25    1
@<TRIPOS>SUBSTRUCTURE
       1 MOL1            1 RESIDUE      1      MOL     
@<SCITEGIC>MOL_PROPERTY
VConf Rank
SciTegic.value.IntegerValue
474

@<SCITEGIC>MOL_PROPERTY
Conf_Id
SciTegic.value.IntegerValue
24

@<SCITEGIC>MOL_PROPERTY
Delta U+W
SciTegic.value.DoubleValue
1.784

@<SCITEGIC>MOL_PROPERTY
U+W
SciTegic.value.DoubleValue
-49.846

@<SCITEGIC>MOL_PROPERTY
Grad RMS
SciTegic.value.DoubleValue
0.000000

@<SCITEGIC>MOL_PROPERTY
U
SciTegic.value.DoubleValue
10.904

@<SCITEGIC>MOL_PROPERTY
W
SciTegic.value.DoubleValue
-60.749

@<SCITEGIC>MOL_PROPERTY
W(PB)
SciTegic.value.DoubleValue
-63.220

@<SCITEGIC>MOL_PROPERTY
W(SA)
SciTegic.value.DoubleValue
2.471

@<SCITEGIC>MOL_PROPERTY
Valence
SciTegic.value.DoubleValue
9.445

@<SCITEGIC>MOL_PROPERTY
Coulomb
SciTegic.value.DoubleValue
0.780

@<SCITEGIC>MOL_PROPERTY
VdW
SciTegic.value.DoubleValue
0.679

@<SCITEGIC>MOL_PROPERTY
VdW6
SciTegic.value.DoubleValue
-10.008

@<SCITEGIC>MOL_PROPERTY
VdW12
SciTegic.value.DoubleValue
10.687

@<SCITEGIC>MOL_PROPERTY
Bond
SciTegic.value.DoubleValue
0.201

@<SCITEGIC>MOL_PROPERTY
Angle
SciTegic.value.DoubleValue
3.198

@<SCITEGIC>MOL_PROPERTY
Pdih
SciTegic.value.DoubleValue
6.039

@<SCITEGIC>MOL_PROPERTY
Idih
SciTegic.value.DoubleValue
0.006

@<SCITEGIC>MOL_PROPERTY
Tether
SciTegic.value.DoubleValue
0.000

@<TRIPOS>MOLECULE
guest-8_confgen4.mol2 : confsearch ligand conformer 475
          25          24           1
SMALL
USER_CHARGES
 
@<TRIPOS>ATOM
       1    C1      22.308188   20.156340   21.510427 C.2        1 MOL1         0.6168
       2    O1      23.109203   20.783682   22.175603 O.co2      1 MOL1        -0.6703
       3    O2      22.524324   19.042243   21.075351 O.co2      1 MOL1        -0.6703
       4    C2      20.985817   20.827849   21.144642 C.3        1 MOL1        -0.1963
       5    H1      20.406895   20.150497   20.505244 H          1 MOL1         0.0750
       6    H2      21.242104   21.697777   20.529004 H          1 MOL1         0.0750
       7    C3      20.124515   21.297671   22.350681 C.3        1 MOL1        -0.1860
       8    H3      20.760947   21.800457   23.092135 H          1 MOL1         0.0752
       9    H4      19.422173   22.060736   21.988912 H          1 MOL1         0.0752
      10    C4      19.296615   20.180045   23.032283 C.3        1 MOL1        -0.1858
      11    H5      18.654113   19.689793   22.288187 H          1 MOL1         0.0752
      12    H6      18.621779   20.650323   23.760581 H          1 MOL1         0.0752
      13    C5      20.150991   19.118020   23.760823 C.3        1 MOL1        -0.1858
      14    H7      20.736959   18.546018   23.030438 H          1 MOL1         0.0752
      15    H8      20.866929   19.615658   24.429280 H          1 MOL1         0.0752
      16    C6      19.275358   18.141003   24.575238 C.3        1 MOL1        -0.1858
      17    H9      18.556914   17.648014   23.906036 H          1 MOL1         0.0752
      18    H10     18.689689   18.702019   25.316331 H          1 MOL1         0.0752
      19    C7      20.126687   17.073193   25.293844 C.3        1 MOL1        -0.1834
      20    H11     20.712760   16.508624   24.555343 H          1 MOL1         0.0752
      21    H12     20.846022   17.563144   25.964637 H          1 MOL1         0.0752
      22    C8      19.249738   16.098881   26.105844 C.3        1 MOL1        -0.2849
      23    H13     18.541413   15.571341   25.453655 H          1 MOL1         0.0764
      24    H14     19.871147   15.347094   26.609561 H          1 MOL1         0.0764
      25    H15     18.675727   16.633879   26.873739 H          1 MOL1         0.0764
@<TRIPOS>BOND
    1     1     2    1
    2     1     3    2
    3     1     4    1
    4     4     5    1
    5     4     6    1
    6     4     7    1
    7     7     8    1
    8     7     9    1
    9     7    10    1
   10    10    11    1
   11    10    12    1
   12    10    13    1
   13    13    14    1
   14    13    15    1
   15    13    16    1
   16    16    17    1
   17    16    18    1
   18    16    19    1
   19    19    20    1
   20    19    21    1
   21    19    22    1
   22    22    23    1
   23    22    24    1
   24    22    25    1
@<TRIPOS>SUBSTRUCTURE
       1 MOL1            1 RESIDUE      1      MOL     
@<SCITEGIC>MOL_PROPERTY
VConf Rank
SciTegic.value.IntegerValue
475

@<SCITEGIC>MOL_PROPERTY
Conf_Id
SciTegic.value.IntegerValue
9

@<SCITEGIC>MOL_PROPERTY
Delta U+W
SciTegic.value.DoubleValue
1.764

@<SCITEGIC>MOL_PROPERTY
U+W
SciTegic.value.DoubleValue
-49.865

@<SCITEGIC>MOL_PROPERTY
Grad RMS
SciTegic.value.DoubleValue
0.000000

@<SCITEGIC>MOL_PROPERTY
U
SciTegic.value.DoubleValue
10.902

@<SCITEGIC>MOL_PROPERTY
W
SciTegic.value.DoubleValue
-60.768

@<SCITEGIC>MOL_PROPERTY
W(PB)
SciTegic.value.DoubleValue
-63.223

@<SCITEGIC>MOL_PROPERTY
W(SA)
SciTegic.value.DoubleValue
2.456

@<SCITEGIC>MOL_PROPERTY
Valence
SciTegic.value.DoubleValue
9.445

@<SCITEGIC>MOL_PROPERTY
Coulomb
SciTegic.value.DoubleValue
0.778

@<SCITEGIC>MOL_PROPERTY
VdW
SciTegic.value.DoubleValue
0.679

@<SCITEGIC>MOL_PROPERTY
VdW6
SciTegic.value.DoubleValue
-10.007

@<SCITEGIC>MOL_PROPERTY
VdW12
SciTegic.value.DoubleValue
10.687

@<SCITEGIC>MOL_PROPERTY
Bond
SciTegic.value.DoubleValue
0.201

@<SCITEGIC>MOL_PROPERTY
Angle
SciTegic.value.DoubleValue
3.198

@<SCITEGIC>MOL_PROPERTY
Pdih
SciTegic.value.DoubleValue
6.040

@<SCITEGIC>MOL_PROPERTY
Idih
SciTegic.value.DoubleValue
0.006

@<SCITEGIC>MOL_PROPERTY
Tether
SciTegic.value.DoubleValue
0.000

@<TRIPOS>MOLECULE
guest-8_confgen4.mol2 : confsearch ligand conformer 476
          25          24           1
SMALL
USER_CHARGES
 
@<TRIPOS>ATOM
       1    C1      19.880920   22.477744   21.776860 C.2        1 MOL1         0.6168
       2    O1      20.459739   22.994031   22.712286 O.co2      1 MOL1        -0.6703
       3    O2      19.753521   23.005654   20.689695 O.co2      1 MOL1        -0.6703
       4    C2      19.299950   21.081890   21.971235 C.3        1 MOL1        -0.1963
       5    H1      18.394549   21.004306   21.357650 H          1 MOL1         0.0750
       6    H2      18.985920   20.992713   23.015695 H          1 MOL1         0.0750
       7    C3      20.299226   19.958065   21.588990 C.3        1 MOL1        -0.1860
       8    H3      20.572148   20.093885   20.533290 H          1 MOL1         0.0752
       9    H4      21.230421   20.068774   22.161734 H          1 MOL1         0.0752
      10    C4      19.723503   18.530684   21.771795 C.3        1 MOL1        -0.1858
      11    H5      20.128673   17.894506   20.973026 H          1 MOL1         0.0752
      12    H6      18.634841   18.536708   21.624766 H          1 MOL1         0.0752
      13    C5      20.075353   17.859917   23.123473 C.3        1 MOL1        -0.1858
      14    H7      19.691275   16.830938   23.108072 H          1 MOL1         0.0752
      15    H8      21.166974   17.781226   23.210643 H          1 MOL1         0.0752
      16    C6      19.504768   18.589798   24.362374 C.3        1 MOL1        -0.1858
      17    H9      18.439627   18.800505   24.196617 H          1 MOL1         0.0752
      18    H10     20.006029   19.558680   24.485878 H          1 MOL1         0.0752
      19    C7      19.649065   17.778166   25.670795 C.3        1 MOL1        -0.1834
      20    H11     19.135418   18.317068   26.478828 H          1 MOL1         0.0752
      21    H12     19.135827   16.812216   25.567065 H          1 MOL1         0.0752
      22    C8      21.118426   17.543719   26.083515 C.3        1 MOL1        -0.2849
      23    H13     21.658881   18.495435   26.168891 H          1 MOL1         0.0764
      24    H14     21.168214   17.037974   27.056446 H          1 MOL1         0.0764
      25    H15     21.643086   16.914009   25.354084 H          1 MOL1         0.0764
@<TRIPOS>BOND
    1     1     2    1
    2     1     3    2
    3     1     4    1
    4     4     5    1
    5     4     6    1
    6     4     7    1
    7     7     8    1
    8     7     9    1
    9     7    10    1
   10    10    11    1
   11    10    12    1
   12    10    13    1
   13    13    14    1
   14    13    15    1
   15    13    16    1
   16    16    17    1
   17    16    18    1
   18    16    19    1
   19    19    20    1
   20    19    21    1
   21    19    22    1
   22    22    23    1
   23    22    24    1
   24    22    25    1
@<TRIPOS>SUBSTRUCTURE
       1 MOL1            1 RESIDUE      1      MOL     
@<SCITEGIC>MOL_PROPERTY
VConf Rank
SciTegic.value.IntegerValue
476

@<SCITEGIC>MOL_PROPERTY
Conf_Id
SciTegic.value.IntegerValue
89

@<SCITEGIC>MOL_PROPERTY
Delta U+W
SciTegic.value.DoubleValue
2.903

@<SCITEGIC>MOL_PROPERTY
U+W
SciTegic.value.DoubleValue
-48.726

@<SCITEGIC>MOL_PROPERTY
Grad RMS
SciTegic.value.DoubleValue
0.000000

@<SCITEGIC>MOL_PROPERTY
U
SciTegic.value.DoubleValue
10.996

@<SCITEGIC>MOL_PROPERTY
W
SciTegic.value.DoubleValue
-59.723

@<SCITEGIC>MOL_PROPERTY
W(PB)
SciTegic.value.DoubleValue
-62.151

@<SCITEGIC>MOL_PROPERTY
W(SA)
SciTegic.value.DoubleValue
2.428

@<SCITEGIC>MOL_PROPERTY
Valence
SciTegic.value.DoubleValue
10.985

@<SCITEGIC>MOL_PROPERTY
Coulomb
SciTegic.value.DoubleValue
-0.995

@<SCITEGIC>MOL_PROPERTY
VdW
SciTegic.value.DoubleValue
1.006

@<SCITEGIC>MOL_PROPERTY
VdW6
SciTegic.value.DoubleValue
-10.062

@<SCITEGIC>MOL_PROPERTY
VdW12
SciTegic.value.DoubleValue
11.069

@<SCITEGIC>MOL_PROPERTY
Bond
SciTegic.value.DoubleValue
0.238

@<SCITEGIC>MOL_PROPERTY
Angle
SciTegic.value.DoubleValue
3.202

@<SCITEGIC>MOL_PROPERTY
Pdih
SciTegic.value.DoubleValue
7.544

@<SCITEGIC>MOL_PROPERTY
Idih
SciTegic.value.DoubleValue
0.001

@<SCITEGIC>MOL_PROPERTY
Tether
SciTegic.value.DoubleValue
0.000

@<TRIPOS>MOLECULE
guest-8_confgen4.mol2 : confsearch ligand conformer 477
          25          24           1
SMALL
USER_CHARGES
 
@<TRIPOS>ATOM
       1    C1      20.030236   16.958992   26.261496 C.2        1 MOL1         0.6168
       2    O1      21.103731   16.409815   26.108940 O.co2      1 MOL1        -0.6703
       3    O2      19.776302   17.684965   27.202819 O.co2      1 MOL1        -0.6703
       4    C2      18.922965   16.668621   25.250120 C.3        1 MOL1        -0.1963
       5    H1      18.131452   16.148672   25.802059 H          1 MOL1         0.0750
       6    H2      19.299770   15.961236   24.501524 H          1 MOL1         0.0750
       7    C3      18.315544   17.918796   24.553211 C.3        1 MOL1        -0.1860
       8    H3      17.322462   17.644012   24.172782 H          1 MOL1         0.0752
       9    H4      18.145726   18.714777   25.291554 H          1 MOL1         0.0752
      10    C4      19.140009   18.466657   23.361557 C.3        1 MOL1        -0.1858
      11    H5      18.530072   19.226336   22.857192 H          1 MOL1         0.0752
      12    H6      19.305427   17.666154   22.627809 H          1 MOL1         0.0752
      13    C5      20.498227   19.088259   23.768051 C.3        1 MOL1        -0.1858
      14    H7      20.343667   19.847589   24.546703 H          1 MOL1         0.0752
      15    H8      21.132701   18.311392   24.211625 H          1 MOL1         0.0752
      16    C6      21.273673   19.709397   22.581355 C.3        1 MOL1        -0.1858
      17    H9      21.399096   18.958222   21.789628 H          1 MOL1         0.0752
      18    H10     22.284223   19.967558   22.926384 H          1 MOL1         0.0752
      19    C7      20.607446   20.977155   21.999658 C.3        1 MOL1        -0.1834
      20    H11     19.627249   20.729731   21.572193 H          1 MOL1         0.0752
      21    H12     20.432270   21.705489   22.803418 H          1 MOL1         0.0752
      22    C8      21.481169   21.623127   20.905390 C.3        1 MOL1        -0.2849
      23    H13     21.650273   20.924804   20.075260 H          1 MOL1         0.0764
      24    H14     20.993835   22.519514   20.500366 H          1 MOL1         0.0764
      25    H15     22.458372   21.921322   21.307256 H          1 MOL1         0.0764
@<TRIPOS>BOND
    1     1     2    1
    2     1     3    2
    3     1     4    1
    4     4     5    1
    5     4     6    1
    6     4     7    1
    7     7     8    1
    8     7     9    1
    9     7    10    1
   10    10    11    1
   11    10    12    1
   12    10    13    1
   13    13    14    1
   14    13    15    1
   15    13    16    1
   16    16    17    1
   17    16    18    1
   18    16    19    1
   19    19    20    1
   20    19    21    1
   21    19    22    1
   22    22    23    1
   23    22    24    1
   24    22    25    1
@<TRIPOS>SUBSTRUCTURE
       1 MOL1            1 RESIDUE      1      MOL     
@<SCITEGIC>MOL_PROPERTY
VConf Rank
SciTegic.value.IntegerValue
477

@<SCITEGIC>MOL_PROPERTY
Conf_Id
SciTegic.value.IntegerValue
114

@<SCITEGIC>MOL_PROPERTY
Delta U+W
SciTegic.value.DoubleValue
2.758

@<SCITEGIC>MOL_PROPERTY
U+W
SciTegic.value.DoubleValue
-48.871

@<SCITEGIC>MOL_PROPERTY
Grad RMS
SciTegic.value.DoubleValue
0.000000

@<SCITEGIC>MOL_PROPERTY
U
SciTegic.value.DoubleValue
11.422

@<SCITEGIC>MOL_PROPERTY
W
SciTegic.value.DoubleValue
-60.293

@<SCITEGIC>MOL_PROPERTY
W(PB)
SciTegic.value.DoubleValue
-62.719

@<SCITEGIC>MOL_PROPERTY
W(SA)
SciTegic.value.DoubleValue
2.425

@<SCITEGIC>MOL_PROPERTY
Valence
SciTegic.value.DoubleValue
10.135

@<SCITEGIC>MOL_PROPERTY
Coulomb
SciTegic.value.DoubleValue
0.369

@<SCITEGIC>MOL_PROPERTY
VdW
SciTegic.value.DoubleValue
0.918

@<SCITEGIC>MOL_PROPERTY
VdW6
SciTegic.value.DoubleValue
-10.482

@<SCITEGIC>MOL_PROPERTY
VdW12
SciTegic.value.DoubleValue
11.400

@<SCITEGIC>MOL_PROPERTY
Bond
SciTegic.value.DoubleValue
0.245

@<SCITEGIC>MOL_PROPERTY
Angle
SciTegic.value.DoubleValue
3.539

@<SCITEGIC>MOL_PROPERTY
Pdih
SciTegic.value.DoubleValue
6.346

@<SCITEGIC>MOL_PROPERTY
Idih
SciTegic.value.DoubleValue
0.006

@<SCITEGIC>MOL_PROPERTY
Tether
SciTegic.value.DoubleValue
0.000

@<TRIPOS>MOLECULE
guest-8_confgen4.mol2 : confsearch ligand conformer 478
          25          24           1
SMALL
USER_CHARGES
 
@<TRIPOS>ATOM
       1    C1      18.224660   21.853796   21.654146 C.2        1 MOL1         0.6168
       2    O1      17.649087   21.312469   20.730706 O.co2      1 MOL1        -0.6703
       3    O2      17.651919   22.408908   22.571161 O.co2      1 MOL1        -0.6703
       4    C2      19.750748   21.855710   21.653585 C.3        1 MOL1        -0.1963
       5    H1      20.077956   22.871004   21.906745 H          1 MOL1         0.0750
       6    H2      20.100598   21.654568   20.633819 H          1 MOL1         0.0750
       7    C3      20.381505   20.845226   22.646584 C.3        1 MOL1        -0.1860
       8    H3      21.467864   21.004144   22.675196 H          1 MOL1         0.0752
       9    H4      20.002602   21.055742   23.655267 H          1 MOL1         0.0752
      10    C4      20.090019   19.375301   22.259787 C.3        1 MOL1        -0.1858
      11    H5      20.392147   19.215923   21.215679 H          1 MOL1         0.0752
      12    H6      19.008552   19.185386   22.300556 H          1 MOL1         0.0752
      13    C5      20.828325   18.343704   23.146012 C.3        1 MOL1        -0.1858
      14    H7      20.677254   17.349808   22.706088 H          1 MOL1         0.0752
      15    H8      21.909058   18.537426   23.114219 H          1 MOL1         0.0752
      16    C6      20.341640   18.333893   24.616245 C.3        1 MOL1        -0.1858
      17    H9      19.260180   18.143714   24.647202 H          1 MOL1         0.0752
      18    H10     20.496199   19.325974   25.058908 H          1 MOL1         0.0752
      19    C7      21.074849   17.297074   25.499335 C.3        1 MOL1        -0.1834
      20    H11     22.158098   17.477155   25.461516 H          1 MOL1         0.0752
      21    H12     20.771852   17.449128   26.544473 H          1 MOL1         0.0752
      22    C8      20.776245   15.833919   25.105736 C.3        1 MOL1        -0.2849
      23    H13     21.241410   15.142249   25.819962 H          1 MOL1         0.0764
      24    H14     19.695669   15.640366   25.103142 H          1 MOL1         0.0764
      25    H15     21.171378   15.596933   24.110189 H          1 MOL1         0.0764
@<TRIPOS>BOND
    1     1     2    1
    2     1     3    2
    3     1     4    1
    4     4     5    1
    5     4     6    1
    6     4     7    1
    7     7     8    1
    8     7     9    1
    9     7    10    1
   10    10    11    1
   11    10    12    1
   12    10    13    1
   13    13    14    1
   14    13    15    1
   15    13    16    1
   16    16    17    1
   17    16    18    1
   18    16    19    1
   19    19    20    1
   20    19    21    1
   21    19    22    1
   22    22    23    1
   23    22    24    1
   24    22    25    1
@<TRIPOS>SUBSTRUCTURE
       1 MOL1            1 RESIDUE      1      MOL     
@<SCITEGIC>MOL_PROPERTY
VConf Rank
SciTegic.value.IntegerValue
478

@<SCITEGIC>MOL_PROPERTY
Conf_Id
SciTegic.value.IntegerValue
87

@<SCITEGIC>MOL_PROPERTY
Delta U+W
SciTegic.value.DoubleValue
1.453

@<SCITEGIC>MOL_PROPERTY
U+W
SciTegic.value.DoubleValue
-50.176

@<SCITEGIC>MOL_PROPERTY
Grad RMS
SciTegic.value.DoubleValue
0.000000

@<SCITEGIC>MOL_PROPERTY
U
SciTegic.value.DoubleValue
9.763

@<SCITEGIC>MOL_PROPERTY
W
SciTegic.value.DoubleValue
-59.940

@<SCITEGIC>MOL_PROPERTY
W(PB)
SciTegic.value.DoubleValue
-62.392

@<SCITEGIC>MOL_PROPERTY
W(SA)
SciTegic.value.DoubleValue
2.452

@<SCITEGIC>MOL_PROPERTY
Valence
SciTegic.value.DoubleValue
8.883

@<SCITEGIC>MOL_PROPERTY
Coulomb
SciTegic.value.DoubleValue
-0.122

@<SCITEGIC>MOL_PROPERTY
VdW
SciTegic.value.DoubleValue
1.003

@<SCITEGIC>MOL_PROPERTY
VdW6
SciTegic.value.DoubleValue
-9.782

@<SCITEGIC>MOL_PROPERTY
VdW12
SciTegic.value.DoubleValue
10.785

@<SCITEGIC>MOL_PROPERTY
Bond
SciTegic.value.DoubleValue
0.212

@<SCITEGIC>MOL_PROPERTY
Angle
SciTegic.value.DoubleValue
2.940

@<SCITEGIC>MOL_PROPERTY
Pdih
SciTegic.value.DoubleValue
5.730

@<SCITEGIC>MOL_PROPERTY
Idih
SciTegic.value.DoubleValue
0.001

@<SCITEGIC>MOL_PROPERTY
Tether
SciTegic.value.DoubleValue
0.000

@<TRIPOS>MOLECULE
guest-8_confgen4.mol2 : confsearch ligand conformer 479
          25          24           1
SMALL
USER_CHARGES
 
@<TRIPOS>ATOM
       1    C1      19.746048   21.406632   26.543153 C.2        1 MOL1         0.6168
       2    O1      19.804420   20.593540   27.444352 O.co2      1 MOL1        -0.6703
       3    O2      20.166756   22.543117   26.633420 O.co2      1 MOL1        -0.6703
       4    C2      19.127233   20.971259   25.219641 C.3        1 MOL1        -0.1963
       5    H1      18.635436   21.842496   24.770684 H          1 MOL1         0.0750
       6    H2      18.345823   20.232742   25.435430 H          1 MOL1         0.0750
       7    C3      20.165996   20.377244   24.236754 C.3        1 MOL1        -0.1860
       8    H3      20.946243   21.124475   24.036749 H          1 MOL1         0.0752
       9    H4      20.658049   19.520178   24.715405 H          1 MOL1         0.0752
      10    C4      19.511383   19.937765   22.906728 C.3        1 MOL1        -0.1858
      11    H5      18.966245   20.789680   22.478140 H          1 MOL1         0.0752
      12    H6      18.759304   19.161892   23.101162 H          1 MOL1         0.0752
      13    C5      20.530788   19.432237   21.855256 C.3        1 MOL1        -0.1858
      14    H7      19.994999   19.198186   20.925993 H          1 MOL1         0.0752
      15    H8      21.216373   20.252730   21.603788 H          1 MOL1         0.0752
      16    C6      21.370494   18.200184   22.285092 C.3        1 MOL1        -0.1858
      17    H9      22.030891   18.482294   23.115486 H          1 MOL1         0.0752
      18    H10     22.037364   17.925313   21.456708 H          1 MOL1         0.0752
      19    C7      20.549209   16.953994   22.698170 C.3        1 MOL1        -0.1834
      20    H11     21.245548   16.161179   23.003885 H          1 MOL1         0.0752
      21    H12     19.939005   17.179868   23.582741 H          1 MOL1         0.0752
      22    C8      19.647772   16.414730   21.566514 C.3        1 MOL1        -0.2849
      23    H13     20.236072   16.197466   20.665606 H          1 MOL1         0.0764
      24    H14     19.151827   15.486860   21.879282 H          1 MOL1         0.0764
      25    H15     18.865730   17.137313   21.301507 H          1 MOL1         0.0764
@<TRIPOS>BOND
    1     1     2    1
    2     1     3    2
    3     1     4    1
    4     4     5    1
    5     4     6    1
    6     4     7    1
    7     7     8    1
    8     7     9    1
    9     7    10    1
   10    10    11    1
   11    10    12    1
   12    10    13    1
   13    13    14    1
   14    13    15    1
   15    13    16    1
   16    16    17    1
   17    16    18    1
   18    16    19    1
   19    19    20    1
   20    19    21    1
   21    19    22    1
   22    22    23    1
   23    22    24    1
   24    22    25    1
@<TRIPOS>SUBSTRUCTURE
       1 MOL1            1 RESIDUE      1      MOL     
@<SCITEGIC>MOL_PROPERTY
VConf Rank
SciTegic.value.IntegerValue
479

@<SCITEGIC>MOL_PROPERTY
Conf_Id
SciTegic.value.IntegerValue
29

@<SCITEGIC>MOL_PROPERTY
Delta U+W
SciTegic.value.DoubleValue
0.850

@<SCITEGIC>MOL_PROPERTY
U+W
SciTegic.value.DoubleValue
-50.780

@<SCITEGIC>MOL_PROPERTY
Grad RMS
SciTegic.value.DoubleValue
0.000000

@<SCITEGIC>MOL_PROPERTY
U
SciTegic.value.DoubleValue
8.646

@<SCITEGIC>MOL_PROPERTY
W
SciTegic.value.DoubleValue
-59.426

@<SCITEGIC>MOL_PROPERTY
W(PB)
SciTegic.value.DoubleValue
-61.868

@<SCITEGIC>MOL_PROPERTY
W(SA)
SciTegic.value.DoubleValue
2.442

@<SCITEGIC>MOL_PROPERTY
Valence
SciTegic.value.DoubleValue
8.924

@<SCITEGIC>MOL_PROPERTY
Coulomb
SciTegic.value.DoubleValue
-1.171

@<SCITEGIC>MOL_PROPERTY
VdW
SciTegic.value.DoubleValue
0.894

@<SCITEGIC>MOL_PROPERTY
VdW6
SciTegic.value.DoubleValue
-10.223

@<SCITEGIC>MOL_PROPERTY
VdW12
SciTegic.value.DoubleValue
11.117

@<SCITEGIC>MOL_PROPERTY
Bond
SciTegic.value.DoubleValue
0.231

@<SCITEGIC>MOL_PROPERTY
Angle
SciTegic.value.DoubleValue
3.232

@<SCITEGIC>MOL_PROPERTY
Pdih
SciTegic.value.DoubleValue
5.461

@<SCITEGIC>MOL_PROPERTY
Idih
SciTegic.value.DoubleValue
0.001

@<SCITEGIC>MOL_PROPERTY
Tether
SciTegic.value.DoubleValue
0.000

@<TRIPOS>MOLECULE
guest-8_confgen4.mol2 : confsearch ligand conformer 480
          25          24           1
SMALL
USER_CHARGES
 
@<TRIPOS>ATOM
       1    C1      20.063277   15.235681   23.731032 C.2        1 MOL1         0.6168
       2    O1      20.778027   14.903581   22.806085 O.co2      1 MOL1        -0.6703
       3    O2      19.146565   14.557295   24.150759 O.co2      1 MOL1        -0.6703
       4    C2      20.318796   16.586863   24.389203 C.3        1 MOL1        -0.1963
       5    H1      21.394388   16.793840   24.335953 H          1 MOL1         0.0750
       6    H2      20.056361   16.503716   25.450662 H          1 MOL1         0.0750
       7    C3      19.520635   17.737905   23.728901 C.3        1 MOL1        -0.1860
       8    H3      19.785148   17.788259   22.664344 H          1 MOL1         0.0752
       9    H4      18.446522   17.513007   23.782249 H          1 MOL1         0.0752
      10    C4      19.803587   19.096713   24.410234 C.3        1 MOL1        -0.1858
      11    H5      20.870237   19.341561   24.322411 H          1 MOL1         0.0752
      12    H6      19.599410   19.006541   25.485781 H          1 MOL1         0.0752
      13    C5      18.947743   20.258928   23.847094 C.3        1 MOL1        -0.1858
      14    H7      17.887329   20.038670   24.030070 H          1 MOL1         0.0752
      15    H8      19.164791   21.169386   24.420973 H          1 MOL1         0.0752
      16    C6      19.138635   20.550384   22.334997 C.3        1 MOL1        -0.1858
      17    H9      18.499785   21.400314   22.059352 H          1 MOL1         0.0752
      18    H10     18.766280   19.698648   21.750906 H          1 MOL1         0.0752
      19    C7      20.592904   20.858831   21.901298 C.3        1 MOL1        -0.1834
      20    H11     21.235075   19.987398   22.085841 H          1 MOL1         0.0752
      21    H12     20.607271   21.022142   20.815008 H          1 MOL1         0.0752
      22    C8      21.187053   22.101646   22.598746 C.3        1 MOL1        -0.2849
      23    H13     21.290471   21.940867   23.679209 H          1 MOL1         0.0764
      24    H14     22.183929   22.327153   22.198603 H          1 MOL1         0.0764
      25    H15     20.551202   22.982322   22.440511 H          1 MOL1         0.0764
@<TRIPOS>BOND
    1     1     2    1
    2     1     3    2
    3     1     4    1
    4     4     5    1
    5     4     6    1
    6     4     7    1
    7     7     8    1
    8     7     9    1
    9     7    10    1
   10    10    11    1
   11    10    12    1
   12    10    13    1
   13    13    14    1
   14    13    15    1
   15    13    16    1
   16    16    17    1
   17    16    18    1
   18    16    19    1
   19    19    20    1
   20    19    21    1
   21    19    22    1
   22    22    23    1
   23    22    24    1
   24    22    25    1
@<TRIPOS>SUBSTRUCTURE
       1 MOL1            1 RESIDUE      1      MOL     
@<SCITEGIC>MOL_PROPERTY
VConf Rank
SciTegic.value.IntegerValue
480

@<SCITEGIC>MOL_PROPERTY
Conf_Id
SciTegic.value.IntegerValue
30

@<SCITEGIC>MOL_PROPERTY
Delta U+W
SciTegic.value.DoubleValue
0.843

@<SCITEGIC>MOL_PROPERTY
U+W
SciTegic.value.DoubleValue
-50.787

@<SCITEGIC>MOL_PROPERTY
Grad RMS
SciTegic.value.DoubleValue
0.000000

@<SCITEGIC>MOL_PROPERTY
U
SciTegic.value.DoubleValue
8.647

@<SCITEGIC>MOL_PROPERTY
W
SciTegic.value.DoubleValue
-59.434

@<SCITEGIC>MOL_PROPERTY
W(PB)
SciTegic.value.DoubleValue
-61.861

@<SCITEGIC>MOL_PROPERTY
W(SA)
SciTegic.value.DoubleValue
2.428

@<SCITEGIC>MOL_PROPERTY
Valence
SciTegic.value.DoubleValue
8.924

@<SCITEGIC>MOL_PROPERTY
Coulomb
SciTegic.value.DoubleValue
-1.170

@<SCITEGIC>MOL_PROPERTY
VdW
SciTegic.value.DoubleValue
0.894

@<SCITEGIC>MOL_PROPERTY
VdW6
SciTegic.value.DoubleValue
-10.224

@<SCITEGIC>MOL_PROPERTY
VdW12
SciTegic.value.DoubleValue
11.118

@<SCITEGIC>MOL_PROPERTY
Bond
SciTegic.value.DoubleValue
0.231

@<SCITEGIC>MOL_PROPERTY
Angle
SciTegic.value.DoubleValue
3.232

@<SCITEGIC>MOL_PROPERTY
Pdih
SciTegic.value.DoubleValue
5.460

@<SCITEGIC>MOL_PROPERTY
Idih
SciTegic.value.DoubleValue
0.000

@<SCITEGIC>MOL_PROPERTY
Tether
SciTegic.value.DoubleValue
0.000

@<TRIPOS>MOLECULE
guest-8_confgen4.mol2 : confsearch ligand conformer 481
          25          24           1
SMALL
USER_CHARGES
 
@<TRIPOS>ATOM
       1    C1      19.421880   21.735083   19.236754 C.2        1 MOL1         0.6168
       2    O1      20.227990   21.095833   18.588566 O.co2      1 MOL1        -0.6703
       3    O2      18.798090   22.672941   18.781313 O.co2      1 MOL1        -0.6703
       4    C2      19.159037   21.365460   20.697470 C.3        1 MOL1        -0.1963
       5    H1      18.087157   21.156493   20.793974 H          1 MOL1         0.0750
       6    H2      19.368370   22.255362   21.302584 H          1 MOL1         0.0750
       7    C3      19.978632   20.161657   21.233697 C.3        1 MOL1        -0.1860
       8    H3      19.769009   19.275244   20.619013 H          1 MOL1         0.0752
       9    H4      21.051384   20.375118   21.128141 H          1 MOL1         0.0752
      10    C4      19.652416   19.857638   22.712142 C.3        1 MOL1        -0.1858
      11    H5      18.579512   19.644606   22.815246 H          1 MOL1         0.0752
      12    H6      19.862709   20.745160   23.324693 H          1 MOL1         0.0752
      13    C5      20.468781   18.659836   23.243468 C.3        1 MOL1        -0.1858
      14    H7      20.258662   17.772151   22.631122 H          1 MOL1         0.0752
      15    H8      21.541740   18.872600   23.140535 H          1 MOL1         0.0752
      16    C6      20.143076   18.355312   24.721675 C.3        1 MOL1        -0.1858
      17    H9      19.070160   18.142465   24.824832 H          1 MOL1         0.0752
      18    H10     20.353223   19.242842   25.334229 H          1 MOL1         0.0752
      19    C7      20.958991   17.158031   25.252862 C.3        1 MOL1        -0.1834
      20    H11     20.749898   16.267751   24.643625 H          1 MOL1         0.0752
      21    H12     22.032949   17.368116   25.153027 H          1 MOL1         0.0752
      22    C8      20.630921   16.857134   26.729153 C.3        1 MOL1        -0.2849
      23    H13     19.567865   16.612413   26.853335 H          1 MOL1         0.0764
      24    H14     21.219508   16.003699   27.090125 H          1 MOL1         0.0764
      25    H15     20.860590   17.721047   27.366573 H          1 MOL1         0.0764
@<TRIPOS>BOND
    1     1     2    1
    2     1     3    2
    3     1     4    1
    4     4     5    1
    5     4     6    1
    6     4     7    1
    7     7     8    1
    8     7     9    1
    9     7    10    1
   10    10    11    1
   11    10    12    1
   12    10    13    1
   13    13    14    1
   14    13    15    1
   15    13    16    1
   16    16    17    1
   17    16    18    1
   18    16    19    1
   19    19    20    1
   20    19    21    1
   21    19    22    1
   22    22    23    1
   23    22    24    1
   24    22    25    1
@<TRIPOS>SUBSTRUCTURE
       1 MOL1            1 RESIDUE      1      MOL     
@<SCITEGIC>MOL_PROPERTY
VConf Rank
SciTegic.value.IntegerValue
481

@<SCITEGIC>MOL_PROPERTY
Conf_Id
SciTegic.value.IntegerValue
0

@<SCITEGIC>MOL_PROPERTY
Delta U+W
SciTegic.value.DoubleValue
0.000

@<SCITEGIC>MOL_PROPERTY
U+W
SciTegic.value.DoubleValue
-51.629

@<SCITEGIC>MOL_PROPERTY
Grad RMS
SciTegic.value.DoubleValue
0.000000

@<SCITEGIC>MOL_PROPERTY
U
SciTegic.value.DoubleValue
6.586

@<SCITEGIC>MOL_PROPERTY
W
SciTegic.value.DoubleValue
-58.216

@<SCITEGIC>MOL_PROPERTY
W(PB)
SciTegic.value.DoubleValue
-60.757

@<SCITEGIC>MOL_PROPERTY
W(SA)
SciTegic.value.DoubleValue
2.541

@<SCITEGIC>MOL_PROPERTY
Valence
SciTegic.value.DoubleValue
8.027

@<SCITEGIC>MOL_PROPERTY
Coulomb
SciTegic.value.DoubleValue
-2.892

@<SCITEGIC>MOL_PROPERTY
VdW
SciTegic.value.DoubleValue
1.451

@<SCITEGIC>MOL_PROPERTY
VdW6
SciTegic.value.DoubleValue
-7.931

@<SCITEGIC>MOL_PROPERTY
VdW12
SciTegic.value.DoubleValue
9.383

@<SCITEGIC>MOL_PROPERTY
Bond
SciTegic.value.DoubleValue
0.149

@<SCITEGIC>MOL_PROPERTY
Angle
SciTegic.value.DoubleValue
2.726

@<SCITEGIC>MOL_PROPERTY
Pdih
SciTegic.value.DoubleValue
5.152

@<SCITEGIC>MOL_PROPERTY
Idih
SciTegic.value.DoubleValue
0.000

@<SCITEGIC>MOL_PROPERTY
Tether
SciTegic.value.DoubleValue
0.000

@<TRIPOS>MOLECULE
guest-8_confgen4.mol2 : confsearch ligand conformer 482
          25          24           1
SMALL
USER_CHARGES
 
@<TRIPOS>ATOM
       1    C1      23.669775   20.616982   25.800248 C.2        1 MOL1         0.6168
       2    O1      24.688991   19.966067   25.681385 O.co2      1 MOL1        -0.6703
       3    O2      23.655486   21.807095   26.045294 O.co2      1 MOL1        -0.6703
       4    C2      22.335121   19.905630   25.608526 C.3        1 MOL1        -0.1963
       5    H1      21.595040   20.389351   26.257293 H          1 MOL1         0.0750
       6    H2      22.446668   18.872198   25.958072 H          1 MOL1         0.0750
       7    C3      21.850055   19.923370   24.138009 C.3        1 MOL1        -0.1860
       8    H3      21.756231   20.964578   23.799372 H          1 MOL1         0.0752
       9    H4      22.607923   19.447597   23.500146 H          1 MOL1         0.0752
      10    C4      20.497796   19.197322   23.969868 C.3        1 MOL1        -0.1858
      11    H5      19.742715   19.674606   24.609582 H          1 MOL1         0.0752
      12    H6      20.594602   18.157239   24.310508 H          1 MOL1         0.0752
      13    C5      20.016907   19.216450   22.502950 C.3        1 MOL1        -0.1858
      14    H7      19.919958   20.256420   22.162116 H          1 MOL1         0.0752
      15    H8      20.771827   18.739203   21.863079 H          1 MOL1         0.0752
      16    C6      18.664730   18.490530   22.334030 C.3        1 MOL1        -0.1858
      17    H9      17.909549   18.967613   22.973708 H          1 MOL1         0.0752
      18    H10     18.761359   17.450505   22.674774 H          1 MOL1         0.0752
      19    C7      18.183933   18.509483   20.867797 C.3        1 MOL1        -0.1834
      20    H11     18.084289   19.548403   20.523988 H          1 MOL1         0.0752
      21    H12     18.936070   18.031285   20.225064 H          1 MOL1         0.0752
      22    C8      16.833467   17.783685   20.703294 C.3        1 MOL1        -0.2849
      23    H13     16.506907   17.806797   19.655481 H          1 MOL1         0.0764
      24    H14     16.912403   16.732612   21.010556 H          1 MOL1         0.0764
      25    H15     16.054219   18.261151   21.311730 H          1 MOL1         0.0764
@<TRIPOS>BOND
    1     1     2    1
    2     1     3    2
    3     1     4    1
    4     4     5    1
    5     4     6    1
    6     4     7    1
    7     7     8    1
    8     7     9    1
    9     7    10    1
   10    10    11    1
   11    10    12    1
   12    10    13    1
   13    13    14    1
   14    13    15    1
   15    13    16    1
   16    16    17    1
   17    16    18    1
   18    16    19    1
   19    19    20    1
   20    19    21    1
   21    19    22    1
   22    22    23    1
   23    22    24    1
   24    22    25    1
@<TRIPOS>SUBSTRUCTURE
       1 MOL1            1 RESIDUE      1      MOL     
@<SCITEGIC>MOL_PROPERTY
VConf Rank
SciTegic.value.IntegerValue
482

@<SCITEGIC>MOL_PROPERTY
Conf_Id
SciTegic.value.IntegerValue
27

@<SCITEGIC>MOL_PROPERTY
Delta U+W
SciTegic.value.DoubleValue
-1.297

@<SCITEGIC>MOL_PROPERTY
U+W
SciTegic.value.DoubleValue
-52.926

@<SCITEGIC>MOL_PROPERTY
Grad RMS
SciTegic.value.DoubleValue
0.000000

@<SCITEGIC>MOL_PROPERTY
U
SciTegic.value.DoubleValue
5.617

@<SCITEGIC>MOL_PROPERTY
W
SciTegic.value.DoubleValue
-58.543

@<SCITEGIC>MOL_PROPERTY
W(PB)
SciTegic.value.DoubleValue
-61.065

@<SCITEGIC>MOL_PROPERTY
W(SA)
SciTegic.value.DoubleValue
2.522

@<SCITEGIC>MOL_PROPERTY
Valence
SciTegic.value.DoubleValue
7.531

@<SCITEGIC>MOL_PROPERTY
Coulomb
SciTegic.value.DoubleValue
-2.818

@<SCITEGIC>MOL_PROPERTY
VdW
SciTegic.value.DoubleValue
0.904

@<SCITEGIC>MOL_PROPERTY
VdW6
SciTegic.value.DoubleValue
-7.640

@<SCITEGIC>MOL_PROPERTY
VdW12
SciTegic.value.DoubleValue
8.544

@<SCITEGIC>MOL_PROPERTY
Bond
SciTegic.value.DoubleValue
0.115

@<SCITEGIC>MOL_PROPERTY
Angle
SciTegic.value.DoubleValue
2.271

@<SCITEGIC>MOL_PROPERTY
Pdih
SciTegic.value.DoubleValue
5.144

@<SCITEGIC>MOL_PROPERTY
Idih
SciTegic.value.DoubleValue
0.001

@<SCITEGIC>MOL_PROPERTY
Tether
SciTegic.value.DoubleValue
0.000

@<TRIPOS>MOLECULE
guest-8_confgen4.mol2 : confsearch ligand conformer 483
          25          24           1
SMALL
USER_CHARGES
 
@<TRIPOS>ATOM
       1    C1      23.090362   17.017060   21.413037 C.2        1 MOL1         0.6168
       2    O1      24.113539   16.887317   22.055959 O.co2      1 MOL1        -0.6703
       3    O2      22.360357   16.091847   21.116323 O.co2      1 MOL1        -0.6703
       4    C2      22.712230   18.417477   20.938892 C.3        1 MOL1        -0.1963
       5    H1      21.994293   18.326115   20.114838 H          1 MOL1         0.0750
       6    H2      23.616056   18.877951   20.522903 H          1 MOL1         0.0750
       7    C3      22.134246   19.326120   22.054798 C.3        1 MOL1        -0.1860
       8    H3      22.852529   19.385310   22.884399 H          1 MOL1         0.0752
       9    H4      22.020965   20.345426   21.661438 H          1 MOL1         0.0752
      10    C4      20.768838   18.827746   22.579252 C.3        1 MOL1        -0.1858
      11    H5      20.877628   17.814663   22.990654 H          1 MOL1         0.0752
      12    H6      20.058397   18.757416   21.744176 H          1 MOL1         0.0752
      13    C5      20.197431   19.763885   23.665883 C.3        1 MOL1        -0.1858
      14    H7      20.908521   19.833561   24.500499 H          1 MOL1         0.0752
      15    H8      20.084933   20.776915   23.255820 H          1 MOL1         0.0752
      16    C6      18.833506   19.266062   24.190994 C.3        1 MOL1        -0.1858
      17    H9      18.945835   18.252963   24.601045 H          1 MOL1         0.0752
      18    H10     18.122357   19.195970   23.356467 H          1 MOL1         0.0752
      19    C7      18.262195   20.201167   25.277527 C.3        1 MOL1        -0.1834
      20    H11     18.970258   20.272191   26.114835 H          1 MOL1         0.0752
      21    H12     18.146679   21.215195   24.870240 H          1 MOL1         0.0752
      22    C8      16.900353   19.700435   25.799312 C.3        1 MOL1        -0.2849
      23    H13     16.992907   18.699699   26.241306 H          1 MOL1         0.0764
      24    H14     16.509112   20.376631   26.570525 H          1 MOL1         0.0764
      25    H15     16.163117   19.649748   24.987334 H          1 MOL1         0.0764
@<TRIPOS>BOND
    1     1     2    1
    2     1     3    2
    3     1     4    1
    4     4     5    1
    5     4     6    1
    6     4     7    1
    7     7     8    1
    8     7     9    1
    9     7    10    1
   10    10    11    1
   11    10    12    1
   12    10    13    1
   13    13    14    1
   14    13    15    1
   15    13    16    1
   16    16    17    1
   17    16    18    1
   18    16    19    1
   19    19    20    1
   20    19    21    1
   21    19    22    1
   22    22    23    1
   23    22    24    1
   24    22    25    1
@<TRIPOS>SUBSTRUCTURE
       1 MOL1            1 RESIDUE      1      MOL     
@<SCITEGIC>MOL_PROPERTY
VConf Rank
SciTegic.value.IntegerValue
483

@<SCITEGIC>MOL_PROPERTY
Conf_Id
SciTegic.value.IntegerValue
37

@<SCITEGIC>MOL_PROPERTY
Delta U+W
SciTegic.value.DoubleValue
-0.230

@<SCITEGIC>MOL_PROPERTY
U+W
SciTegic.value.DoubleValue
-51.860

@<SCITEGIC>MOL_PROPERTY
Grad RMS
SciTegic.value.DoubleValue
0.000000

@<SCITEGIC>MOL_PROPERTY
U
SciTegic.value.DoubleValue
7.816

@<SCITEGIC>MOL_PROPERTY
W
SciTegic.value.DoubleValue
-59.675

@<SCITEGIC>MOL_PROPERTY
W(PB)
SciTegic.value.DoubleValue
-62.180

@<SCITEGIC>MOL_PROPERTY
W(SA)
SciTegic.value.DoubleValue
2.505

@<SCITEGIC>MOL_PROPERTY
Valence
SciTegic.value.DoubleValue
7.785

@<SCITEGIC>MOL_PROPERTY
Coulomb
SciTegic.value.DoubleValue
-0.713

@<SCITEGIC>MOL_PROPERTY
VdW
SciTegic.value.DoubleValue
0.744

@<SCITEGIC>MOL_PROPERTY
VdW6
SciTegic.value.DoubleValue
-8.514

@<SCITEGIC>MOL_PROPERTY
VdW12
SciTegic.value.DoubleValue
9.259

@<SCITEGIC>MOL_PROPERTY
Bond
SciTegic.value.DoubleValue
0.136

@<SCITEGIC>MOL_PROPERTY
Angle
SciTegic.value.DoubleValue
2.433

@<SCITEGIC>MOL_PROPERTY
Pdih
SciTegic.value.DoubleValue
5.216

@<SCITEGIC>MOL_PROPERTY
Idih
SciTegic.value.DoubleValue
0.000

@<SCITEGIC>MOL_PROPERTY
Tether
SciTegic.value.DoubleValue
0.000

@<TRIPOS>MOLECULE
guest-8_confgen4.mol2 : confsearch ligand conformer 484
          25          24           1
SMALL
USER_CHARGES
 
@<TRIPOS>ATOM
       1    C1      20.107778   15.663498   21.684080 C.2        1 MOL1         0.6168
       2    O1      19.220169   15.463222   20.878404 O.co2      1 MOL1        -0.6703
       3    O2      20.196198   15.080128   22.746541 O.co2      1 MOL1        -0.6703
       4    C2      21.178213   16.692994   21.332977 C.3        1 MOL1        -0.1963
       5    H1      21.487150   16.504791   20.298028 H          1 MOL1         0.0750
       6    H2      22.056907   16.513607   21.964296 H          1 MOL1         0.0750
       7    C3      20.708334   18.164121   21.474201 C.3        1 MOL1        -0.1860
       8    H3      21.487050   18.827033   21.073331 H          1 MOL1         0.0752
       9    H4      19.811897   18.320583   20.858089 H          1 MOL1         0.0752
      10    C4      20.411189   18.555006   22.939357 C.3        1 MOL1        -0.1858
      11    H5      21.306016   18.384224   23.553476 H          1 MOL1         0.0752
      12    H6      19.620347   17.907206   23.342280 H          1 MOL1         0.0752
      13    C5      19.975993   20.031359   23.060252 C.3        1 MOL1        -0.1858
      14    H7      20.766566   20.681210   22.660598 H          1 MOL1         0.0752
      15    H8      19.081081   20.201121   22.445921 H          1 MOL1         0.0752
      16    C6      19.678233   20.422459   24.523890 C.3        1 MOL1        -0.1858
      17    H9      20.572939   20.252497   25.138458 H          1 MOL1         0.0752
      18    H10     18.887731   19.772581   24.923753 H          1 MOL1         0.0752
      19    C7      19.242601   21.897886   24.645162 C.3        1 MOL1        -0.1834
      20    H11     20.031835   22.551055   24.247721 H          1 MOL1         0.0752
      21    H12     18.346570   22.071080   24.033104 H          1 MOL1         0.0752
      22    C8      18.946217   22.284344   26.108176 C.3        1 MOL1        -0.2849
      23    H13     19.835735   22.150684   26.737690 H          1 MOL1         0.0764
      24    H14     18.638088   23.335802   26.175814 H          1 MOL1         0.0764
      25    H15     18.137820   21.667026   26.521469 H          1 MOL1         0.0764
@<TRIPOS>BOND
    1     1     2    1
    2     1     3    2
    3     1     4    1
    4     4     5    1
    5     4     6    1
    6     4     7    1
    7     7     8    1
    8     7     9    1
    9     7    10    1
   10    10    11    1
   11    10    12    1
   12    10    13    1
   13    13    14    1
   14    13    15    1
   15    13    16    1
   16    16    17    1
   17    16    18    1
   18    16    19    1
   19    19    20    1
   20    19    21    1
   21    19    22    1
   22    22    23    1
   23    22    24    1
   24    22    25    1
@<TRIPOS>SUBSTRUCTURE
       1 MOL1            1 RESIDUE      1      MOL     
@<SCITEGIC>MOL_PROPERTY
VConf Rank
SciTegic.value.IntegerValue
484

@<SCITEGIC>MOL_PROPERTY
Conf_Id
SciTegic.value.IntegerValue
54

@<SCITEGIC>MOL_PROPERTY
Delta U+W
SciTegic.value.DoubleValue
-0.224

@<SCITEGIC>MOL_PROPERTY
U+W
SciTegic.value.DoubleValue
-51.854

@<SCITEGIC>MOL_PROPERTY
Grad RMS
SciTegic.value.DoubleValue
0.000000

@<SCITEGIC>MOL_PROPERTY
U
SciTegic.value.DoubleValue
7.816

@<SCITEGIC>MOL_PROPERTY
W
SciTegic.value.DoubleValue
-59.670

@<SCITEGIC>MOL_PROPERTY
W(PB)
SciTegic.value.DoubleValue
-62.157

@<SCITEGIC>MOL_PROPERTY
W(SA)
SciTegic.value.DoubleValue
2.487

@<SCITEGIC>MOL_PROPERTY
Valence
SciTegic.value.DoubleValue
7.785

@<SCITEGIC>MOL_PROPERTY
Coulomb
SciTegic.value.DoubleValue
-0.713

@<SCITEGIC>MOL_PROPERTY
VdW
SciTegic.value.DoubleValue
0.744

@<SCITEGIC>MOL_PROPERTY
VdW6
SciTegic.value.DoubleValue
-8.515

@<SCITEGIC>MOL_PROPERTY
VdW12
SciTegic.value.DoubleValue
9.259

@<SCITEGIC>MOL_PROPERTY
Bond
SciTegic.value.DoubleValue
0.136

@<SCITEGIC>MOL_PROPERTY
Angle
SciTegic.value.DoubleValue
2.433

@<SCITEGIC>MOL_PROPERTY
Pdih
SciTegic.value.DoubleValue
5.215

@<SCITEGIC>MOL_PROPERTY
Idih
SciTegic.value.DoubleValue
0.000

@<SCITEGIC>MOL_PROPERTY
Tether
SciTegic.value.DoubleValue
0.000

@<TRIPOS>MOLECULE
guest-8_confgen4.mol2 : confsearch ligand conformer 485
          25          24           1
SMALL
USER_CHARGES
 
@<TRIPOS>ATOM
       1    C1      19.028713   17.028505   20.021932 C.2        1 MOL1         0.6168
       2    O1      18.563792   15.992011   20.453880 O.co2      1 MOL1        -0.6703
       3    O2      18.464209   17.730238   19.205834 O.co2      1 MOL1        -0.6703
       4    C2      20.405003   17.465256   20.516157 C.3        1 MOL1        -0.1963
       5    H1      20.988842   17.762110   19.636965 H          1 MOL1         0.0750
       6    H2      20.911519   16.597253   20.955296 H          1 MOL1         0.0750
       7    C3      20.369643   18.635754   21.533186 C.3        1 MOL1        -0.1860
       8    H3      21.398297   18.976567   21.705005 H          1 MOL1         0.0752
       9    H4      19.823567   19.482331   21.094429 H          1 MOL1         0.0752
      10    C4      19.720195   18.233219   22.879342 C.3        1 MOL1        -0.1858
      11    H5      20.293920   17.417044   23.339206 H          1 MOL1         0.0752
      12    H6      18.714868   17.833768   22.687678 H          1 MOL1         0.0752
      13    C5      19.592282   19.405938   23.881002 C.3        1 MOL1        -0.1858
      14    H7      19.034806   20.229182   23.414027 H          1 MOL1         0.0752
      15    H8      18.986443   19.061714   24.728728 H          1 MOL1         0.0752
      16    C6      20.954936   19.925863   24.402233 C.3        1 MOL1        -0.1858
      17    H9      21.559840   20.277550   23.557082 H          1 MOL1         0.0752
      18    H10     21.514072   19.101096   24.864556 H          1 MOL1         0.0752
      19    C7      20.822638   21.090508   25.411483 C.3        1 MOL1        -0.1834
      20    H11     21.825058   21.487811   25.622549 H          1 MOL1         0.0752
      21    H12     20.252960   21.912755   24.956866 H          1 MOL1         0.0752
      22    C8      20.164100   20.676038   26.745455 C.3        1 MOL1        -0.2849
      23    H13     19.115828   20.385769   26.603064 H          1 MOL1         0.0764
      24    H14     20.697152   19.831483   27.201186 H          1 MOL1         0.0764
      25    H15     20.182685   21.510972   27.457807 H          1 MOL1         0.0764
@<TRIPOS>BOND
    1     1     2    1
    2     1     3    2
    3     1     4    1
    4     4     5    1
    5     4     6    1
    6     4     7    1
    7     7     8    1
    8     7     9    1
    9     7    10    1
   10    10    11    1
   11    10    12    1
   12    10    13    1
   13    13    14    1
   14    13    15    1
   15    13    16    1
   16    16    17    1
   17    16    18    1
   18    16    19    1
   19    19    20    1
   20    19    21    1
   21    19    22    1
   22    22    23    1
   23    22    24    1
   24    22    25    1
@<TRIPOS>SUBSTRUCTURE
       1 MOL1            1 RESIDUE      1      MOL     
@<SCITEGIC>MOL_PROPERTY
VConf Rank
SciTegic.value.IntegerValue
485

@<SCITEGIC>MOL_PROPERTY
Conf_Id
SciTegic.value.IntegerValue
101

@<SCITEGIC>MOL_PROPERTY
Delta U+W
SciTegic.value.DoubleValue
1.534

@<SCITEGIC>MOL_PROPERTY
U+W
SciTegic.value.DoubleValue
-50.095

@<SCITEGIC>MOL_PROPERTY
Grad RMS
SciTegic.value.DoubleValue
0.000000

@<SCITEGIC>MOL_PROPERTY
U
SciTegic.value.DoubleValue
9.416

@<SCITEGIC>MOL_PROPERTY
W
SciTegic.value.DoubleValue
-59.512

@<SCITEGIC>MOL_PROPERTY
W(PB)
SciTegic.value.DoubleValue
-61.988

@<SCITEGIC>MOL_PROPERTY
W(SA)
SciTegic.value.DoubleValue
2.476

@<SCITEGIC>MOL_PROPERTY
Valence
SciTegic.value.DoubleValue
8.939

@<SCITEGIC>MOL_PROPERTY
Coulomb
SciTegic.value.DoubleValue
-0.615

@<SCITEGIC>MOL_PROPERTY
VdW
SciTegic.value.DoubleValue
1.092

@<SCITEGIC>MOL_PROPERTY
VdW6
SciTegic.value.DoubleValue
-9.710

@<SCITEGIC>MOL_PROPERTY
VdW12
SciTegic.value.DoubleValue
10.802

@<SCITEGIC>MOL_PROPERTY
Bond
SciTegic.value.DoubleValue
0.216

@<SCITEGIC>MOL_PROPERTY
Angle
SciTegic.value.DoubleValue
2.979

@<SCITEGIC>MOL_PROPERTY
Pdih
SciTegic.value.DoubleValue
5.743

@<SCITEGIC>MOL_PROPERTY
Idih
SciTegic.value.DoubleValue
0.000

@<SCITEGIC>MOL_PROPERTY
Tether
SciTegic.value.DoubleValue
0.000

@<TRIPOS>MOLECULE
guest-8_confgen4.mol2 : confsearch ligand conformer 486
          25          24           1
SMALL
USER_CHARGES
 
@<TRIPOS>ATOM
       1    C1      21.044080   23.275919   23.304175 C.2        1 MOL1         0.6168
       2    O1      21.213625   23.619830   22.151042 O.co2      1 MOL1        -0.6703
       3    O2      20.790627   24.049137   24.206767 O.co2      1 MOL1        -0.6703
       4    C2      21.131837   21.789832   23.632828 C.3        1 MOL1        -0.1963
       5    H1      21.510882   21.690038   24.656891 H          1 MOL1         0.0750
       6    H2      21.877638   21.345262   22.964622 H          1 MOL1         0.0750
       7    C3      19.768280   21.063940   23.493729 C.3        1 MOL1        -0.1860
       8    H3      19.023616   21.596611   24.101317 H          1 MOL1         0.0752
       9    H4      19.421891   21.128138   22.452963 H          1 MOL1         0.0752
      10    C4      19.804033   19.583415   23.942589 C.3        1 MOL1        -0.1858
      11    H5      18.773930   19.204764   23.942312 H          1 MOL1         0.0752
      12    H6      20.159834   19.520970   24.979929 H          1 MOL1         0.0752
      13    C5      20.679469   18.685659   23.033992 C.3        1 MOL1        -0.1858
      14    H7      20.323444   18.747425   21.997437 H          1 MOL1         0.0752
      15    H8      21.708130   19.067113   23.025761 H          1 MOL1         0.0752
      16    C6      20.727999   17.204965   23.489564 C.3        1 MOL1        -0.1858
      17    H9      21.167711   17.156790   24.495053 H          1 MOL1         0.0752
      18    H10     21.417345   16.658468   22.831679 H          1 MOL1         0.0752
      19    C7      19.366132   16.467040   23.505216 C.3        1 MOL1        -0.1834
      20    H11     19.532003   15.436083   23.846770 H          1 MOL1         0.0752
      21    H12     18.694319   16.924898   24.243034 H          1 MOL1         0.0752
      22    C8      18.674996   16.427126   22.125115 C.3        1 MOL1        -0.2849
      23    H13     19.338861   15.994400   21.365504 H          1 MOL1         0.0764
      24    H14     17.765162   15.814684   22.168505 H          1 MOL1         0.0764
      25    H15     18.383459   17.432615   21.796366 H          1 MOL1         0.0764
@<TRIPOS>BOND
    1     1     2    1
    2     1     3    2
    3     1     4    1
    4     4     5    1
    5     4     6    1
    6     4     7    1
    7     7     8    1
    8     7     9    1
    9     7    10    1
   10    10    11    1
   11    10    12    1
   12    10    13    1
   13    13    14    1
   14    13    15    1
   15    13    16    1
   16    16    17    1
   17    16    18    1
   18    16    19    1
   19    19    20    1
   20    19    21    1
   21    19    22    1
   22    22    23    1
   23    22    24    1
   24    22    25    1
@<TRIPOS>SUBSTRUCTURE
       1 MOL1            1 RESIDUE      1      MOL     
@<SCITEGIC>MOL_PROPERTY
VConf Rank
SciTegic.value.IntegerValue
486

@<SCITEGIC>MOL_PROPERTY
Conf_Id
SciTegic.value.IntegerValue
75

@<SCITEGIC>MOL_PROPERTY
Delta U+W
SciTegic.value.DoubleValue
1.014

@<SCITEGIC>MOL_PROPERTY
U+W
SciTegic.value.DoubleValue
-50.615

@<SCITEGIC>MOL_PROPERTY
Grad RMS
SciTegic.value.DoubleValue
0.000000

@<SCITEGIC>MOL_PROPERTY
U
SciTegic.value.DoubleValue
8.474

@<SCITEGIC>MOL_PROPERTY
W
SciTegic.value.DoubleValue
-59.089

@<SCITEGIC>MOL_PROPERTY
W(PB)
SciTegic.value.DoubleValue
-61.530

@<SCITEGIC>MOL_PROPERTY
W(SA)
SciTegic.value.DoubleValue
2.441

@<SCITEGIC>MOL_PROPERTY
Valence
SciTegic.value.DoubleValue
9.080

@<SCITEGIC>MOL_PROPERTY
Coulomb
SciTegic.value.DoubleValue
-1.772

@<SCITEGIC>MOL_PROPERTY
VdW
SciTegic.value.DoubleValue
1.165

@<SCITEGIC>MOL_PROPERTY
VdW6
SciTegic.value.DoubleValue
-9.830

@<SCITEGIC>MOL_PROPERTY
VdW12
SciTegic.value.DoubleValue
10.996

@<SCITEGIC>MOL_PROPERTY
Bond
SciTegic.value.DoubleValue
0.240

@<SCITEGIC>MOL_PROPERTY
Angle
SciTegic.value.DoubleValue
3.225

@<SCITEGIC>MOL_PROPERTY
Pdih
SciTegic.value.DoubleValue
5.615

@<SCITEGIC>MOL_PROPERTY
Idih
SciTegic.value.DoubleValue
0.001

@<SCITEGIC>MOL_PROPERTY
Tether
SciTegic.value.DoubleValue
0.000

@<TRIPOS>MOLECULE
guest-8_confgen4.mol2 : confsearch ligand conformer 487
          25          24           1
SMALL
USER_CHARGES
 
@<TRIPOS>ATOM
       1    C1      21.721543   23.083918   23.216651 C.2        1 MOL1         0.6168
       2    O1      21.245589   23.678631   22.269848 O.co2      1 MOL1        -0.6703
       3    O2      22.144499   23.634396   24.214023 O.co2      1 MOL1        -0.6703
       4    C2      21.771277   21.561325   23.159055 C.3        1 MOL1        -0.1963
       5    H1      22.656559   21.228112   23.713859 H          1 MOL1         0.0750
       6    H2      21.913342   21.264493   22.112960 H          1 MOL1         0.0750
       7    C3      20.497323   20.895636   23.735233 C.3        1 MOL1        -0.1860
       8    H3      20.362048   21.212864   24.778575 H          1 MOL1         0.0752
       9    H4      19.619192   21.249747   23.177537 H          1 MOL1         0.0752
      10    C4      20.571338   19.354981   23.664136 C.3        1 MOL1        -0.1858
      11    H5      21.450616   19.005671   24.222405 H          1 MOL1         0.0752
      12    H6      20.717727   19.046834   22.622105 H          1 MOL1         0.0752
      13    C5      19.299319   18.694792   24.246249 C.3        1 MOL1        -0.1858
      14    H7      19.205195   19.001593   25.296930 H          1 MOL1         0.0752
      15    H8      18.403625   19.073653   23.735351 H          1 MOL1         0.0752
      16    C6      19.329163   17.146211   24.187677 C.3        1 MOL1        -0.1858
      17    H9      18.835568   16.760994   25.090362 H          1 MOL1         0.0752
      18    H10     20.364743   16.782790   24.235998 H          1 MOL1         0.0752
      19    C7      18.606225   16.531329   22.963674 C.3        1 MOL1        -0.1834
      20    H11     18.617838   15.437399   23.065429 H          1 MOL1         0.0752
      21    H12     17.548699   16.829311   22.972826 H          1 MOL1         0.0752
      22    C8      19.232075   16.907694   21.604618 C.3        1 MOL1        -0.2849
      23    H13     20.306255   16.682163   21.589283 H          1 MOL1         0.0764
      24    H14     18.755559   16.342879   20.793033 H          1 MOL1         0.0764
      25    H15     19.095863   17.974633   21.388482 H          1 MOL1         0.0764
@<TRIPOS>BOND
    1     1     2    1
    2     1     3    2
    3     1     4    1
    4     4     5    1
    5     4     6    1
    6     4     7    1
    7     7     8    1
    8     7     9    1
    9     7    10    1
   10    10    11    1
   11    10    12    1
   12    10    13    1
   13    13    14    1
   14    13    15    1
   15    13    16    1
   16    16    17    1
   17    16    18    1
   18    16    19    1
   19    19    20    1
   20    19    21    1
   21    19    22    1
   22    22    23    1
   23    22    24    1
   24    22    25    1
@<TRIPOS>SUBSTRUCTURE
       1 MOL1            1 RESIDUE      1      MOL     
@<SCITEGIC>MOL_PROPERTY
VConf Rank
SciTegic.value.IntegerValue
487

@<SCITEGIC>MOL_PROPERTY
Conf_Id
SciTegic.value.IntegerValue
125

@<SCITEGIC>MOL_PROPERTY
Delta U+W
SciTegic.value.DoubleValue
2.314

@<SCITEGIC>MOL_PROPERTY
U+W
SciTegic.value.DoubleValue
-49.315

@<SCITEGIC>MOL_PROPERTY
Grad RMS
SciTegic.value.DoubleValue
0.000000

@<SCITEGIC>MOL_PROPERTY
U
SciTegic.value.DoubleValue
9.740

@<SCITEGIC>MOL_PROPERTY
W
SciTegic.value.DoubleValue
-59.054

@<SCITEGIC>MOL_PROPERTY
W(PB)
SciTegic.value.DoubleValue
-61.488

@<SCITEGIC>MOL_PROPERTY
W(SA)
SciTegic.value.DoubleValue
2.433

@<SCITEGIC>MOL_PROPERTY
Valence
SciTegic.value.DoubleValue
10.506

@<SCITEGIC>MOL_PROPERTY
Coulomb
SciTegic.value.DoubleValue
-1.761

@<SCITEGIC>MOL_PROPERTY
VdW
SciTegic.value.DoubleValue
0.994

@<SCITEGIC>MOL_PROPERTY
VdW6
SciTegic.value.DoubleValue
-9.209

@<SCITEGIC>MOL_PROPERTY
VdW12
SciTegic.value.DoubleValue
10.203

@<SCITEGIC>MOL_PROPERTY
Bond
SciTegic.value.DoubleValue
0.193

@<SCITEGIC>MOL_PROPERTY
Angle
SciTegic.value.DoubleValue
2.979

@<SCITEGIC>MOL_PROPERTY
Pdih
SciTegic.value.DoubleValue
7.334

@<SCITEGIC>MOL_PROPERTY
Idih
SciTegic.value.DoubleValue
0.001

@<SCITEGIC>MOL_PROPERTY
Tether
SciTegic.value.DoubleValue
0.000

@<TRIPOS>MOLECULE
guest-8_confgen4.mol2 : confsearch ligand conformer 488
          25          24           1
SMALL
USER_CHARGES
 
@<TRIPOS>ATOM
       1    C1      16.388183   20.320774   24.529234 C.2        1 MOL1         0.6168
       2    O1      16.421353   21.535501   24.534878 O.co2      1 MOL1        -0.6703
       3    O2      15.456933   19.670819   24.961755 O.co2      1 MOL1        -0.6703
       4    C2      17.591760   19.570105   23.970738 C.3        1 MOL1        -0.1963
       5    H1      18.014199   20.174585   23.160264 H          1 MOL1         0.0750
       6    H2      17.232587   18.634271   23.526256 H          1 MOL1         0.0750
       7    C3      18.666097   19.272878   25.049023 C.3        1 MOL1        -0.1860
       8    H3      19.051680   20.219035   25.453302 H          1 MOL1         0.0752
       9    H4      18.187670   18.749263   25.888297 H          1 MOL1         0.0752
      10    C4      19.840184   18.408710   24.530482 C.3        1 MOL1        -0.1858
      11    H5      19.452367   17.459588   24.135846 H          1 MOL1         0.0752
      12    H6      20.484977   18.151038   25.381809 H          1 MOL1         0.0752
      13    C5      20.691647   19.113150   23.448831 C.3        1 MOL1        -0.1858
      14    H7      20.072034   19.313643   22.566499 H          1 MOL1         0.0752
      15    H8      21.036934   20.084329   23.828504 H          1 MOL1         0.0752
      16    C6      21.911601   18.256648   23.037346 C.3        1 MOL1        -0.1858
      17    H9      21.568007   17.303123   22.613526 H          1 MOL1         0.0752
      18    H10     22.492602   18.006486   23.935511 H          1 MOL1         0.0752
      19    C7      22.847638   18.963369   22.029280 C.3        1 MOL1        -0.1834
      20    H11     23.197587   19.915168   22.452269 H          1 MOL1         0.0752
      21    H12     23.741680   18.341620   21.883185 H          1 MOL1         0.0752
      22    C8      22.188715   19.216325   20.655810 C.3        1 MOL1        -0.2849
      23    H13     21.358174   19.928822   20.734778 H          1 MOL1         0.0764
      24    H14     22.918939   19.634774   19.951133 H          1 MOL1         0.0764
      25    H15     21.802403   18.282385   20.227294 H          1 MOL1         0.0764
@<TRIPOS>BOND
    1     1     2    1
    2     1     3    2
    3     1     4    1
    4     4     5    1
    5     4     6    1
    6     4     7    1
    7     7     8    1
    8     7     9    1
    9     7    10    1
   10    10    11    1
   11    10    12    1
   12    10    13    1
   13    13    14    1
   14    13    15    1
   15    13    16    1
   16    16    17    1
   17    16    18    1
   18    16    19    1
   19    19    20    1
   20    19    21    1
   21    19    22    1
   22    22    23    1
   23    22    24    1
   24    22    25    1
@<TRIPOS>SUBSTRUCTURE
       1 MOL1            1 RESIDUE      1      MOL     
@<SCITEGIC>MOL_PROPERTY
VConf Rank
SciTegic.value.IntegerValue
488

@<SCITEGIC>MOL_PROPERTY
Conf_Id
SciTegic.value.IntegerValue
4

@<SCITEGIC>MOL_PROPERTY
Delta U+W
SciTegic.value.DoubleValue
0.189

@<SCITEGIC>MOL_PROPERTY
U+W
SciTegic.value.DoubleValue
-51.441

@<SCITEGIC>MOL_PROPERTY
Grad RMS
SciTegic.value.DoubleValue
0.000000

@<SCITEGIC>MOL_PROPERTY
U
SciTegic.value.DoubleValue
7.701

@<SCITEGIC>MOL_PROPERTY
W
SciTegic.value.DoubleValue
-59.141

@<SCITEGIC>MOL_PROPERTY
W(PB)
SciTegic.value.DoubleValue
-61.609

@<SCITEGIC>MOL_PROPERTY
W(SA)
SciTegic.value.DoubleValue
2.467

@<SCITEGIC>MOL_PROPERTY
Valence
SciTegic.value.DoubleValue
8.550

@<SCITEGIC>MOL_PROPERTY
Coulomb
SciTegic.value.DoubleValue
-1.988

@<SCITEGIC>MOL_PROPERTY
VdW
SciTegic.value.DoubleValue
1.139

@<SCITEGIC>MOL_PROPERTY
VdW6
SciTegic.value.DoubleValue
-8.988

@<SCITEGIC>MOL_PROPERTY
VdW12
SciTegic.value.DoubleValue
10.127

@<SCITEGIC>MOL_PROPERTY
Bond
SciTegic.value.DoubleValue
0.191

@<SCITEGIC>MOL_PROPERTY
Angle
SciTegic.value.DoubleValue
2.738

@<SCITEGIC>MOL_PROPERTY
Pdih
SciTegic.value.DoubleValue
5.621

@<SCITEGIC>MOL_PROPERTY
Idih
SciTegic.value.DoubleValue
0.001

@<SCITEGIC>MOL_PROPERTY
Tether
SciTegic.value.DoubleValue
0.000

@<TRIPOS>MOLECULE
guest-8_confgen4.mol2 : confsearch ligand conformer 489
          25          24           1
SMALL
USER_CHARGES
 
@<TRIPOS>ATOM
       1    C1      18.574633   20.230371   19.617441 C.2        1 MOL1         0.6168
       2    O1      18.638069   19.214636   18.953398 O.co2      1 MOL1        -0.6703
       3    O2      18.033600   21.250105   19.237749 O.co2      1 MOL1        -0.6703
       4    C2      19.187049   20.217516   21.013437 C.3        1 MOL1        -0.1963
       5    H1      19.549018   21.228500   21.235350 H          1 MOL1         0.0750
       6    H2      20.061001   19.557024   20.987366 H          1 MOL1         0.0750
       7    C3      18.184875   19.756439   22.103526 C.3        1 MOL1        -0.1860
       8    H3      17.282096   20.379507   22.038550 H          1 MOL1         0.0752
       9    H4      17.865707   18.725704   21.896048 H          1 MOL1         0.0752
      10    C4      18.748868   19.849800   23.541355 C.3        1 MOL1        -0.1858
      11    H5      17.939916   19.619235   24.247999 H          1 MOL1         0.0752
      12    H6      19.057872   20.883397   23.749119 H          1 MOL1         0.0752
      13    C5      19.933285   18.890165   23.801074 C.3        1 MOL1        -0.1858
      14    H7      19.637012   17.863872   23.545131 H          1 MOL1         0.0752
      15    H8      20.772047   19.156379   23.146677 H          1 MOL1         0.0752
      16    C6      20.394726   18.941403   25.276082 C.3        1 MOL1        -0.1858
      17    H9      19.534366   18.736087   25.927596 H          1 MOL1         0.0752
      18    H10     20.735852   19.956349   25.521855 H          1 MOL1         0.0752
      19    C7      21.513117   17.925611   25.606517 C.3        1 MOL1        -0.1834
      20    H11     21.696787   17.943916   26.689641 H          1 MOL1         0.0752
      21    H12     21.173306   16.908578   25.366768 H          1 MOL1         0.0752
      22    C8      22.840352   18.216385   24.872701 C.3        1 MOL1        -0.2849
      23    H13     23.183710   19.239804   25.072268 H          1 MOL1         0.0764
      24    H14     23.624133   17.525396   25.209029 H          1 MOL1         0.0764
      25    H15     22.733668   18.094004   23.787654 H          1 MOL1         0.0764
@<TRIPOS>BOND
    1     1     2    1
    2     1     3    2
    3     1     4    1
    4     4     5    1
    5     4     6    1
    6     4     7    1
    7     7     8    1
    8     7     9    1
    9     7    10    1
   10    10    11    1
   11    10    12    1
   12    10    13    1
   13    13    14    1
   14    13    15    1
   15    13    16    1
   16    16    17    1
   17    16    18    1
   18    16    19    1
   19    19    20    1
   20    19    21    1
   21    19    22    1
   22    22    23    1
   23    22    24    1
   24    22    25    1
@<TRIPOS>SUBSTRUCTURE
       1 MOL1            1 RESIDUE      1      MOL     
@<SCITEGIC>MOL_PROPERTY
VConf Rank
SciTegic.value.IntegerValue
489

@<SCITEGIC>MOL_PROPERTY
Conf_Id
SciTegic.value.IntegerValue
17

@<SCITEGIC>MOL_PROPERTY
Delta U+W
SciTegic.value.DoubleValue
0.219

@<SCITEGIC>MOL_PROPERTY
U+W
SciTegic.value.DoubleValue
-51.411

@<SCITEGIC>MOL_PROPERTY
Grad RMS
SciTegic.value.DoubleValue
0.000000

@<SCITEGIC>MOL_PROPERTY
U
SciTegic.value.DoubleValue
7.701

@<SCITEGIC>MOL_PROPERTY
W
SciTegic.value.DoubleValue
-59.111

@<SCITEGIC>MOL_PROPERTY
W(PB)
SciTegic.value.DoubleValue
-61.599

@<SCITEGIC>MOL_PROPERTY
W(SA)
SciTegic.value.DoubleValue
2.488

@<SCITEGIC>MOL_PROPERTY
Valence
SciTegic.value.DoubleValue
8.550

@<SCITEGIC>MOL_PROPERTY
Coulomb
SciTegic.value.DoubleValue
-1.988

@<SCITEGIC>MOL_PROPERTY
VdW
SciTegic.value.DoubleValue
1.139

@<SCITEGIC>MOL_PROPERTY
VdW6
SciTegic.value.DoubleValue
-8.988

@<SCITEGIC>MOL_PROPERTY
VdW12
SciTegic.value.DoubleValue
10.127

@<SCITEGIC>MOL_PROPERTY
Bond
SciTegic.value.DoubleValue
0.191

@<SCITEGIC>MOL_PROPERTY
Angle
SciTegic.value.DoubleValue
2.738

@<SCITEGIC>MOL_PROPERTY
Pdih
SciTegic.value.DoubleValue
5.621

@<SCITEGIC>MOL_PROPERTY
Idih
SciTegic.value.DoubleValue
0.001

@<SCITEGIC>MOL_PROPERTY
Tether
SciTegic.value.DoubleValue
0.000

@<TRIPOS>MOLECULE
guest-8_confgen4.mol2 : confsearch ligand conformer 490
          25          24           1
SMALL
USER_CHARGES
 
@<TRIPOS>ATOM
       1    C1      23.434159   20.295612   22.171263 C.2        1 MOL1         0.6168
       2    O1      23.996950   19.332080   21.689669 O.co2      1 MOL1        -0.6703
       3    O2      23.822476   20.873015   23.167703 O.co2      1 MOL1        -0.6703
       4    C2      22.181609   20.823074   21.477121 C.3        1 MOL1        -0.1963
       5    H1      22.170912   20.452129   20.445104 H          1 MOL1         0.0750
       6    H2      22.272053   21.914252   21.421119 H          1 MOL1         0.0750
       7    C3      20.859328   20.448870   22.195760 C.3        1 MOL1        -0.1860
       8    H3      20.901895   20.813311   23.230670 H          1 MOL1         0.0752
       9    H4      20.027073   20.973695   21.707728 H          1 MOL1         0.0752
      10    C4      20.585183   18.925982   22.175550 C.3        1 MOL1        -0.1858
      11    H5      21.377114   18.396904   22.723494 H          1 MOL1         0.0752
      12    H6      20.635186   18.568030   21.138142 H          1 MOL1         0.0752
      13    C5      19.206602   18.540296   22.762478 C.3        1 MOL1        -0.1858
      14    H7      18.412539   19.061356   22.210383 H          1 MOL1         0.0752
      15    H8      19.046593   17.466117   22.596958 H          1 MOL1         0.0752
      16    C6      19.074734   18.840667   24.273577 C.3        1 MOL1        -0.1858
      17    H9      19.156839   19.921051   24.449522 H          1 MOL1         0.0752
      18    H10     19.902096   18.363276   24.816223 H          1 MOL1         0.0752
      19    C7      17.729724   18.338396   24.839631 C.3        1 MOL1        -0.1834
      20    H11     16.899890   18.812774   24.297597 H          1 MOL1         0.0752
      21    H12     17.639934   17.255427   24.676725 H          1 MOL1         0.0752
      22    C8      17.598160   18.641957   26.345707 C.3        1 MOL1        -0.2849
      23    H13     17.652080   19.722090   26.534883 H          1 MOL1         0.0764
      24    H14     16.636977   18.277940   26.731291 H          1 MOL1         0.0764
      25    H15     18.399096   18.153630   26.916160 H          1 MOL1         0.0764
@<TRIPOS>BOND
    1     1     2    1
    2     1     3    2
    3     1     4    1
    4     4     5    1
    5     4     6    1
    6     4     7    1
    7     7     8    1
    8     7     9    1
    9     7    10    1
   10    10    11    1
   11    10    12    1
   12    10    13    1
   13    13    14    1
   14    13    15    1
   15    13    16    1
   16    16    17    1
   17    16    18    1
   18    16    19    1
   19    19    20    1
   20    19    21    1
   21    19    22    1
   22    22    23    1
   23    22    24    1
   24    22    25    1
@<TRIPOS>SUBSTRUCTURE
       1 MOL1            1 RESIDUE      1      MOL     
@<SCITEGIC>MOL_PROPERTY
VConf Rank
SciTegic.value.IntegerValue
490

@<SCITEGIC>MOL_PROPERTY
Conf_Id
SciTegic.value.IntegerValue
142

@<SCITEGIC>MOL_PROPERTY
Delta U+W
SciTegic.value.DoubleValue
0.593

@<SCITEGIC>MOL_PROPERTY
U+W
SciTegic.value.DoubleValue
-51.037

@<SCITEGIC>MOL_PROPERTY
Grad RMS
SciTegic.value.DoubleValue
0.000000

@<SCITEGIC>MOL_PROPERTY
U
SciTegic.value.DoubleValue
8.903

@<SCITEGIC>MOL_PROPERTY
W
SciTegic.value.DoubleValue
-59.940

@<SCITEGIC>MOL_PROPERTY
W(PB)
SciTegic.value.DoubleValue
-62.418

@<SCITEGIC>MOL_PROPERTY
W(SA)
SciTegic.value.DoubleValue
2.478

@<SCITEGIC>MOL_PROPERTY
Valence
SciTegic.value.DoubleValue
8.305

@<SCITEGIC>MOL_PROPERTY
Coulomb
SciTegic.value.DoubleValue
-0.223

@<SCITEGIC>MOL_PROPERTY
VdW
SciTegic.value.DoubleValue
0.821

@<SCITEGIC>MOL_PROPERTY
VdW6
SciTegic.value.DoubleValue
-9.236

@<SCITEGIC>MOL_PROPERTY
VdW12
SciTegic.value.DoubleValue
10.057

@<SCITEGIC>MOL_PROPERTY
Bond
SciTegic.value.DoubleValue
0.173

@<SCITEGIC>MOL_PROPERTY
Angle
SciTegic.value.DoubleValue
2.663

@<SCITEGIC>MOL_PROPERTY
Pdih
SciTegic.value.DoubleValue
5.469

@<SCITEGIC>MOL_PROPERTY
Idih
SciTegic.value.DoubleValue
0.001

@<SCITEGIC>MOL_PROPERTY
Tether
SciTegic.value.DoubleValue
0.000

@<TRIPOS>MOLECULE
guest-8_confgen4.mol2 : confsearch ligand conformer 491
          25          24           1
SMALL
USER_CHARGES
 
@<TRIPOS>ATOM
       1    C1      21.795837   20.378791   20.492263 C.2        1 MOL1         0.6168
       2    O1      21.768459   21.358618   19.773411 O.co2      1 MOL1        -0.6703
       3    O2      22.821969   19.823893   20.833141 O.co2      1 MOL1        -0.6703
       4    C2      20.466600   19.799795   20.968527 C.3        1 MOL1        -0.1963
       5    H1      20.642245   18.790286   21.357551 H          1 MOL1         0.0750
       6    H2      19.825730   19.685583   20.086620 H          1 MOL1         0.0750
       7    C3      19.736790   20.673417   22.025076 C.3        1 MOL1        -0.1860
       8    H3      19.515512   21.653022   21.579445 H          1 MOL1         0.0752
       9    H4      18.763407   20.222357   22.257281 H          1 MOL1         0.0752
      10    C4      20.535523   20.894561   23.335710 C.3        1 MOL1        -0.1858
      11    H5      19.939943   21.525458   24.009394 H          1 MOL1         0.0752
      12    H6      21.443428   21.469947   23.108279 H          1 MOL1         0.0752
      13    C5      20.943779   19.603173   24.088021 C.3        1 MOL1        -0.1858
      14    H7      21.632257   19.012297   23.469136 H          1 MOL1         0.0752
      15    H8      21.512168   19.890428   24.982980 H          1 MOL1         0.0752
      16    C6      19.741273   18.730119   24.515130 C.3        1 MOL1        -0.1858
      17    H9      19.204054   18.374354   23.626350 H          1 MOL1         0.0752
      18    H10     19.034575   19.337733   25.096557 H          1 MOL1         0.0752
      19    C7      20.188494   17.514467   25.353950 C.3        1 MOL1        -0.1834
      20    H11     20.897645   16.906661   24.775025 H          1 MOL1         0.0752
      21    H12     20.721169   17.858738   26.251228 H          1 MOL1         0.0752
      22    C8      18.988810   16.641514   25.773954 C.3        1 MOL1        -0.2849
      23    H13     18.456098   16.256768   24.894434 H          1 MOL1         0.0764
      24    H14     19.324882   15.782595   26.369225 H          1 MOL1         0.0764
      25    H15     18.277697   17.217187   26.380808 H          1 MOL1         0.0764
@<TRIPOS>BOND
    1     1     2    1
    2     1     3    2
    3     1     4    1
    4     4     5    1
    5     4     6    1
    6     4     7    1
    7     7     8    1
    8     7     9    1
    9     7    10    1
   10    10    11    1
   11    10    12    1
   12    10    13    1
   13    13    14    1
   14    13    15    1
   15    13    16    1
   16    16    17    1
   17    16    18    1
   18    16    19    1
   19    19    20    1
   20    19    21    1
   21    19    22    1
   22    22    23    1
   23    22    24    1
   24    22    25    1
@<TRIPOS>SUBSTRUCTURE
       1 MOL1            1 RESIDUE      1      MOL     
@<SCITEGIC>MOL_PROPERTY
VConf Rank
SciTegic.value.IntegerValue
491

@<SCITEGIC>MOL_PROPERTY
Conf_Id
SciTegic.value.IntegerValue
135

@<SCITEGIC>MOL_PROPERTY
Delta U+W
SciTegic.value.DoubleValue
1.314

@<SCITEGIC>MOL_PROPERTY
U+W
SciTegic.value.DoubleValue
-50.316

@<SCITEGIC>MOL_PROPERTY
Grad RMS
SciTegic.value.DoubleValue
0.000000

@<SCITEGIC>MOL_PROPERTY
U
SciTegic.value.DoubleValue
9.773

@<SCITEGIC>MOL_PROPERTY
W
SciTegic.value.DoubleValue
-60.088

@<SCITEGIC>MOL_PROPERTY
W(PB)
SciTegic.value.DoubleValue
-62.535

@<SCITEGIC>MOL_PROPERTY
W(SA)
SciTegic.value.DoubleValue
2.447

@<SCITEGIC>MOL_PROPERTY
Valence
SciTegic.value.DoubleValue
8.741

@<SCITEGIC>MOL_PROPERTY
Coulomb
SciTegic.value.DoubleValue
0.479

@<SCITEGIC>MOL_PROPERTY
VdW
SciTegic.value.DoubleValue
0.552

@<SCITEGIC>MOL_PROPERTY
VdW6
SciTegic.value.DoubleValue
-10.627

@<SCITEGIC>MOL_PROPERTY
VdW12
SciTegic.value.DoubleValue
11.179

@<SCITEGIC>MOL_PROPERTY
Bond
SciTegic.value.DoubleValue
0.227

@<SCITEGIC>MOL_PROPERTY
Angle
SciTegic.value.DoubleValue
3.155

@<SCITEGIC>MOL_PROPERTY
Pdih
SciTegic.value.DoubleValue
5.358

@<SCITEGIC>MOL_PROPERTY
Idih
SciTegic.value.DoubleValue
0.001

@<SCITEGIC>MOL_PROPERTY
Tether
SciTegic.value.DoubleValue
0.000

@<TRIPOS>MOLECULE
guest-8_confgen4.mol2 : confsearch ligand conformer 492
          25          24           1
SMALL
USER_CHARGES
 
@<TRIPOS>ATOM
       1    C1      17.725806   22.119217   25.162660 C.2        1 MOL1         0.6168
       2    O1      16.579549   22.153520   24.760593 O.co2      1 MOL1        -0.6703
       3    O2      18.079212   22.582989   26.228864 O.co2      1 MOL1        -0.6703
       4    C2      18.774369   21.436547   24.291650 C.3        1 MOL1        -0.1963
       5    H1      19.734774   21.938112   24.460180 H          1 MOL1         0.0750
       6    H2      18.497995   21.605755   23.245152 H          1 MOL1         0.0750
       7    C3      18.903755   19.919543   24.587939 C.3        1 MOL1        -0.1860
       8    H3      19.084094   19.787286   25.663779 H          1 MOL1         0.0752
       9    H4      17.950273   19.418866   24.370052 H          1 MOL1         0.0752
      10    C4      20.048285   19.229390   23.807764 C.3        1 MOL1        -0.1858
      11    H5      20.155713   18.210190   24.199784 H          1 MOL1         0.0752
      12    H6      20.996342   19.747023   24.007318 H          1 MOL1         0.0752
      13    C5      19.799302   19.158208   22.282181 C.3        1 MOL1        -0.1858
      14    H7      18.880452   18.588041   22.089259 H          1 MOL1         0.0752
      15    H8      19.623315   20.168035   21.891344 H          1 MOL1         0.0752
      16    C6      20.968399   18.537480   21.476342 C.3        1 MOL1        -0.1858
      17    H9      21.870764   19.154175   21.587386 H          1 MOL1         0.0752
      18    H10     20.700550   18.590876   20.412256 H          1 MOL1         0.0752
      19    C7      21.282446   17.059859   21.820161 C.3        1 MOL1        -0.1834
      20    H11     20.384166   16.558878   22.206616 H          1 MOL1         0.0752
      21    H12     21.550993   16.532756   20.894231 H          1 MOL1         0.0752
      22    C8      22.453805   16.903483   22.815515 C.3        1 MOL1        -0.2849
      23    H13     22.247775   17.401323   23.769887 H          1 MOL1         0.0764
      24    H14     22.641480   15.842327   23.024159 H          1 MOL1         0.0764
      25    H15     23.376100   17.332499   22.402719 H          1 MOL1         0.0764
@<TRIPOS>BOND
    1     1     2    1
    2     1     3    2
    3     1     4    1
    4     4     5    1
    5     4     6    1
    6     4     7    1
    7     7     8    1
    8     7     9    1
    9     7    10    1
   10    10    11    1
   11    10    12    1
   12    10    13    1
   13    13    14    1
   14    13    15    1
   15    13    16    1
   16    16    17    1
   17    16    18    1
   18    16    19    1
   19    19    20    1
   20    19    21    1
   21    19    22    1
   22    22    23    1
   23    22    24    1
   24    22    25    1
@<TRIPOS>SUBSTRUCTURE
       1 MOL1            1 RESIDUE      1      MOL     
@<SCITEGIC>MOL_PROPERTY
VConf Rank
SciTegic.value.IntegerValue
492

@<SCITEGIC>MOL_PROPERTY
Conf_Id
SciTegic.value.IntegerValue
19

@<SCITEGIC>MOL_PROPERTY
Delta U+W
SciTegic.value.DoubleValue
3.222

@<SCITEGIC>MOL_PROPERTY
U+W
SciTegic.value.DoubleValue
-48.407

@<SCITEGIC>MOL_PROPERTY
Grad RMS
SciTegic.value.DoubleValue
0.000000

@<SCITEGIC>MOL_PROPERTY
U
SciTegic.value.DoubleValue
10.617

@<SCITEGIC>MOL_PROPERTY
W
SciTegic.value.DoubleValue
-59.025

@<SCITEGIC>MOL_PROPERTY
W(PB)
SciTegic.value.DoubleValue
-61.462

@<SCITEGIC>MOL_PROPERTY
W(SA)
SciTegic.value.DoubleValue
2.437

@<SCITEGIC>MOL_PROPERTY
Valence
SciTegic.value.DoubleValue
11.188

@<SCITEGIC>MOL_PROPERTY
Coulomb
SciTegic.value.DoubleValue
-1.778

@<SCITEGIC>MOL_PROPERTY
VdW
SciTegic.value.DoubleValue
1.208

@<SCITEGIC>MOL_PROPERTY
VdW6
SciTegic.value.DoubleValue
-9.786

@<SCITEGIC>MOL_PROPERTY
VdW12
SciTegic.value.DoubleValue
10.993

@<SCITEGIC>MOL_PROPERTY
Bond
SciTegic.value.DoubleValue
0.241

@<SCITEGIC>MOL_PROPERTY
Angle
SciTegic.value.DoubleValue
3.294

@<SCITEGIC>MOL_PROPERTY
Pdih
SciTegic.value.DoubleValue
7.653

@<SCITEGIC>MOL_PROPERTY
Idih
SciTegic.value.DoubleValue
0.001

@<SCITEGIC>MOL_PROPERTY
Tether
SciTegic.value.DoubleValue
0.000

@<TRIPOS>MOLECULE
guest-8_confgen4.mol2 : confsearch ligand conformer 493
          25          24           1
SMALL
USER_CHARGES
 
@<TRIPOS>ATOM
       1    C1      19.350474   20.528529   27.186317 C.2        1 MOL1         0.6168
       2    O1      20.208992   21.272435   27.617933 O.co2      1 MOL1        -0.6703
       3    O2      18.567388   19.923574   27.891706 O.co2      1 MOL1        -0.6703
       4    C2      19.266069   20.324762   25.677828 C.3        1 MOL1        -0.1963
       5    H1      19.556990   21.266089   25.198827 H          1 MOL1         0.0750
       6    H2      18.217197   20.137779   25.418498 H          1 MOL1         0.0750
       7    C3      20.156687   19.156339   25.180418 C.3        1 MOL1        -0.1860
       8    H3      21.210235   19.375786   25.402143 H          1 MOL1         0.0752
       9    H4      19.901425   18.253662   25.752660 H          1 MOL1         0.0752
      10    C4      19.991766   18.847422   23.673000 C.3        1 MOL1        -0.1858
      11    H5      18.934109   18.653100   23.448989 H          1 MOL1         0.0752
      12    H6      20.536302   17.919317   23.458317 H          1 MOL1         0.0752
      13    C5      20.526661   19.969476   22.751399 C.3        1 MOL1        -0.1858
      14    H7      20.036109   20.917533   23.004427 H          1 MOL1         0.0752
      15    H8      21.598643   20.116381   22.940790 H          1 MOL1         0.0752
      16    C6      20.302215   19.710715   21.240061 C.3        1 MOL1        -0.1858
      17    H9      20.670320   20.591476   20.696343 H          1 MOL1         0.0752
      18    H10     19.226545   19.655546   21.023735 H          1 MOL1         0.0752
      19    C7      21.027140   18.461397   20.679804 C.3        1 MOL1        -0.1834
      20    H11     21.391347   18.690044   19.668679 H          1 MOL1         0.0752
      21    H12     21.918592   18.235878   21.281210 H          1 MOL1         0.0752
      22    C8      20.113393   17.218817   20.588557 C.3        1 MOL1        -0.2849
      23    H13     19.260032   17.410299   19.925087 H          1 MOL1         0.0764
      24    H14     20.668245   16.362973   20.182999 H          1 MOL1         0.0764
      25    H15     19.719771   16.928643   21.569362 H          1 MOL1         0.0764
@<TRIPOS>BOND
    1     1     2    1
    2     1     3    2
    3     1     4    1
    4     4     5    1
    5     4     6    1
    6     4     7    1
    7     7     8    1
    8     7     9    1
    9     7    10    1
   10    10    11    1
   11    10    12    1
   12    10    13    1
   13    13    14    1
   14    13    15    1
   15    13    16    1
   16    16    17    1
   17    16    18    1
   18    16    19    1
   19    19    20    1
   20    19    21    1
   21    19    22    1
   22    22    23    1
   23    22    24    1
   24    22    25    1
@<TRIPOS>SUBSTRUCTURE
       1 MOL1            1 RESIDUE      1      MOL     
@<SCITEGIC>MOL_PROPERTY
VConf Rank
SciTegic.value.IntegerValue
493

@<SCITEGIC>MOL_PROPERTY
Conf_Id
SciTegic.value.IntegerValue
20

@<SCITEGIC>MOL_PROPERTY
Delta U+W
SciTegic.value.DoubleValue
3.224

@<SCITEGIC>MOL_PROPERTY
U+W
SciTegic.value.DoubleValue
-48.406

@<SCITEGIC>MOL_PROPERTY
Grad RMS
SciTegic.value.DoubleValue
0.000000

@<SCITEGIC>MOL_PROPERTY
U
SciTegic.value.DoubleValue
10.617

@<SCITEGIC>MOL_PROPERTY
W
SciTegic.value.DoubleValue
-59.023

@<SCITEGIC>MOL_PROPERTY
W(PB)
SciTegic.value.DoubleValue
-61.467

@<SCITEGIC>MOL_PROPERTY
W(SA)
SciTegic.value.DoubleValue
2.444

@<SCITEGIC>MOL_PROPERTY
Valence
SciTegic.value.DoubleValue
11.188

@<SCITEGIC>MOL_PROPERTY
Coulomb
SciTegic.value.DoubleValue
-1.778

@<SCITEGIC>MOL_PROPERTY
VdW
SciTegic.value.DoubleValue
1.208

@<SCITEGIC>MOL_PROPERTY
VdW6
SciTegic.value.DoubleValue
-9.786

@<SCITEGIC>MOL_PROPERTY
VdW12
SciTegic.value.DoubleValue
10.993

@<SCITEGIC>MOL_PROPERTY
Bond
SciTegic.value.DoubleValue
0.241

@<SCITEGIC>MOL_PROPERTY
Angle
SciTegic.value.DoubleValue
3.294

@<SCITEGIC>MOL_PROPERTY
Pdih
SciTegic.value.DoubleValue
7.653

@<SCITEGIC>MOL_PROPERTY
Idih
SciTegic.value.DoubleValue
0.001

@<SCITEGIC>MOL_PROPERTY
Tether
SciTegic.value.DoubleValue
0.000

@<TRIPOS>MOLECULE
guest-8_confgen4.mol2 : confsearch ligand conformer 494
          25          24           1
SMALL
USER_CHARGES
 
@<TRIPOS>ATOM
       1    C1      20.495242   18.521138   26.620725 C.2        1 MOL1         0.6168
       2    O1      19.712459   17.638957   26.915093 O.co2      1 MOL1        -0.6703
       3    O2      20.355668   19.680981   26.956138 O.co2      1 MOL1        -0.6703
       4    C2      21.755455   18.142979   25.844678 C.3        1 MOL1        -0.1963
       5    H1      22.325049   17.467007   26.492823 H          1 MOL1         0.0750
       6    H2      22.371970   19.039530   25.707223 H          1 MOL1         0.0750
       7    C3      21.508289   17.444487   24.477883 C.3        1 MOL1        -0.1860
       8    H3      22.425228   16.906813   24.201192 H          1 MOL1         0.0752
       9    H4      20.729015   16.677111   24.584934 H          1 MOL1         0.0752
      10    C4      21.153770   18.402392   23.313487 C.3        1 MOL1        -0.1858
      11    H5      21.152949   17.821419   22.381042 H          1 MOL1         0.0752
      12    H6      21.942232   19.159545   23.204482 H          1 MOL1         0.0752
      13    C5      19.782509   19.098900   23.465632 C.3        1 MOL1        -0.1858
      14    H7      19.009118   18.348289   23.678932 H          1 MOL1         0.0752
      15    H8      19.806863   19.787284   24.319762 H          1 MOL1         0.0752
      16    C6      19.399731   19.890155   22.196000 C.3        1 MOL1        -0.1858
      17    H9      19.363923   19.209051   21.334733 H          1 MOL1         0.0752
      18    H10     20.176551   20.636886   21.981582 H          1 MOL1         0.0752
      19    C7      18.035913   20.595355   22.351142 C.3        1 MOL1        -0.1834
      20    H11     17.256443   19.850928   22.564950 H          1 MOL1         0.0752
      21    H12     18.068436   21.278956   23.210932 H          1 MOL1         0.0752
      22    C8      17.656611   21.385019   21.082194 C.3        1 MOL1        -0.2849
      23    H13     17.586105   20.719519   20.211844 H          1 MOL1         0.0764
      24    H14     16.684978   21.879580   21.210270 H          1 MOL1         0.0764
      25    H15     18.404306   22.158441   20.862776 H          1 MOL1         0.0764
@<TRIPOS>BOND
    1     1     2    1
    2     1     3    2
    3     1     4    1
    4     4     5    1
    5     4     6    1
    6     4     7    1
    7     7     8    1
    8     7     9    1
    9     7    10    1
   10    10    11    1
   11    10    12    1
   12    10    13    1
   13    13    14    1
   14    13    15    1
   15    13    16    1
   16    16    17    1
   17    16    18    1
   18    16    19    1
   19    19    20    1
   20    19    21    1
   21    19    22    1
   22    22    23    1
   23    22    24    1
   24    22    25    1
@<TRIPOS>SUBSTRUCTURE
       1 MOL1            1 RESIDUE      1      MOL     
@<SCITEGIC>MOL_PROPERTY
VConf Rank
SciTegic.value.IntegerValue
494

@<SCITEGIC>MOL_PROPERTY
Conf_Id
SciTegic.value.IntegerValue
24

@<SCITEGIC>MOL_PROPERTY
Delta U+W
SciTegic.value.DoubleValue
1.784

@<SCITEGIC>MOL_PROPERTY
U+W
SciTegic.value.DoubleValue
-49.846

@<SCITEGIC>MOL_PROPERTY
Grad RMS
SciTegic.value.DoubleValue
0.000000

@<SCITEGIC>MOL_PROPERTY
U
SciTegic.value.DoubleValue
10.904

@<SCITEGIC>MOL_PROPERTY
W
SciTegic.value.DoubleValue
-60.749

@<SCITEGIC>MOL_PROPERTY
W(PB)
SciTegic.value.DoubleValue
-63.220

@<SCITEGIC>MOL_PROPERTY
W(SA)
SciTegic.value.DoubleValue
2.471

@<SCITEGIC>MOL_PROPERTY
Valence
SciTegic.value.DoubleValue
9.445

@<SCITEGIC>MOL_PROPERTY
Coulomb
SciTegic.value.DoubleValue
0.780

@<SCITEGIC>MOL_PROPERTY
VdW
SciTegic.value.DoubleValue
0.679

@<SCITEGIC>MOL_PROPERTY
VdW6
SciTegic.value.DoubleValue
-10.008

@<SCITEGIC>MOL_PROPERTY
VdW12
SciTegic.value.DoubleValue
10.687

@<SCITEGIC>MOL_PROPERTY
Bond
SciTegic.value.DoubleValue
0.201

@<SCITEGIC>MOL_PROPERTY
Angle
SciTegic.value.DoubleValue
3.198

@<SCITEGIC>MOL_PROPERTY
Pdih
SciTegic.value.DoubleValue
6.039

@<SCITEGIC>MOL_PROPERTY
Idih
SciTegic.value.DoubleValue
0.006

@<SCITEGIC>MOL_PROPERTY
Tether
SciTegic.value.DoubleValue
0.000

@<TRIPOS>MOLECULE
guest-8_confgen4.mol2 : confsearch ligand conformer 495
          25          24           1
SMALL
USER_CHARGES
 
@<TRIPOS>ATOM
       1    C1      17.010592   18.412061   23.814769 C.2        1 MOL1         0.6168
       2    O1      16.591977   19.161826   24.675151 O.co2      1 MOL1        -0.6703
       3    O2      16.860078   18.606620   22.624513 O.co2      1 MOL1        -0.6703
       4    C2      17.704414   17.123092   24.251301 C.3        1 MOL1        -0.1963
       5    H1      17.971903   16.542726   23.360003 H          1 MOL1         0.0750
       6    H2      16.953067   16.537214   24.793235 H          1 MOL1         0.0750
       7    C3      18.949410   17.315654   25.162348 C.3        1 MOL1        -0.1860
       8    H3      18.733847   18.063694   25.937953 H          1 MOL1         0.0752
       9    H4      19.129046   16.371975   25.694916 H          1 MOL1         0.0752
      10    C4      20.251989   17.689011   24.412030 C.3        1 MOL1        -0.1858
      11    H5      20.467971   16.931147   23.646635 H          1 MOL1         0.0752
      12    H6      21.083205   17.648696   25.129273 H          1 MOL1         0.0752
      13    C5      20.225001   19.090767   23.761663 C.3        1 MOL1        -0.1858
      14    H7      19.487576   19.110609   22.949371 H          1 MOL1         0.0752
      15    H8      19.906736   19.835728   24.503813 H          1 MOL1         0.0752
      16    C6      21.606092   19.483513   23.193412 C.3        1 MOL1        -0.1858
      17    H9      21.924843   18.734924   22.455143 H          1 MOL1         0.0752
      18    H10     22.351810   19.475318   24.000135 H          1 MOL1         0.0752
      19    C7      21.577393   20.878224   22.533618 C.3        1 MOL1        -0.1834
      20    H11     20.833628   20.889742   21.724739 H          1 MOL1         0.0752
      21    H12     21.259530   21.629531   23.269796 H          1 MOL1         0.0752
      22    C8      22.957556   21.267513   21.966808 C.3        1 MOL1        -0.2849
      23    H13     23.285827   20.549049   21.204299 H          1 MOL1         0.0764
      24    H14     22.918539   22.261128   21.501759 H          1 MOL1         0.0764
      25    H15     23.714977   21.294540   22.761135 H          1 MOL1         0.0764
@<TRIPOS>BOND
    1     1     2    1
    2     1     3    2
    3     1     4    1
    4     4     5    1
    5     4     6    1
    6     4     7    1
    7     7     8    1
    8     7     9    1
    9     7    10    1
   10    10    11    1
   11    10    12    1
   12    10    13    1
   13    13    14    1
   14    13    15    1
   15    13    16    1
   16    16    17    1
   17    16    18    1
   18    16    19    1
   19    19    20    1
   20    19    21    1
   21    19    22    1
   22    22    23    1
   23    22    24    1
   24    22    25    1
@<TRIPOS>SUBSTRUCTURE
       1 MOL1            1 RESIDUE      1      MOL     
@<SCITEGIC>MOL_PROPERTY
VConf Rank
SciTegic.value.IntegerValue
495

@<SCITEGIC>MOL_PROPERTY
Conf_Id
SciTegic.value.IntegerValue
9

@<SCITEGIC>MOL_PROPERTY
Delta U+W
SciTegic.value.DoubleValue
1.764

@<SCITEGIC>MOL_PROPERTY
U+W
SciTegic.value.DoubleValue
-49.865

@<SCITEGIC>MOL_PROPERTY
Grad RMS
SciTegic.value.DoubleValue
0.000000

@<SCITEGIC>MOL_PROPERTY
U
SciTegic.value.DoubleValue
10.902

@<SCITEGIC>MOL_PROPERTY
W
SciTegic.value.DoubleValue
-60.768

@<SCITEGIC>MOL_PROPERTY
W(PB)
SciTegic.value.DoubleValue
-63.223

@<SCITEGIC>MOL_PROPERTY
W(SA)
SciTegic.value.DoubleValue
2.456

@<SCITEGIC>MOL_PROPERTY
Valence
SciTegic.value.DoubleValue
9.445

@<SCITEGIC>MOL_PROPERTY
Coulomb
SciTegic.value.DoubleValue
0.778

@<SCITEGIC>MOL_PROPERTY
VdW
SciTegic.value.DoubleValue
0.679

@<SCITEGIC>MOL_PROPERTY
VdW6
SciTegic.value.DoubleValue
-10.007

@<SCITEGIC>MOL_PROPERTY
VdW12
SciTegic.value.DoubleValue
10.687

@<SCITEGIC>MOL_PROPERTY
Bond
SciTegic.value.DoubleValue
0.201

@<SCITEGIC>MOL_PROPERTY
Angle
SciTegic.value.DoubleValue
3.198

@<SCITEGIC>MOL_PROPERTY
Pdih
SciTegic.value.DoubleValue
6.040

@<SCITEGIC>MOL_PROPERTY
Idih
SciTegic.value.DoubleValue
0.006

@<SCITEGIC>MOL_PROPERTY
Tether
SciTegic.value.DoubleValue
0.000

@<TRIPOS>MOLECULE
guest-8_confgen4.mol2 : confsearch ligand conformer 496
          25          24           1
SMALL
USER_CHARGES
 
@<TRIPOS>ATOM
       1    C1      17.895425   16.418224   24.733687 C.2        1 MOL1         0.6168
       2    O1      17.510418   16.123338   23.619498 O.co2      1 MOL1        -0.6703
       3    O2      17.770733   15.695168   25.702443 O.co2      1 MOL1        -0.6703
       4    C2      18.591817   17.760936   24.923108 C.3        1 MOL1        -0.1963
       5    H1      18.355252   18.125181   25.929895 H          1 MOL1         0.0750
       6    H2      18.150255   18.469525   24.215728 H          1 MOL1         0.0750
       7    C3      20.129744   17.669966   24.738303 C.3        1 MOL1        -0.1860
       8    H3      20.516463   16.953218   25.475973 H          1 MOL1         0.0752
       9    H4      20.368096   17.250530   23.751046 H          1 MOL1         0.0752
      10    C4      20.857088   19.024351   24.935536 C.3        1 MOL1        -0.1858
      11    H5      21.828661   18.824254   25.407685 H          1 MOL1         0.0752
      12    H6      20.304494   19.654226   25.645984 H          1 MOL1         0.0752
      13    C5      21.129081   19.808602   23.627205 C.3        1 MOL1        -0.1858
      14    H7      21.718059   20.701608   23.876599 H          1 MOL1         0.0752
      15    H8      21.758778   19.197159   22.967626 H          1 MOL1         0.0752
      16    C6      19.852017   20.245081   22.871053 C.3        1 MOL1        -0.1858
      17    H9      19.160400   20.721778   23.578741 H          1 MOL1         0.0752
      18    H10     19.338487   19.361874   22.469208 H          1 MOL1         0.0752
      19    C7      20.133193   21.233065   21.715042 C.3        1 MOL1        -0.1834
      20    H11     19.174343   21.568426   21.296348 H          1 MOL1         0.0752
      21    H12     20.631499   22.130615   22.106614 H          1 MOL1         0.0752
      22    C8      20.984225   20.619193   20.582244 C.3        1 MOL1        -0.2849
      23    H13     20.517744   19.705334   20.191857 H          1 MOL1         0.0764
      24    H14     21.086381   21.328561   19.750853 H          1 MOL1         0.0764
      25    H15     21.993702   20.368397   20.931428 H          1 MOL1         0.0764
@<TRIPOS>BOND
    1     1     2    1
    2     1     3    2
    3     1     4    1
    4     4     5    1
    5     4     6    1
    6     4     7    1
    7     7     8    1
    8     7     9    1
    9     7    10    1
   10    10    11    1
   11    10    12    1
   12    10    13    1
   13    13    14    1
   14    13    15    1
   15    13    16    1
   16    16    17    1
   17    16    18    1
   18    16    19    1
   19    19    20    1
   20    19    21    1
   21    19    22    1
   22    22    23    1
   23    22    24    1
   24    22    25    1
@<TRIPOS>SUBSTRUCTURE
       1 MOL1            1 RESIDUE      1      MOL     
@<SCITEGIC>MOL_PROPERTY
VConf Rank
SciTegic.value.IntegerValue
496

@<SCITEGIC>MOL_PROPERTY
Conf_Id
SciTegic.value.IntegerValue
89

@<SCITEGIC>MOL_PROPERTY
Delta U+W
SciTegic.value.DoubleValue
2.903

@<SCITEGIC>MOL_PROPERTY
U+W
SciTegic.value.DoubleValue
-48.726

@<SCITEGIC>MOL_PROPERTY
Grad RMS
SciTegic.value.DoubleValue
0.000000

@<SCITEGIC>MOL_PROPERTY
U
SciTegic.value.DoubleValue
10.996

@<SCITEGIC>MOL_PROPERTY
W
SciTegic.value.DoubleValue
-59.723

@<SCITEGIC>MOL_PROPERTY
W(PB)
SciTegic.value.DoubleValue
-62.151

@<SCITEGIC>MOL_PROPERTY
W(SA)
SciTegic.value.DoubleValue
2.428

@<SCITEGIC>MOL_PROPERTY
Valence
SciTegic.value.DoubleValue
10.985

@<SCITEGIC>MOL_PROPERTY
Coulomb
SciTegic.value.DoubleValue
-0.995

@<SCITEGIC>MOL_PROPERTY
VdW
SciTegic.value.DoubleValue
1.006

@<SCITEGIC>MOL_PROPERTY
VdW6
SciTegic.value.DoubleValue
-10.062

@<SCITEGIC>MOL_PROPERTY
VdW12
SciTegic.value.DoubleValue
11.069

@<SCITEGIC>MOL_PROPERTY
Bond
SciTegic.value.DoubleValue
0.238

@<SCITEGIC>MOL_PROPERTY
Angle
SciTegic.value.DoubleValue
3.202

@<SCITEGIC>MOL_PROPERTY
Pdih
SciTegic.value.DoubleValue
7.544

@<SCITEGIC>MOL_PROPERTY
Idih
SciTegic.value.DoubleValue
0.001

@<SCITEGIC>MOL_PROPERTY
Tether
SciTegic.value.DoubleValue
0.000

@<TRIPOS>MOLECULE
guest-8_confgen4.mol2 : confsearch ligand conformer 497
          25          24           1
SMALL
USER_CHARGES
 
@<TRIPOS>ATOM
       1    C1      18.391177   21.504296   21.737651 C.2        1 MOL1         0.6168
       2    O1      17.395828   20.874110   21.438643 O.co2      1 MOL1        -0.6703
       3    O2      18.376638   22.470350   22.475307 O.co2      1 MOL1        -0.6703
       4    C2      19.718717   21.098109   21.100551 C.3        1 MOL1        -0.1963
       5    H1      20.026801   21.939734   20.469498 H          1 MOL1         0.0750
       6    H2      19.547002   20.248701   20.428397 H          1 MOL1         0.0750
       7    C3      20.863073   20.771354   22.101180 C.3        1 MOL1        -0.1860
       8    H3      21.817722   20.876518   21.568235 H          1 MOL1         0.0752
       9    H4      20.883177   21.519488   22.905833 H          1 MOL1         0.0752
      10    C4      20.815873   19.344750   22.703265 C.3        1 MOL1        -0.1858
      11    H5      21.754452   19.182921   23.247691 H          1 MOL1         0.0752
      12    H6      20.796399   18.602630   21.893677 H          1 MOL1         0.0752
      13    C5      19.622066   19.103391   23.658751 C.3        1 MOL1        -0.1858
      14    H7      19.602046   19.879986   24.435456 H          1 MOL1         0.0752
      15    H8      18.684860   19.199633   23.097308 H          1 MOL1         0.0752
      16    C6      19.633288   17.704552   24.320943 C.3        1 MOL1        -0.1858
      17    H9      19.686226   16.929599   23.544109 H          1 MOL1         0.0752
      18    H10     18.675041   17.559651   24.838311 H          1 MOL1         0.0752
      19    C7      20.781885   17.507417   25.336474 C.3        1 MOL1        -0.1834
      20    H11     21.753046   17.565249   24.828309 H          1 MOL1         0.0752
      21    H12     20.760778   18.315221   26.080916 H          1 MOL1         0.0752
      22    C8      20.673869   16.146988   26.054569 C.3        1 MOL1        -0.2849
      23    H13     20.719368   15.318895   25.335153 H          1 MOL1         0.0764
      24    H14     21.497251   16.020549   26.769485 H          1 MOL1         0.0764
      25    H15     19.729313   16.068499   26.608642 H          1 MOL1         0.0764
@<TRIPOS>BOND
    1     1     2    1
    2     1     3    2
    3     1     4    1
    4     4     5    1
    5     4     6    1
    6     4     7    1
    7     7     8    1
    8     7     9    1
    9     7    10    1
   10    10    11    1
   11    10    12    1
   12    10    13    1
   13    13    14    1
   14    13    15    1
   15    13    16    1
   16    16    17    1
   17    16    18    1
   18    16    19    1
   19    19    20    1
   20    19    21    1
   21    19    22    1
   22    22    23    1
   23    22    24    1
   24    22    25    1
@<TRIPOS>SUBSTRUCTURE
       1 MOL1            1 RESIDUE      1      MOL     
@<SCITEGIC>MOL_PROPERTY
VConf Rank
SciTegic.value.IntegerValue
497

@<SCITEGIC>MOL_PROPERTY
Conf_Id
SciTegic.value.IntegerValue
114

@<SCITEGIC>MOL_PROPERTY
Delta U+W
SciTegic.value.DoubleValue
2.758

@<SCITEGIC>MOL_PROPERTY
U+W
SciTegic.value.DoubleValue
-48.871

@<SCITEGIC>MOL_PROPERTY
Grad RMS
SciTegic.value.DoubleValue
0.000000

@<SCITEGIC>MOL_PROPERTY
U
SciTegic.value.DoubleValue
11.422

@<SCITEGIC>MOL_PROPERTY
W
SciTegic.value.DoubleValue
-60.293

@<SCITEGIC>MOL_PROPERTY
W(PB)
SciTegic.value.DoubleValue
-62.719

@<SCITEGIC>MOL_PROPERTY
W(SA)
SciTegic.value.DoubleValue
2.425

@<SCITEGIC>MOL_PROPERTY
Valence
SciTegic.value.DoubleValue
10.135

@<SCITEGIC>MOL_PROPERTY
Coulomb
SciTegic.value.DoubleValue
0.369

@<SCITEGIC>MOL_PROPERTY
VdW
SciTegic.value.DoubleValue
0.918

@<SCITEGIC>MOL_PROPERTY
VdW6
SciTegic.value.DoubleValue
-10.482

@<SCITEGIC>MOL_PROPERTY
VdW12
SciTegic.value.DoubleValue
11.400

@<SCITEGIC>MOL_PROPERTY
Bond
SciTegic.value.DoubleValue
0.245

@<SCITEGIC>MOL_PROPERTY
Angle
SciTegic.value.DoubleValue
3.539

@<SCITEGIC>MOL_PROPERTY
Pdih
SciTegic.value.DoubleValue
6.346

@<SCITEGIC>MOL_PROPERTY
Idih
SciTegic.value.DoubleValue
0.006

@<SCITEGIC>MOL_PROPERTY
Tether
SciTegic.value.DoubleValue
0.000

@<TRIPOS>MOLECULE
guest-8_confgen4.mol2 : confsearch ligand conformer 498
          25          24           1
SMALL
USER_CHARGES
 
@<TRIPOS>ATOM
       1    C1      23.687485   18.127667   24.660840 C.2        1 MOL1         0.6168
       2    O1      23.594507   16.973471   25.029960 O.co2      1 MOL1        -0.6703
       3    O2      24.423610   18.490042   23.764234 O.co2      1 MOL1        -0.6703
       4    C2      22.850045   19.184948   25.374842 C.3        1 MOL1        -0.1963
       5    H1      23.505414   20.039611   25.579831 H          1 MOL1         0.0750
       6    H2      22.536375   18.785287   26.346777 H          1 MOL1         0.0750
       7    C3      21.615233   19.660955   24.566364 C.3        1 MOL1        -0.1860
       8    H3      21.149182   20.505578   25.091396 H          1 MOL1         0.0752
       9    H4      21.953201   20.039137   23.592669 H          1 MOL1         0.0752
      10    C4      20.567127   18.538950   24.371854 C.3        1 MOL1        -0.1858
      11    H5      20.315636   18.113536   25.352985 H          1 MOL1         0.0752
      12    H6      21.001476   17.719691   23.782400 H          1 MOL1         0.0752
      13    C5      19.260437   19.022189   23.698263 C.3        1 MOL1        -0.1858
      14    H7      18.534578   18.200201   23.738888 H          1 MOL1         0.0752
      15    H8      18.829258   19.847579   24.280790 H          1 MOL1         0.0752
      16    C6      19.452881   19.465077   22.226747 C.3        1 MOL1        -0.1858
      17    H9      19.887452   18.640457   21.645514 H          1 MOL1         0.0752
      18    H10     20.175183   20.290060   22.184963 H          1 MOL1         0.0752
      19    C7      18.144780   19.940577   21.552054 C.3        1 MOL1        -0.1834
      20    H11     17.701115   20.757870   22.137274 H          1 MOL1         0.0752
      21    H12     18.390593   20.362383   20.567729 H          1 MOL1         0.0752
      22    C8      17.106543   18.813302   21.361735 C.3        1 MOL1        -0.2849
      23    H13     16.241378   19.180687   20.794796 H          1 MOL1         0.0764
      24    H14     17.539344   17.969751   20.808364 H          1 MOL1         0.0764
      25    H15     16.736978   18.440514   22.324989 H          1 MOL1         0.0764
@<TRIPOS>BOND
    1     1     2    1
    2     1     3    2
    3     1     4    1
    4     4     5    1
    5     4     6    1
    6     4     7    1
    7     7     8    1
    8     7     9    1
    9     7    10    1
   10    10    11    1
   11    10    12    1
   12    10    13    1
   13    13    14    1
   14    13    15    1
   15    13    16    1
   16    16    17    1
   17    16    18    1
   18    16    19    1
   19    19    20    1
   20    19    21    1
   21    19    22    1
   22    22    23    1
   23    22    24    1
   24    22    25    1
@<TRIPOS>SUBSTRUCTURE
       1 MOL1            1 RESIDUE      1      MOL     
@<SCITEGIC>MOL_PROPERTY
VConf Rank
SciTegic.value.IntegerValue
498

@<SCITEGIC>MOL_PROPERTY
Conf_Id
SciTegic.value.IntegerValue
87

@<SCITEGIC>MOL_PROPERTY
Delta U+W
SciTegic.value.DoubleValue
1.453

@<SCITEGIC>MOL_PROPERTY
U+W
SciTegic.value.DoubleValue
-50.176

@<SCITEGIC>MOL_PROPERTY
Grad RMS
SciTegic.value.DoubleValue
0.000000

@<SCITEGIC>MOL_PROPERTY
U
SciTegic.value.DoubleValue
9.763

@<SCITEGIC>MOL_PROPERTY
W
SciTegic.value.DoubleValue
-59.940

@<SCITEGIC>MOL_PROPERTY
W(PB)
SciTegic.value.DoubleValue
-62.392

@<SCITEGIC>MOL_PROPERTY
W(SA)
SciTegic.value.DoubleValue
2.452

@<SCITEGIC>MOL_PROPERTY
Valence
SciTegic.value.DoubleValue
8.883

@<SCITEGIC>MOL_PROPERTY
Coulomb
SciTegic.value.DoubleValue
-0.122

@<SCITEGIC>MOL_PROPERTY
VdW
SciTegic.value.DoubleValue
1.003

@<SCITEGIC>MOL_PROPERTY
VdW6
SciTegic.value.DoubleValue
-9.782

@<SCITEGIC>MOL_PROPERTY
VdW12
SciTegic.value.DoubleValue
10.785

@<SCITEGIC>MOL_PROPERTY
Bond
SciTegic.value.DoubleValue
0.212

@<SCITEGIC>MOL_PROPERTY
Angle
SciTegic.value.DoubleValue
2.940

@<SCITEGIC>MOL_PROPERTY
Pdih
SciTegic.value.DoubleValue
5.730

@<SCITEGIC>MOL_PROPERTY
Idih
SciTegic.value.DoubleValue
0.001

@<SCITEGIC>MOL_PROPERTY
Tether
SciTegic.value.DoubleValue
0.000

@<TRIPOS>MOLECULE
guest-8_confgen4.mol2 : confsearch ligand conformer 499
          25          24           1
SMALL
USER_CHARGES
 
@<TRIPOS>ATOM
       1    C1      16.265093   18.467404   22.421597 C.2        1 MOL1         0.6168
       2    O1      16.358213   17.729364   21.460706 O.co2      1 MOL1        -0.6703
       3    O2      15.350109   18.421074   23.219971 O.co2      1 MOL1        -0.6703
       4    C2      17.366785   19.496474   22.648436 C.3        1 MOL1        -0.1963
       5    H1      16.915799   20.381385   23.113221 H          1 MOL1         0.0750
       6    H2      17.751924   19.804841   21.669073 H          1 MOL1         0.0750
       7    C3      18.520397   18.957920   23.529963 C.3        1 MOL1        -0.1860
       8    H3      18.118649   18.645302   24.503621 H          1 MOL1         0.0752
       9    H4      18.942087   18.062353   23.054650 H          1 MOL1         0.0752
      10    C4      19.626377   20.018166   23.738081 C.3        1 MOL1        -0.1858
      11    H5      19.173771   20.930672   24.149300 H          1 MOL1         0.0752
      12    H6      20.056371   20.301975   22.768564 H          1 MOL1         0.0752
      13    C5      20.750748   19.555931   24.698532 C.3        1 MOL1        -0.1858
      14    H7      21.459627   20.382564   24.838345 H          1 MOL1         0.0752
      15    H8      20.315108   19.367972   25.689168 H          1 MOL1         0.0752
      16    C6      21.525753   18.288491   24.250441 C.3        1 MOL1        -0.1858
      17    H9      20.849737   17.423664   24.268974 H          1 MOL1         0.0752
      18    H10     22.303343   18.072467   24.995543 H          1 MOL1         0.0752
      19    C7      22.186348   18.379196   22.852759 C.3        1 MOL1        -0.1834
      20    H11     22.679993   17.422018   22.635892 H          1 MOL1         0.0752
      21    H12     21.417563   18.506487   22.079066 H          1 MOL1         0.0752
      22    C8      23.229295   19.512465   22.743192 C.3        1 MOL1        -0.2849
      23    H13     23.999511   19.413706   23.519046 H          1 MOL1         0.0764
      24    H14     23.727414   19.483219   21.765567 H          1 MOL1         0.0764
      25    H15     22.758994   20.498259   22.847939 H          1 MOL1         0.0764
@<TRIPOS>BOND
    1     1     2    1
    2     1     3    2
    3     1     4    1
    4     4     5    1
    5     4     6    1
    6     4     7    1
    7     7     8    1
    8     7     9    1
    9     7    10    1
   10    10    11    1
   11    10    12    1
   12    10    13    1
   13    13    14    1
   14    13    15    1
   15    13    16    1
   16    16    17    1
   17    16    18    1
   18    16    19    1
   19    19    20    1
   20    19    21    1
   21    19    22    1
   22    22    23    1
   23    22    24    1
   24    22    25    1
@<TRIPOS>SUBSTRUCTURE
       1 MOL1            1 RESIDUE      1      MOL     
@<SCITEGIC>MOL_PROPERTY
VConf Rank
SciTegic.value.IntegerValue
499

@<SCITEGIC>MOL_PROPERTY
Conf_Id
SciTegic.value.IntegerValue
29

@<SCITEGIC>MOL_PROPERTY
Delta U+W
SciTegic.value.DoubleValue
0.850

@<SCITEGIC>MOL_PROPERTY
U+W
SciTegic.value.DoubleValue
-50.780

@<SCITEGIC>MOL_PROPERTY
Grad RMS
SciTegic.value.DoubleValue
0.000000

@<SCITEGIC>MOL_PROPERTY
U
SciTegic.value.DoubleValue
8.646

@<SCITEGIC>MOL_PROPERTY
W
SciTegic.value.DoubleValue
-59.426

@<SCITEGIC>MOL_PROPERTY
W(PB)
SciTegic.value.DoubleValue
-61.868

@<SCITEGIC>MOL_PROPERTY
W(SA)
SciTegic.value.DoubleValue
2.442

@<SCITEGIC>MOL_PROPERTY
Valence
SciTegic.value.DoubleValue
8.924

@<SCITEGIC>MOL_PROPERTY
Coulomb
SciTegic.value.DoubleValue
-1.171

@<SCITEGIC>MOL_PROPERTY
VdW
SciTegic.value.DoubleValue
0.894

@<SCITEGIC>MOL_PROPERTY
VdW6
SciTegic.value.DoubleValue
-10.223

@<SCITEGIC>MOL_PROPERTY
VdW12
SciTegic.value.DoubleValue
11.117

@<SCITEGIC>MOL_PROPERTY
Bond
SciTegic.value.DoubleValue
0.231

@<SCITEGIC>MOL_PROPERTY
Angle
SciTegic.value.DoubleValue
3.232

@<SCITEGIC>MOL_PROPERTY
Pdih
SciTegic.value.DoubleValue
5.461

@<SCITEGIC>MOL_PROPERTY
Idih
SciTegic.value.DoubleValue
0.001

@<SCITEGIC>MOL_PROPERTY
Tether
SciTegic.value.DoubleValue
0.000

@<TRIPOS>MOLECULE
guest-8_confgen4.mol2 : confsearch ligand conformer 500
          25          24           1
SMALL
USER_CHARGES
 
@<TRIPOS>ATOM
       1    C1      23.870608   18.503917   22.886774 C.2        1 MOL1         0.6168
       2    O1      23.875343   17.584680   22.091999 O.co2      1 MOL1        -0.6703
       3    O2      24.712030   18.650952   23.751140 O.co2      1 MOL1        -0.6703
       4    C2      22.735597   19.518605   22.807199 C.3        1 MOL1        -0.1963
       5    H1      22.433143   19.609861   21.757072 H          1 MOL1         0.0750
       6    H2      23.128470   20.494126   23.117829 H          1 MOL1         0.0750
       7    C3      21.518135   19.128773   23.681140 C.3        1 MOL1        -0.1860
       8    H3      21.155654   18.141655   23.364925 H          1 MOL1         0.0752
       9    H4      21.837662   19.032926   24.727972 H          1 MOL1         0.0752
      10    C4      20.379893   20.169957   23.576371 C.3        1 MOL1        -0.1858
      11    H5      20.032413   20.237453   22.537089 H          1 MOL1         0.0752
      12    H6      20.778512   21.161826   23.829195 H          1 MOL1         0.0752
      13    C5      19.183201   19.871736   24.514097 C.3        1 MOL1        -0.1858
      14    H7      19.532725   19.902684   25.554937 H          1 MOL1         0.0752
      15    H8      18.450459   20.684256   24.423088 H          1 MOL1         0.0752
      16    C6      18.473032   18.513658   24.270979 C.3        1 MOL1        -0.1858
      17    H9      17.636350   18.425255   24.977122 H          1 MOL1         0.0752
      18    H10     19.159647   17.694528   24.521680 H          1 MOL1         0.0752
      19    C7      17.937408   18.297472   22.834141 C.3        1 MOL1        -0.1834
      20    H11     18.769407   18.292920   22.117486 H          1 MOL1         0.0752
      21    H12     17.481580   17.299560   22.776722 H          1 MOL1         0.0752
      22    C8      16.888797   19.348175   22.409320 C.3        1 MOL1        -0.2849
      23    H13     17.330792   20.350687   22.349688 H          1 MOL1         0.0764
      24    H14     16.479924   19.105019   21.420166 H          1 MOL1         0.0764
      25    H15     16.054640   19.380971   23.122091 H          1 MOL1         0.0764
@<TRIPOS>BOND
    1     1     2    1
    2     1     3    2
    3     1     4    1
    4     4     5    1
    5     4     6    1
    6     4     7    1
    7     7     8    1
    8     7     9    1
    9     7    10    1
   10    10    11    1
   11    10    12    1
   12    10    13    1
   13    13    14    1
   14    13    15    1
   15    13    16    1
   16    16    17    1
   17    16    18    1
   18    16    19    1
   19    19    20    1
   20    19    21    1
   21    19    22    1
   22    22    23    1
   23    22    24    1
   24    22    25    1
@<TRIPOS>SUBSTRUCTURE
       1 MOL1            1 RESIDUE      1      MOL     
@<SCITEGIC>MOL_PROPERTY
VConf Rank
SciTegic.value.IntegerValue
500

@<SCITEGIC>MOL_PROPERTY
Conf_Id
SciTegic.value.IntegerValue
30

@<SCITEGIC>MOL_PROPERTY
Delta U+W
SciTegic.value.DoubleValue
0.843

@<SCITEGIC>MOL_PROPERTY
U+W
SciTegic.value.DoubleValue
-50.787

@<SCITEGIC>MOL_PROPERTY
Grad RMS
SciTegic.value.DoubleValue
0.000000

@<SCITEGIC>MOL_PROPERTY
U
SciTegic.value.DoubleValue
8.647

@<SCITEGIC>MOL_PROPERTY
W
SciTegic.value.DoubleValue
-59.434

@<SCITEGIC>MOL_PROPERTY
W(PB)
SciTegic.value.DoubleValue
-61.861

@<SCITEGIC>MOL_PROPERTY
W(SA)
SciTegic.value.DoubleValue
2.428

@<SCITEGIC>MOL_PROPERTY
Valence
SciTegic.value.DoubleValue
8.924

@<SCITEGIC>MOL_PROPERTY
Coulomb
SciTegic.value.DoubleValue
-1.170

@<SCITEGIC>MOL_PROPERTY
VdW
SciTegic.value.DoubleValue
0.894

@<SCITEGIC>MOL_PROPERTY
VdW6
SciTegic.value.DoubleValue
-10.224

@<SCITEGIC>MOL_PROPERTY
VdW12
SciTegic.value.DoubleValue
11.118

@<SCITEGIC>MOL_PROPERTY
Bond
SciTegic.value.DoubleValue
0.231

@<SCITEGIC>MOL_PROPERTY
Angle
SciTegic.value.DoubleValue
3.232

@<SCITEGIC>MOL_PROPERTY
Pdih
SciTegic.value.DoubleValue
5.460

@<SCITEGIC>MOL_PROPERTY
Idih
SciTegic.value.DoubleValue
0.000

@<SCITEGIC>MOL_PROPERTY
Tether
SciTegic.value.DoubleValue
0.000

@<TRIPOS>MOLECULE
guest-8_confgen4.mol2 : confsearch ligand conformer 501
          25          24           1
SMALL
USER_CHARGES
 
@<TRIPOS>ATOM
       1    C1      17.217993   21.624443   20.304404 C.2        1 MOL1         0.6168
       2    O1      17.974140   22.574257   20.235865 O.co2      1 MOL1        -0.6703
       3    O2      16.146320   21.586585   19.733265 O.co2      1 MOL1        -0.6703
       4    C2      17.606114   20.404722   21.141685 C.3        1 MOL1        -0.1963
       5    H1      17.591434   19.533475   20.476387 H          1 MOL1         0.0750
       6    H2      16.815159   20.253871   21.885689 H          1 MOL1         0.0750
       7    C3      18.982913   20.499714   21.851486 C.3        1 MOL1        -0.1860
       8    H3      19.769863   20.657214   21.100881 H          1 MOL1         0.0752
       9    H4      18.992879   21.378226   22.511504 H          1 MOL1         0.0752
      10    C4      19.294734   19.229522   22.672477 C.3        1 MOL1        -0.1858
      11    H5      19.284178   18.352603   22.010633 H          1 MOL1         0.0752
      12    H6      18.506721   19.074079   23.422151 H          1 MOL1         0.0752
      13    C5      20.664722   19.326167   23.377658 C.3        1 MOL1        -0.1858
      14    H7      21.452942   19.481580   22.628219 H          1 MOL1         0.0752
      15    H8      20.675559   20.202980   24.039614 H          1 MOL1         0.0752
      16    C6      20.977129   18.056449   24.198713 C.3        1 MOL1        -0.1858
      17    H9      20.966394   17.179507   23.536934 H          1 MOL1         0.0752
      18    H10     20.189078   17.900899   24.948296 H          1 MOL1         0.0752
      19    C7      22.346508   18.152921   24.903594 C.3        1 MOL1        -0.1834
      20    H11     23.137650   18.306681   24.156640 H          1 MOL1         0.0752
      21    H12     22.360344   19.028059   25.567995 H          1 MOL1         0.0752
      22    C8      22.654771   16.883195   25.722357 C.3        1 MOL1        -0.2849
      23    H13     22.678399   15.995531   25.076685 H          1 MOL1         0.0764
      24    H14     23.631347   16.968968   26.216351 H          1 MOL1         0.0764
      25    H15     21.895259   16.722347   26.498673 H          1 MOL1         0.0764
@<TRIPOS>BOND
    1     1     2    1
    2     1     3    2
    3     1     4    1
    4     4     5    1
    5     4     6    1
    6     4     7    1
    7     7     8    1
    8     7     9    1
    9     7    10    1
   10    10    11    1
   11    10    12    1
   12    10    13    1
   13    13    14    1
   14    13    15    1
   15    13    16    1
   16    16    17    1
   17    16    18    1
   18    16    19    1
   19    19    20    1
   20    19    21    1
   21    19    22    1
   22    22    23    1
   23    22    24    1
   24    22    25    1
@<TRIPOS>SUBSTRUCTURE
       1 MOL1            1 RESIDUE      1      MOL     
@<SCITEGIC>MOL_PROPERTY
VConf Rank
SciTegic.value.IntegerValue
501

@<SCITEGIC>MOL_PROPERTY
Conf_Id
SciTegic.value.IntegerValue
0

@<SCITEGIC>MOL_PROPERTY
Delta U+W
SciTegic.value.DoubleValue
0.000

@<SCITEGIC>MOL_PROPERTY
U+W
SciTegic.value.DoubleValue
-51.629

@<SCITEGIC>MOL_PROPERTY
Grad RMS
SciTegic.value.DoubleValue
0.000000

@<SCITEGIC>MOL_PROPERTY
U
SciTegic.value.DoubleValue
6.586

@<SCITEGIC>MOL_PROPERTY
W
SciTegic.value.DoubleValue
-58.216

@<SCITEGIC>MOL_PROPERTY
W(PB)
SciTegic.value.DoubleValue
-60.757

@<SCITEGIC>MOL_PROPERTY
W(SA)
SciTegic.value.DoubleValue
2.541

@<SCITEGIC>MOL_PROPERTY
Valence
SciTegic.value.DoubleValue
8.027

@<SCITEGIC>MOL_PROPERTY
Coulomb
SciTegic.value.DoubleValue
-2.892

@<SCITEGIC>MOL_PROPERTY
VdW
SciTegic.value.DoubleValue
1.451

@<SCITEGIC>MOL_PROPERTY
VdW6
SciTegic.value.DoubleValue
-7.931

@<SCITEGIC>MOL_PROPERTY
VdW12
SciTegic.value.DoubleValue
9.383

@<SCITEGIC>MOL_PROPERTY
Bond
SciTegic.value.DoubleValue
0.149

@<SCITEGIC>MOL_PROPERTY
Angle
SciTegic.value.DoubleValue
2.726

@<SCITEGIC>MOL_PROPERTY
Pdih
SciTegic.value.DoubleValue
5.152

@<SCITEGIC>MOL_PROPERTY
Idih
SciTegic.value.DoubleValue
0.000

@<SCITEGIC>MOL_PROPERTY
Tether
SciTegic.value.DoubleValue
0.000

@<TRIPOS>MOLECULE
guest-8_confgen4.mol2 : confsearch ligand conformer 502
          25          24           1
SMALL
USER_CHARGES
 
@<TRIPOS>ATOM
       1    C1      22.023964   16.216508   26.240222 C.2        1 MOL1         0.6168
       2    O1      21.597932   15.079883   26.183653 O.co2      1 MOL1        -0.6703
       3    O2      23.162984   16.493634   26.560309 O.co2      1 MOL1        -0.6703
       4    C2      21.083739   17.356887   25.866598 C.3        1 MOL1        -0.1963
       5    H1      21.356119   18.233419   26.466685 H          1 MOL1         0.0750
       6    H2      20.066324   17.068496   26.156948 H          1 MOL1         0.0750
       7    C3      21.130947   17.705587   24.358552 C.3        1 MOL1        -0.1860
       8    H3      22.158506   17.979223   24.081353 H          1 MOL1         0.0752
       9    H4      20.868892   16.814272   23.771630 H          1 MOL1         0.0752
      10    C4      20.170911   18.862200   24.005565 C.3        1 MOL1        -0.1858
      11    H5      20.434833   19.751265   24.594708 H          1 MOL1         0.0752
      12    H6      19.144866   18.586057   24.285130 H          1 MOL1         0.0752
      13    C5      20.219989   19.207421   22.501609 C.3        1 MOL1        -0.1858
      14    H7      21.245912   19.483662   22.221830 H          1 MOL1         0.0752
      15    H8      19.956087   18.318506   21.912296 H          1 MOL1         0.0752
      16    C6      19.260161   20.363912   22.147866 C.3        1 MOL1        -0.1858
      17    H9      19.523869   21.253031   22.736951 H          1 MOL1         0.0752
      18    H10     18.234129   20.087963   22.427520 H          1 MOL1         0.0752
      19    C7      19.309027   20.709068   20.644589 C.3        1 MOL1        -0.1834
      20    H11     20.333649   20.987465   20.361512 H          1 MOL1         0.0752
      21    H12     19.043893   19.822425   20.052088 H          1 MOL1         0.0752
      22    C8      18.349278   21.864299   20.295412 C.3        1 MOL1        -0.2849
      23    H13     18.396884   22.096292   19.223498 H          1 MOL1         0.0764
      24    H14     17.311830   21.600447   20.539297 H          1 MOL1         0.0764
      25    H15     18.611297   22.774250   20.851050 H          1 MOL1         0.0764
@<TRIPOS>BOND
    1     1     2    1
    2     1     3    2
    3     1     4    1
    4     4     5    1
    5     4     6    1
    6     4     7    1
    7     7     8    1
    8     7     9    1
    9     7    10    1
   10    10    11    1
   11    10    12    1
   12    10    13    1
   13    13    14    1
   14    13    15    1
   15    13    16    1
   16    16    17    1
   17    16    18    1
   18    16    19    1
   19    19    20    1
   20    19    21    1
   21    19    22    1
   22    22    23    1
   23    22    24    1
   24    22    25    1
@<TRIPOS>SUBSTRUCTURE
       1 MOL1            1 RESIDUE      1      MOL     
@<SCITEGIC>MOL_PROPERTY
VConf Rank
SciTegic.value.IntegerValue
502

@<SCITEGIC>MOL_PROPERTY
Conf_Id
SciTegic.value.IntegerValue
27

@<SCITEGIC>MOL_PROPERTY
Delta U+W
SciTegic.value.DoubleValue
-1.297

@<SCITEGIC>MOL_PROPERTY
U+W
SciTegic.value.DoubleValue
-52.926

@<SCITEGIC>MOL_PROPERTY
Grad RMS
SciTegic.value.DoubleValue
0.000000

@<SCITEGIC>MOL_PROPERTY
U
SciTegic.value.DoubleValue
5.617

@<SCITEGIC>MOL_PROPERTY
W
SciTegic.value.DoubleValue
-58.543

@<SCITEGIC>MOL_PROPERTY
W(PB)
SciTegic.value.DoubleValue
-61.065

@<SCITEGIC>MOL_PROPERTY
W(SA)
SciTegic.value.DoubleValue
2.522

@<SCITEGIC>MOL_PROPERTY
Valence
SciTegic.value.DoubleValue
7.531

@<SCITEGIC>MOL_PROPERTY
Coulomb
SciTegic.value.DoubleValue
-2.818

@<SCITEGIC>MOL_PROPERTY
VdW
SciTegic.value.DoubleValue
0.904

@<SCITEGIC>MOL_PROPERTY
VdW6
SciTegic.value.DoubleValue
-7.640

@<SCITEGIC>MOL_PROPERTY
VdW12
SciTegic.value.DoubleValue
8.544

@<SCITEGIC>MOL_PROPERTY
Bond
SciTegic.value.DoubleValue
0.115

@<SCITEGIC>MOL_PROPERTY
Angle
SciTegic.value.DoubleValue
2.271

@<SCITEGIC>MOL_PROPERTY
Pdih
SciTegic.value.DoubleValue
5.144

@<SCITEGIC>MOL_PROPERTY
Idih
SciTegic.value.DoubleValue
0.001

@<SCITEGIC>MOL_PROPERTY
Tether
SciTegic.value.DoubleValue
0.000

@<TRIPOS>MOLECULE
guest-8_confgen4.mol2 : confsearch ligand conformer 503
          25          24           1
SMALL
USER_CHARGES
 
@<TRIPOS>ATOM
       1    C1      18.255004   16.070284   21.547125 C.2        1 MOL1         0.6168
       2    O1      17.157800   16.384627   21.129506 O.co2      1 MOL1        -0.6703
       3    O2      19.184285   15.758349   20.828726 O.co2      1 MOL1        -0.6703
       4    C2      18.470423   16.050631   23.057811 C.3        1 MOL1        -0.1963
       5    H1      19.352528   15.437124   23.277692 H          1 MOL1         0.0750
       6    H2      17.609324   15.540361   23.505156 H          1 MOL1         0.0750
       7    C3      18.625213   17.457866   23.690799 C.3        1 MOL1        -0.1860
       8    H3      17.747315   18.068914   23.438635 H          1 MOL1         0.0752
       9    H4      18.636778   17.357370   24.784561 H          1 MOL1         0.0752
      10    C4      19.913212   18.177602   23.231664 C.3        1 MOL1        -0.1858
      11    H5      19.900995   18.297630   22.139479 H          1 MOL1         0.0752
      12    H6      20.786731   17.556812   23.473754 H          1 MOL1         0.0752
      13    C5      20.063053   19.562179   23.898093 C.3        1 MOL1        -0.1858
      14    H7      19.189126   20.182220   23.655428 H          1 MOL1         0.0752
      15    H8      20.078555   19.444331   24.990297 H          1 MOL1         0.0752
      16    C6      21.349389   20.282287   23.439134 C.3        1 MOL1        -0.1858
      17    H9      21.334065   20.400148   22.346887 H          1 MOL1         0.0752
      18    H10     22.223428   19.662246   23.681385 H          1 MOL1         0.0752
      19    C7      21.499343   21.666502   24.104590 C.3        1 MOL1        -0.1834
      20    H11     20.627507   22.290152   23.862835 H          1 MOL1         0.0752
      21    H12     21.516972   21.552258   25.197347 H          1 MOL1         0.0752
      22    C8      22.784907   22.382278   23.643510 C.3        1 MOL1        -0.2849
      23    H13     22.779544   22.538025   22.556721 H          1 MOL1         0.0764
      24    H14     22.875418   23.364115   24.126092 H          1 MOL1         0.0764
      25    H15     23.675728   21.794559   23.901230 H          1 MOL1         0.0764
@<TRIPOS>BOND
    1     1     2    1
    2     1     3    2
    3     1     4    1
    4     4     5    1
    5     4     6    1
    6     4     7    1
    7     7     8    1
    8     7     9    1
    9     7    10    1
   10    10    11    1
   11    10    12    1
   12    10    13    1
   13    13    14    1
   14    13    15    1
   15    13    16    1
   16    16    17    1
   17    16    18    1
   18    16    19    1
   19    19    20    1
   20    19    21    1
   21    19    22    1
   22    22    23    1
   23    22    24    1
   24    22    25    1
@<TRIPOS>SUBSTRUCTURE
       1 MOL1            1 RESIDUE      1      MOL     
@<SCITEGIC>MOL_PROPERTY
VConf Rank
SciTegic.value.IntegerValue
503

@<SCITEGIC>MOL_PROPERTY
Conf_Id
SciTegic.value.IntegerValue
37

@<SCITEGIC>MOL_PROPERTY
Delta U+W
SciTegic.value.DoubleValue
-0.230

@<SCITEGIC>MOL_PROPERTY
U+W
SciTegic.value.DoubleValue
-51.860

@<SCITEGIC>MOL_PROPERTY
Grad RMS
SciTegic.value.DoubleValue
0.000000

@<SCITEGIC>MOL_PROPERTY
U
SciTegic.value.DoubleValue
7.816

@<SCITEGIC>MOL_PROPERTY
W
SciTegic.value.DoubleValue
-59.675

@<SCITEGIC>MOL_PROPERTY
W(PB)
SciTegic.value.DoubleValue
-62.180

@<SCITEGIC>MOL_PROPERTY
W(SA)
SciTegic.value.DoubleValue
2.505

@<SCITEGIC>MOL_PROPERTY
Valence
SciTegic.value.DoubleValue
7.785

@<SCITEGIC>MOL_PROPERTY
Coulomb
SciTegic.value.DoubleValue
-0.713

@<SCITEGIC>MOL_PROPERTY
VdW
SciTegic.value.DoubleValue
0.744

@<SCITEGIC>MOL_PROPERTY
VdW6
SciTegic.value.DoubleValue
-8.514

@<SCITEGIC>MOL_PROPERTY
VdW12
SciTegic.value.DoubleValue
9.259

@<SCITEGIC>MOL_PROPERTY
Bond
SciTegic.value.DoubleValue
0.136

@<SCITEGIC>MOL_PROPERTY
Angle
SciTegic.value.DoubleValue
2.433

@<SCITEGIC>MOL_PROPERTY
Pdih
SciTegic.value.DoubleValue
5.216

@<SCITEGIC>MOL_PROPERTY
Idih
SciTegic.value.DoubleValue
0.000

@<SCITEGIC>MOL_PROPERTY
Tether
SciTegic.value.DoubleValue
0.000

@<TRIPOS>MOLECULE
guest-8_confgen4.mol2 : confsearch ligand conformer 504
          25          24           1
SMALL
USER_CHARGES
 
@<TRIPOS>ATOM
       1    C1      23.198119   20.047500   21.006269 C.2        1 MOL1         0.6168
       2    O1      23.775700   21.082096   21.276615 O.co2      1 MOL1        -0.6703
       3    O2      22.605855   19.860813   19.961600 O.co2      1 MOL1        -0.6703
       4    C2      23.233635   18.916011   22.029714 C.3        1 MOL1        -0.1963
       5    H1      24.268104   18.824047   22.380997 H          1 MOL1         0.0750
       6    H2      22.986164   17.976247   21.521337 H          1 MOL1         0.0750
       7    C3      22.291855   19.133241   23.242482 C.3        1 MOL1        -0.1860
       8    H3      22.482332   18.348182   23.986761 H          1 MOL1         0.0752
       9    H4      22.533673   20.090974   23.724086 H          1 MOL1         0.0752
      10    C4      20.798297   19.108695   22.846947 C.3        1 MOL1        -0.1858
      11    H5      20.564776   18.154974   22.354087 H          1 MOL1         0.0752
      12    H6      20.595995   19.902985   22.115100 H          1 MOL1         0.0752
      13    C5      19.878929   19.294951   24.073201 C.3        1 MOL1        -0.1858
      14    H7      20.077413   18.500049   24.805165 H          1 MOL1         0.0752
      15    H8      20.113107   20.248940   24.565293 H          1 MOL1         0.0752
      16    C6      18.386408   19.271238   23.678645 C.3        1 MOL1        -0.1858
      17    H9      18.152081   18.317436   23.186268 H          1 MOL1         0.0752
      18    H10     18.187777   20.066037   22.946548 H          1 MOL1         0.0752
      19    C7      17.467075   19.457988   24.903928 C.3        1 MOL1        -0.1834
      20    H11     17.661773   18.663517   25.637676 H          1 MOL1         0.0752
      21    H12     17.697412   20.412166   25.397863 H          1 MOL1         0.0752
      22    C8      15.977653   19.433725   24.505639 C.3        1 MOL1        -0.2849
      23    H13     15.711858   18.477040   24.037129 H          1 MOL1         0.0764
      24    H14     15.338866   19.567841   25.388275 H          1 MOL1         0.0764
      25    H15     15.747796   20.238825   23.795443 H          1 MOL1         0.0764
@<TRIPOS>BOND
    1     1     2    1
    2     1     3    2
    3     1     4    1
    4     4     5    1
    5     4     6    1
    6     4     7    1
    7     7     8    1
    8     7     9    1
    9     7    10    1
   10    10    11    1
   11    10    12    1
   12    10    13    1
   13    13    14    1
   14    13    15    1
   15    13    16    1
   16    16    17    1
   17    16    18    1
   18    16    19    1
   19    19    20    1
   20    19    21    1
   21    19    22    1
   22    22    23    1
   23    22    24    1
   24    22    25    1
@<TRIPOS>SUBSTRUCTURE
       1 MOL1            1 RESIDUE      1      MOL     
@<SCITEGIC>MOL_PROPERTY
VConf Rank
SciTegic.value.IntegerValue
504

@<SCITEGIC>MOL_PROPERTY
Conf_Id
SciTegic.value.IntegerValue
54

@<SCITEGIC>MOL_PROPERTY
Delta U+W
SciTegic.value.DoubleValue
-0.224

@<SCITEGIC>MOL_PROPERTY
U+W
SciTegic.value.DoubleValue
-51.854

@<SCITEGIC>MOL_PROPERTY
Grad RMS
SciTegic.value.DoubleValue
0.000000

@<SCITEGIC>MOL_PROPERTY
U
SciTegic.value.DoubleValue
7.816

@<SCITEGIC>MOL_PROPERTY
W
SciTegic.value.DoubleValue
-59.670

@<SCITEGIC>MOL_PROPERTY
W(PB)
SciTegic.value.DoubleValue
-62.157

@<SCITEGIC>MOL_PROPERTY
W(SA)
SciTegic.value.DoubleValue
2.487

@<SCITEGIC>MOL_PROPERTY
Valence
SciTegic.value.DoubleValue
7.785

@<SCITEGIC>MOL_PROPERTY
Coulomb
SciTegic.value.DoubleValue
-0.713

@<SCITEGIC>MOL_PROPERTY
VdW
SciTegic.value.DoubleValue
0.744

@<SCITEGIC>MOL_PROPERTY
VdW6
SciTegic.value.DoubleValue
-8.515

@<SCITEGIC>MOL_PROPERTY
VdW12
SciTegic.value.DoubleValue
9.259

@<SCITEGIC>MOL_PROPERTY
Bond
SciTegic.value.DoubleValue
0.136

@<SCITEGIC>MOL_PROPERTY
Angle
SciTegic.value.DoubleValue
2.433

@<SCITEGIC>MOL_PROPERTY
Pdih
SciTegic.value.DoubleValue
5.215

@<SCITEGIC>MOL_PROPERTY
Idih
SciTegic.value.DoubleValue
0.000

@<SCITEGIC>MOL_PROPERTY
Tether
SciTegic.value.DoubleValue
0.000

@<TRIPOS>MOLECULE
guest-8_confgen4.mol2 : confsearch ligand conformer 505
          25          24           1
SMALL
USER_CHARGES
 
@<TRIPOS>ATOM
       1    C1      20.007755   15.650724   21.220802 C.2        1 MOL1         0.6168
       2    O1      19.148662   15.826431   20.379294 O.co2      1 MOL1        -0.6703
       3    O2      21.120115   15.230842   20.968882 O.co2      1 MOL1        -0.6703
       4    C2      19.667179   15.955863   22.676853 C.3        1 MOL1        -0.1963
       5    H1      20.020547   15.110650   23.279112 H          1 MOL1         0.0750
       6    H2      18.575992   15.986781   22.782603 H          1 MOL1         0.0750
       7    C3      20.294396   17.269977   23.211050 C.3        1 MOL1        -0.1860
       8    H3      20.125216   17.319367   24.293983 H          1 MOL1         0.0752
       9    H4      21.382461   17.241051   23.060461 H          1 MOL1         0.0752
      10    C4      19.703712   18.528967   22.531354 C.3        1 MOL1        -0.1858
      11    H5      18.622965   18.581109   22.721208 H          1 MOL1         0.0752
      12    H6      19.821692   18.438055   21.442872 H          1 MOL1         0.0752
      13    C5      20.373946   19.848946   22.982351 C.3        1 MOL1        -0.1858
      14    H7      21.457087   19.789000   22.809759 H          1 MOL1         0.0752
      15    H8      20.000576   20.654878   22.337961 H          1 MOL1         0.0752
      16    C6      20.098969   20.207840   24.463706 C.3        1 MOL1        -0.1858
      17    H9      20.478058   19.406811   25.110636 H          1 MOL1         0.0752
      18    H10     19.015627   20.262651   24.636862 H          1 MOL1         0.0752
      19    C7      20.761237   21.533264   24.907709 C.3        1 MOL1        -0.1834
      20    H11     20.635365   21.642104   25.993782 H          1 MOL1         0.0752
      21    H12     21.843628   21.487025   24.724430 H          1 MOL1         0.0752
      22    C8      20.168449   22.779157   24.213957 C.3        1 MOL1        -0.2849
      23    H13     20.377009   22.776877   23.136970 H          1 MOL1         0.0764
      24    H14     19.080793   22.827179   24.354698 H          1 MOL1         0.0764
      25    H15     20.603933   23.695189   24.633652 H          1 MOL1         0.0764
@<TRIPOS>BOND
    1     1     2    1
    2     1     3    2
    3     1     4    1
    4     4     5    1
    5     4     6    1
    6     4     7    1
    7     7     8    1
    8     7     9    1
    9     7    10    1
   10    10    11    1
   11    10    12    1
   12    10    13    1
   13    13    14    1
   14    13    15    1
   15    13    16    1
   16    16    17    1
   17    16    18    1
   18    16    19    1
   19    19    20    1
   20    19    21    1
   21    19    22    1
   22    22    23    1
   23    22    24    1
   24    22    25    1
@<TRIPOS>SUBSTRUCTURE
       1 MOL1            1 RESIDUE      1      MOL     
@<SCITEGIC>MOL_PROPERTY
VConf Rank
SciTegic.value.IntegerValue
505

@<SCITEGIC>MOL_PROPERTY
Conf_Id
SciTegic.value.IntegerValue
101

@<SCITEGIC>MOL_PROPERTY
Delta U+W
SciTegic.value.DoubleValue
1.534

@<SCITEGIC>MOL_PROPERTY
U+W
SciTegic.value.DoubleValue
-50.095

@<SCITEGIC>MOL_PROPERTY
Grad RMS
SciTegic.value.DoubleValue
0.000000

@<SCITEGIC>MOL_PROPERTY
U
SciTegic.value.DoubleValue
9.416

@<SCITEGIC>MOL_PROPERTY
W
SciTegic.value.DoubleValue
-59.512

@<SCITEGIC>MOL_PROPERTY
W(PB)
SciTegic.value.DoubleValue
-61.988

@<SCITEGIC>MOL_PROPERTY
W(SA)
SciTegic.value.DoubleValue
2.476

@<SCITEGIC>MOL_PROPERTY
Valence
SciTegic.value.DoubleValue
8.939

@<SCITEGIC>MOL_PROPERTY
Coulomb
SciTegic.value.DoubleValue
-0.615

@<SCITEGIC>MOL_PROPERTY
VdW
SciTegic.value.DoubleValue
1.092

@<SCITEGIC>MOL_PROPERTY
VdW6
SciTegic.value.DoubleValue
-9.710

@<SCITEGIC>MOL_PROPERTY
VdW12
SciTegic.value.DoubleValue
10.802

@<SCITEGIC>MOL_PROPERTY
Bond
SciTegic.value.DoubleValue
0.216

@<SCITEGIC>MOL_PROPERTY
Angle
SciTegic.value.DoubleValue
2.979

@<SCITEGIC>MOL_PROPERTY
Pdih
SciTegic.value.DoubleValue
5.743

@<SCITEGIC>MOL_PROPERTY
Idih
SciTegic.value.DoubleValue
0.000

@<SCITEGIC>MOL_PROPERTY
Tether
SciTegic.value.DoubleValue
0.000

@<TRIPOS>MOLECULE
guest-8_confgen4.mol2 : confsearch ligand conformer 506
          25          24           1
SMALL
USER_CHARGES
 
@<TRIPOS>ATOM
       1    C1      24.215609   18.951011   23.973085 C.2        1 MOL1         0.6168
       2    O1      24.379041   18.220868   24.930643 O.co2      1 MOL1        -0.6703
       3    O2      25.083128   19.196878   23.158384 O.co2      1 MOL1        -0.6703
       4    C2      22.839667   19.575256   23.769938 C.3        1 MOL1        -0.1963
       5    H1      22.976787   20.550811   23.288451 H          1 MOL1         0.0750
       6    H2      22.408457   19.758487   24.760314 H          1 MOL1         0.0750
       7    C3      21.897966   18.685307   22.917445 C.3        1 MOL1        -0.1860
       8    H3      22.404687   18.442055   21.973258 H          1 MOL1         0.0752
       9    H4      21.728422   17.729885   23.432929 H          1 MOL1         0.0752
      10    C4      20.539949   19.351843   22.591517 C.3        1 MOL1        -0.1858
      11    H5      20.011617   18.710464   21.874587 H          1 MOL1         0.0752
      12    H6      20.712073   20.311226   22.085036 H          1 MOL1         0.0752
      13    C5      19.646776   19.570515   23.837441 C.3        1 MOL1        -0.1858
      14    H7      19.474091   18.611654   24.343188 H          1 MOL1         0.0752
      15    H8      20.176153   20.204540   24.559583 H          1 MOL1         0.0752
      16    C6      18.291727   20.250611   23.515466 C.3        1 MOL1        -0.1858
      17    H9      18.485304   21.244757   23.090166 H          1 MOL1         0.0752
      18    H10     17.754355   20.424310   24.457660 H          1 MOL1         0.0752
      19    C7      17.365084   19.468070   22.551920 C.3        1 MOL1        -0.1834
      20    H11     16.446281   20.051281   22.401220 H          1 MOL1         0.0752
      21    H12     17.832628   19.380628   21.562426 H          1 MOL1         0.0752
      22    C8      16.982624   18.066028   23.073403 C.3        1 MOL1        -0.2849
      23    H13     16.534565   18.127491   24.073625 H          1 MOL1         0.0764
      24    H14     16.252977   17.592772   22.403768 H          1 MOL1         0.0764
      25    H15     17.859336   17.408377   23.127709 H          1 MOL1         0.0764
@<TRIPOS>BOND
    1     1     2    1
    2     1     3    2
    3     1     4    1
    4     4     5    1
    5     4     6    1
    6     4     7    1
    7     7     8    1
    8     7     9    1
    9     7    10    1
   10    10    11    1
   11    10    12    1
   12    10    13    1
   13    13    14    1
   14    13    15    1
   15    13    16    1
   16    16    17    1
   17    16    18    1
   18    16    19    1
   19    19    20    1
   20    19    21    1
   21    19    22    1
   22    22    23    1
   23    22    24    1
   24    22    25    1
@<TRIPOS>SUBSTRUCTURE
       1 MOL1            1 RESIDUE      1      MOL     
@<SCITEGIC>MOL_PROPERTY
VConf Rank
SciTegic.value.IntegerValue
506

@<SCITEGIC>MOL_PROPERTY
Conf_Id
SciTegic.value.IntegerValue
75

@<SCITEGIC>MOL_PROPERTY
Delta U+W
SciTegic.value.DoubleValue
1.014

@<SCITEGIC>MOL_PROPERTY
U+W
SciTegic.value.DoubleValue
-50.615

@<SCITEGIC>MOL_PROPERTY
Grad RMS
SciTegic.value.DoubleValue
0.000000

@<SCITEGIC>MOL_PROPERTY
U
SciTegic.value.DoubleValue
8.474

@<SCITEGIC>MOL_PROPERTY
W
SciTegic.value.DoubleValue
-59.089

@<SCITEGIC>MOL_PROPERTY
W(PB)
SciTegic.value.DoubleValue
-61.530

@<SCITEGIC>MOL_PROPERTY
W(SA)
SciTegic.value.DoubleValue
2.441

@<SCITEGIC>MOL_PROPERTY
Valence
SciTegic.value.DoubleValue
9.080

@<SCITEGIC>MOL_PROPERTY
Coulomb
SciTegic.value.DoubleValue
-1.772

@<SCITEGIC>MOL_PROPERTY
VdW
SciTegic.value.DoubleValue
1.165

@<SCITEGIC>MOL_PROPERTY
VdW6
SciTegic.value.DoubleValue
-9.830

@<SCITEGIC>MOL_PROPERTY
VdW12
SciTegic.value.DoubleValue
10.996

@<SCITEGIC>MOL_PROPERTY
Bond
SciTegic.value.DoubleValue
0.240

@<SCITEGIC>MOL_PROPERTY
Angle
SciTegic.value.DoubleValue
3.225

@<SCITEGIC>MOL_PROPERTY
Pdih
SciTegic.value.DoubleValue
5.615

@<SCITEGIC>MOL_PROPERTY
Idih
SciTegic.value.DoubleValue
0.001

@<SCITEGIC>MOL_PROPERTY
Tether
SciTegic.value.DoubleValue
0.000

@<TRIPOS>MOLECULE
guest-8_confgen4.mol2 : confsearch ligand conformer 507
          25          24           1
SMALL
USER_CHARGES
 
@<TRIPOS>ATOM
       1    C1      23.497071   18.894881   20.780268 C.2        1 MOL1         0.6168
       2    O1      24.488149   19.025099   21.471252 O.co2      1 MOL1        -0.6703
       3    O2      23.486771   18.293973   19.724109 O.co2      1 MOL1        -0.6703
       4    C2      22.189077   19.500808   21.276339 C.3        1 MOL1        -0.1963
       5    H1      21.603034   19.808717   20.402092 H          1 MOL1         0.0750
       6    H2      22.427658   20.408824   21.843077 H          1 MOL1         0.0750
       7    C3      21.367939   18.523702   22.153309 C.3        1 MOL1        -0.1860
       8    H3      21.148344   17.614760   21.576162 H          1 MOL1         0.0752
       9    H4      21.973464   18.215016   23.016783 H          1 MOL1         0.0752
      10    C4      20.049863   19.160765   22.644202 C.3        1 MOL1        -0.1858
      11    H5      19.448234   19.468112   21.777949 H          1 MOL1         0.0752
      12    H6      20.276442   20.072766   23.209119 H          1 MOL1         0.0752
      13    C5      19.230630   18.178929   23.514598 C.3        1 MOL1        -0.1858
      14    H7      18.997102   17.295089   22.905330 H          1 MOL1         0.0752
      15    H8      19.835878   17.818394   24.357515 H          1 MOL1         0.0752
      16    C6      17.900947   18.781868   24.035013 C.3        1 MOL1        -0.1858
      17    H9      17.144519   17.985225   24.041651 H          1 MOL1         0.0752
      18    H10     17.527366   19.541913   23.335294 H          1 MOL1         0.0752
      19    C7      17.973038   19.367028   25.467247 C.3        1 MOL1        -0.1834
      20    H11     16.965201   19.689379   25.763094 H          1 MOL1         0.0752
      21    H12     18.262317   18.576721   26.173626 H          1 MOL1         0.0752
      22    C8      18.937099   20.562583   25.614239 C.3        1 MOL1        -0.2849
      23    H13     18.713765   21.342355   24.874617 H          1 MOL1         0.0764
      24    H14     18.847144   21.007577   26.613560 H          1 MOL1         0.0764
      25    H15     19.980127   20.247566   25.485855 H          1 MOL1         0.0764
@<TRIPOS>BOND
    1     1     2    1
    2     1     3    2
    3     1     4    1
    4     4     5    1
    5     4     6    1
    6     4     7    1
    7     7     8    1
    8     7     9    1
    9     7    10    1
   10    10    11    1
   11    10    12    1
   12    10    13    1
   13    13    14    1
   14    13    15    1
   15    13    16    1
   16    16    17    1
   17    16    18    1
   18    16    19    1
   19    19    20    1
   20    19    21    1
   21    19    22    1
   22    22    23    1
   23    22    24    1
   24    22    25    1
@<TRIPOS>SUBSTRUCTURE
       1 MOL1            1 RESIDUE      1      MOL     
@<SCITEGIC>MOL_PROPERTY
VConf Rank
SciTegic.value.IntegerValue
507

@<SCITEGIC>MOL_PROPERTY
Conf_Id
SciTegic.value.IntegerValue
125

@<SCITEGIC>MOL_PROPERTY
Delta U+W
SciTegic.value.DoubleValue
2.314

@<SCITEGIC>MOL_PROPERTY
U+W
SciTegic.value.DoubleValue
-49.315

@<SCITEGIC>MOL_PROPERTY
Grad RMS
SciTegic.value.DoubleValue
0.000000

@<SCITEGIC>MOL_PROPERTY
U
SciTegic.value.DoubleValue
9.740

@<SCITEGIC>MOL_PROPERTY
W
SciTegic.value.DoubleValue
-59.054

@<SCITEGIC>MOL_PROPERTY
W(PB)
SciTegic.value.DoubleValue
-61.488

@<SCITEGIC>MOL_PROPERTY
W(SA)
SciTegic.value.DoubleValue
2.433

@<SCITEGIC>MOL_PROPERTY
Valence
SciTegic.value.DoubleValue
10.506

@<SCITEGIC>MOL_PROPERTY
Coulomb
SciTegic.value.DoubleValue
-1.761

@<SCITEGIC>MOL_PROPERTY
VdW
SciTegic.value.DoubleValue
0.994

@<SCITEGIC>MOL_PROPERTY
VdW6
SciTegic.value.DoubleValue
-9.209

@<SCITEGIC>MOL_PROPERTY
VdW12
SciTegic.value.DoubleValue
10.203

@<SCITEGIC>MOL_PROPERTY
Bond
SciTegic.value.DoubleValue
0.193

@<SCITEGIC>MOL_PROPERTY
Angle
SciTegic.value.DoubleValue
2.979

@<SCITEGIC>MOL_PROPERTY
Pdih
SciTegic.value.DoubleValue
7.334

@<SCITEGIC>MOL_PROPERTY
Idih
SciTegic.value.DoubleValue
0.001

@<SCITEGIC>MOL_PROPERTY
Tether
SciTegic.value.DoubleValue
0.000

@<TRIPOS>MOLECULE
guest-8_confgen4.mol2 : confsearch ligand conformer 508
          25          24           1
SMALL
USER_CHARGES
 
@<TRIPOS>ATOM
       1    C1      22.157539   18.665457   19.795781 C.2        1 MOL1         0.6168
       2    O1      23.253215   19.151353   19.996008 O.co2      1 MOL1        -0.6703
       3    O2      21.780701   18.280690   18.706429 O.co2      1 MOL1        -0.6703
       4    C2      21.193246   18.554519   20.971303 C.3        1 MOL1        -0.1963
       5    H1      21.787903   18.372427   21.873492 H          1 MOL1         0.0750
       6    H2      20.563366   17.671164   20.812279 H          1 MOL1         0.0750
       7    C3      20.310134   19.817720   21.143573 C.3        1 MOL1        -0.1860
       8    H3      20.949725   20.687277   21.348810 H          1 MOL1         0.0752
       9    H4      19.801602   20.024733   20.191740 H          1 MOL1         0.0752
      10    C4      19.243101   19.679356   22.255530 C.3        1 MOL1        -0.1858
      11    H5      18.599345   18.814994   22.042392 H          1 MOL1         0.0752
      12    H6      18.593809   20.565077   22.226755 H          1 MOL1         0.0752
      13    C5      19.845919   19.542581   23.672957 C.3        1 MOL1        -0.1858
      14    H7      20.441642   18.623728   23.731687 H          1 MOL1         0.0752
      15    H8      20.527650   20.382317   23.864401 H          1 MOL1         0.0752
      16    C6      18.745725   19.513131   24.759194 C.3        1 MOL1        -0.1858
      17    H9      18.089676   18.646862   24.597748 H          1 MOL1         0.0752
      18    H10     18.114133   20.405715   24.653222 H          1 MOL1         0.0752
      19    C7      19.305048   19.476884   26.200604 C.3        1 MOL1        -0.1834
      20    H11     19.957560   20.345064   26.367333 H          1 MOL1         0.0752
      21    H12     18.468449   19.577815   26.905687 H          1 MOL1         0.0752
      22    C8      20.074867   18.178370   26.525909 C.3        1 MOL1        -0.2849
      23    H13     20.988172   18.092332   25.924112 H          1 MOL1         0.0764
      24    H14     20.371186   18.162471   27.582714 H          1 MOL1         0.0764
      25    H15     19.452240   17.294373   26.336193 H          1 MOL1         0.0764
@<TRIPOS>BOND
    1     1     2    1
    2     1     3    2
    3     1     4    1
    4     4     5    1
    5     4     6    1
    6     4     7    1
    7     7     8    1
    8     7     9    1
    9     7    10    1
   10    10    11    1
   11    10    12    1
   12    10    13    1
   13    13    14    1
   14    13    15    1
   15    13    16    1
   16    16    17    1
   17    16    18    1
   18    16    19    1
   19    19    20    1
   20    19    21    1
   21    19    22    1
   22    22    23    1
   23    22    24    1
   24    22    25    1
@<TRIPOS>SUBSTRUCTURE
       1 MOL1            1 RESIDUE      1      MOL     
@<SCITEGIC>MOL_PROPERTY
VConf Rank
SciTegic.value.IntegerValue
508

@<SCITEGIC>MOL_PROPERTY
Conf_Id
SciTegic.value.IntegerValue
4

@<SCITEGIC>MOL_PROPERTY
Delta U+W
SciTegic.value.DoubleValue
0.189

@<SCITEGIC>MOL_PROPERTY
U+W
SciTegic.value.DoubleValue
-51.441

@<SCITEGIC>MOL_PROPERTY
Grad RMS
SciTegic.value.DoubleValue
0.000000

@<SCITEGIC>MOL_PROPERTY
U
SciTegic.value.DoubleValue
7.701

@<SCITEGIC>MOL_PROPERTY
W
SciTegic.value.DoubleValue
-59.141

@<SCITEGIC>MOL_PROPERTY
W(PB)
SciTegic.value.DoubleValue
-61.609

@<SCITEGIC>MOL_PROPERTY
W(SA)
SciTegic.value.DoubleValue
2.467

@<SCITEGIC>MOL_PROPERTY
Valence
SciTegic.value.DoubleValue
8.550

@<SCITEGIC>MOL_PROPERTY
Coulomb
SciTegic.value.DoubleValue
-1.988

@<SCITEGIC>MOL_PROPERTY
VdW
SciTegic.value.DoubleValue
1.139

@<SCITEGIC>MOL_PROPERTY
VdW6
SciTegic.value.DoubleValue
-8.988

@<SCITEGIC>MOL_PROPERTY
VdW12
SciTegic.value.DoubleValue
10.127

@<SCITEGIC>MOL_PROPERTY
Bond
SciTegic.value.DoubleValue
0.191

@<SCITEGIC>MOL_PROPERTY
Angle
SciTegic.value.DoubleValue
2.738

@<SCITEGIC>MOL_PROPERTY
Pdih
SciTegic.value.DoubleValue
5.621

@<SCITEGIC>MOL_PROPERTY
Idih
SciTegic.value.DoubleValue
0.001

@<SCITEGIC>MOL_PROPERTY
Tether
SciTegic.value.DoubleValue
0.000

@<TRIPOS>MOLECULE
guest-8_confgen4.mol2 : confsearch ligand conformer 509
          25          24           1
SMALL
USER_CHARGES
 
@<TRIPOS>ATOM
       1    C1      17.275349   16.353279   22.337885 C.2        1 MOL1         0.6168
       2    O1      17.526156   15.408184   23.059402 O.co2      1 MOL1        -0.6703
       3    O2      16.296407   16.411070   21.620199 O.co2      1 MOL1        -0.6703
       4    C2      18.229092   17.542487   22.351210 C.3        1 MOL1        -0.1963
       5    H1      18.220638   17.996428   21.353100 H          1 MOL1         0.0750
       6    H2      19.239819   17.156541   22.524986 H          1 MOL1         0.0750
       7    C3      17.854910   18.599099   23.423030 C.3        1 MOL1        -0.1860
       8    H3      16.806464   18.893669   23.276619 H          1 MOL1         0.0752
       9    H4      17.912656   18.144817   24.421842 H          1 MOL1         0.0752
      10    C4      18.737740   19.868899   23.374282 C.3        1 MOL1        -0.1858
      11    H5      18.329646   20.603682   24.081716 H          1 MOL1         0.0752
      12    H6      18.670094   20.326165   22.377635 H          1 MOL1         0.0752
      13    C5      20.219898   19.601485   23.724843 C.3        1 MOL1        -0.1858
      14    H7      20.281560   19.099181   24.699755 H          1 MOL1         0.0752
      15    H8      20.655751   18.921118   22.983387 H          1 MOL1         0.0752
      16    C6      21.040438   20.911516   23.766511 C.3        1 MOL1        -0.1858
      17    H9      20.561347   21.611884   24.464221 H          1 MOL1         0.0752
      18    H10     21.019321   21.392724   22.779151 H          1 MOL1         0.0752
      19    C7      22.507572   20.704729   24.209876 C.3        1 MOL1        -0.1834
      20    H11     22.982026   21.688752   24.327428 H          1 MOL1         0.0752
      21    H12     22.532429   20.228264   25.199660 H          1 MOL1         0.0752
      22    C8      23.337075   19.869605   23.210336 C.3        1 MOL1        -0.2849
      23    H13     23.300939   20.309874   22.205365 H          1 MOL1         0.0764
      24    H14     24.388247   19.828964   23.523833 H          1 MOL1         0.0764
      25    H15     22.969489   18.837767   23.148060 H          1 MOL1         0.0764
@<TRIPOS>BOND
    1     1     2    1
    2     1     3    2
    3     1     4    1
    4     4     5    1
    5     4     6    1
    6     4     7    1
    7     7     8    1
    8     7     9    1
    9     7    10    1
   10    10    11    1
   11    10    12    1
   12    10    13    1
   13    13    14    1
   14    13    15    1
   15    13    16    1
   16    16    17    1
   17    16    18    1
   18    16    19    1
   19    19    20    1
   20    19    21    1
   21    19    22    1
   22    22    23    1
   23    22    24    1
   24    22    25    1
@<TRIPOS>SUBSTRUCTURE
       1 MOL1            1 RESIDUE      1      MOL     
@<SCITEGIC>MOL_PROPERTY
VConf Rank
SciTegic.value.IntegerValue
509

@<SCITEGIC>MOL_PROPERTY
Conf_Id
SciTegic.value.IntegerValue
17

@<SCITEGIC>MOL_PROPERTY
Delta U+W
SciTegic.value.DoubleValue
0.219

@<SCITEGIC>MOL_PROPERTY
U+W
SciTegic.value.DoubleValue
-51.411

@<SCITEGIC>MOL_PROPERTY
Grad RMS
SciTegic.value.DoubleValue
0.000000

@<SCITEGIC>MOL_PROPERTY
U
SciTegic.value.DoubleValue
7.701

@<SCITEGIC>MOL_PROPERTY
W
SciTegic.value.DoubleValue
-59.111

@<SCITEGIC>MOL_PROPERTY
W(PB)
SciTegic.value.DoubleValue
-61.599

@<SCITEGIC>MOL_PROPERTY
W(SA)
SciTegic.value.DoubleValue
2.488

@<SCITEGIC>MOL_PROPERTY
Valence
SciTegic.value.DoubleValue
8.550

@<SCITEGIC>MOL_PROPERTY
Coulomb
SciTegic.value.DoubleValue
-1.988

@<SCITEGIC>MOL_PROPERTY
VdW
SciTegic.value.DoubleValue
1.139

@<SCITEGIC>MOL_PROPERTY
VdW6
SciTegic.value.DoubleValue
-8.988

@<SCITEGIC>MOL_PROPERTY
VdW12
SciTegic.value.DoubleValue
10.127

@<SCITEGIC>MOL_PROPERTY
Bond
SciTegic.value.DoubleValue
0.191

@<SCITEGIC>MOL_PROPERTY
Angle
SciTegic.value.DoubleValue
2.738

@<SCITEGIC>MOL_PROPERTY
Pdih
SciTegic.value.DoubleValue
5.621

@<SCITEGIC>MOL_PROPERTY
Idih
SciTegic.value.DoubleValue
0.001

@<SCITEGIC>MOL_PROPERTY
Tether
SciTegic.value.DoubleValue
0.000

@<TRIPOS>MOLECULE
guest-8_confgen4.mol2 : confsearch ligand conformer 510
          25          24           1
SMALL
USER_CHARGES
 
@<TRIPOS>ATOM
       1    C1      21.267291   15.765049   23.396482 C.2        1 MOL1         0.6168
       2    O1      22.291834   15.685090   22.747652 O.co2      1 MOL1        -0.6703
       3    O2      20.232930   15.203979   23.092551 O.co2      1 MOL1        -0.6703
       4    C2      21.283639   16.599750   24.673955 C.3        1 MOL1        -0.1963
       5    H1      22.324559   16.729331   24.994061 H          1 MOL1         0.0750
       6    H2      20.782101   16.015510   25.454409 H          1 MOL1         0.0750
       7    C3      20.589730   17.979416   24.532850 C.3        1 MOL1        -0.1860
       8    H3      19.556961   17.824699   24.193556 H          1 MOL1         0.0752
       9    H4      20.531927   18.452626   25.522293 H          1 MOL1         0.0752
      10    C4      21.337555   18.921194   23.558908 C.3        1 MOL1        -0.1858
      11    H5      21.339166   18.488622   22.548858 H          1 MOL1         0.0752
      12    H6      22.389771   18.990709   23.866896 H          1 MOL1         0.0752
      13    C5      20.745505   20.349644   23.506651 C.3        1 MOL1        -0.1858
      14    H7      20.751009   20.787587   24.514136 H          1 MOL1         0.0752
      15    H8      21.405094   20.976970   22.891620 H          1 MOL1         0.0752
      16    C6      19.314641   20.402284   22.922796 C.3        1 MOL1        -0.1858
      17    H9      18.625757   19.841708   23.567871 H          1 MOL1         0.0752
      18    H10     19.301661   19.914286   21.938630 H          1 MOL1         0.0752
      19    C7      18.808001   21.853503   22.784860 C.3        1 MOL1        -0.1834
      20    H11     18.821491   22.345108   23.767510 H          1 MOL1         0.0752
      21    H12     19.485764   22.422719   22.133665 H          1 MOL1         0.0752
      22    C8      17.379683   21.904164   22.206014 C.3        1 MOL1        -0.2849
      23    H13     16.673707   21.369344   22.854819 H          1 MOL1         0.0764
      24    H14     17.035868   22.942657   22.114476 H          1 MOL1         0.0764
      25    H15     17.343558   21.445982   21.208945 H          1 MOL1         0.0764
@<TRIPOS>BOND
    1     1     2    1
    2     1     3    2
    3     1     4    1
    4     4     5    1
    5     4     6    1
    6     4     7    1
    7     7     8    1
    8     7     9    1
    9     7    10    1
   10    10    11    1
   11    10    12    1
   12    10    13    1
   13    13    14    1
   14    13    15    1
   15    13    16    1
   16    16    17    1
   17    16    18    1
   18    16    19    1
   19    19    20    1
   20    19    21    1
   21    19    22    1
   22    22    23    1
   23    22    24    1
   24    22    25    1
@<TRIPOS>SUBSTRUCTURE
       1 MOL1            1 RESIDUE      1      MOL     
@<SCITEGIC>MOL_PROPERTY
VConf Rank
SciTegic.value.IntegerValue
510

@<SCITEGIC>MOL_PROPERTY
Conf_Id
SciTegic.value.IntegerValue
142

@<SCITEGIC>MOL_PROPERTY
Delta U+W
SciTegic.value.DoubleValue
0.593

@<SCITEGIC>MOL_PROPERTY
U+W
SciTegic.value.DoubleValue
-51.037

@<SCITEGIC>MOL_PROPERTY
Grad RMS
SciTegic.value.DoubleValue
0.000000

@<SCITEGIC>MOL_PROPERTY
U
SciTegic.value.DoubleValue
8.903

@<SCITEGIC>MOL_PROPERTY
W
SciTegic.value.DoubleValue
-59.940

@<SCITEGIC>MOL_PROPERTY
W(PB)
SciTegic.value.DoubleValue
-62.418

@<SCITEGIC>MOL_PROPERTY
W(SA)
SciTegic.value.DoubleValue
2.478

@<SCITEGIC>MOL_PROPERTY
Valence
SciTegic.value.DoubleValue
8.305

@<SCITEGIC>MOL_PROPERTY
Coulomb
SciTegic.value.DoubleValue
-0.223

@<SCITEGIC>MOL_PROPERTY
VdW
SciTegic.value.DoubleValue
0.821

@<SCITEGIC>MOL_PROPERTY
VdW6
SciTegic.value.DoubleValue
-9.236

@<SCITEGIC>MOL_PROPERTY
VdW12
SciTegic.value.DoubleValue
10.057

@<SCITEGIC>MOL_PROPERTY
Bond
SciTegic.value.DoubleValue
0.173

@<SCITEGIC>MOL_PROPERTY
Angle
SciTegic.value.DoubleValue
2.663

@<SCITEGIC>MOL_PROPERTY
Pdih
SciTegic.value.DoubleValue
5.469

@<SCITEGIC>MOL_PROPERTY
Idih
SciTegic.value.DoubleValue
0.001

@<SCITEGIC>MOL_PROPERTY
Tether
SciTegic.value.DoubleValue
0.000

@<TRIPOS>MOLECULE
guest-8_confgen4.mol2 : confsearch ligand conformer 511
          25          24           1
SMALL
USER_CHARGES
 
@<TRIPOS>ATOM
       1    C1      21.467128   21.701364   21.288093 C.2        1 MOL1         0.6168
       2    O1      21.654466   22.902339   21.299124 O.co2      1 MOL1        -0.6703
       3    O2      22.258816   20.901945   20.828510 O.co2      1 MOL1        -0.6703
       4    C2      20.153373   21.173911   21.857985 C.3        1 MOL1        -0.1963
       5    H1      20.018001   20.137586   21.527829 H          1 MOL1         0.0750
       6    H2      19.343232   21.753783   21.400886 H          1 MOL1         0.0750
       7    C3      20.047904   21.273146   23.404323 C.3        1 MOL1        -0.1860
       8    H3      20.118782   22.330422   23.694701 H          1 MOL1         0.0752
       9    H4      19.050745   20.940984   23.720851 H          1 MOL1         0.0752
      10    C4      21.132413   20.474640   24.173005 C.3        1 MOL1        -0.1858
      11    H5      20.975244   20.614316   25.251145 H          1 MOL1         0.0752
      12    H6      22.117977   20.907786   23.953611 H          1 MOL1         0.0752
      13    C5      21.179507   18.956921   23.865372 C.3        1 MOL1        -0.1858
      14    H7      21.447216   18.797505   22.812247 H          1 MOL1         0.0752
      15    H8      21.991715   18.510529   24.454935 H          1 MOL1         0.0752
      16    C6      19.859667   18.219304   24.188807 C.3        1 MOL1        -0.1858
      17    H9      19.051304   18.605206   23.554193 H          1 MOL1         0.0752
      18    H10     19.573737   18.418157   25.230621 H          1 MOL1         0.0752
      19    C7      19.988781   16.697090   23.970562 C.3        1 MOL1        -0.1834
      20    H11     20.277388   16.496102   22.929512 H          1 MOL1         0.0752
      21    H12     20.790569   16.297837   24.607041 H          1 MOL1         0.0752
      22    C8      18.670001   15.963638   24.287673 C.3        1 MOL1        -0.2849
      23    H13     17.856861   16.321092   23.642386 H          1 MOL1         0.0764
      24    H14     18.779913   14.883243   24.127358 H          1 MOL1         0.0764
      25    H15     18.373603   16.122916   25.332724 H          1 MOL1         0.0764
@<TRIPOS>BOND
    1     1     2    1
    2     1     3    2
    3     1     4    1
    4     4     5    1
    5     4     6    1
    6     4     7    1
    7     7     8    1
    8     7     9    1
    9     7    10    1
   10    10    11    1
   11    10    12    1
   12    10    13    1
   13    13    14    1
   14    13    15    1
   15    13    16    1
   16    16    17    1
   17    16    18    1
   18    16    19    1
   19    19    20    1
   20    19    21    1
   21    19    22    1
   22    22    23    1
   23    22    24    1
   24    22    25    1
@<TRIPOS>SUBSTRUCTURE
       1 MOL1            1 RESIDUE      1      MOL     
@<SCITEGIC>MOL_PROPERTY
VConf Rank
SciTegic.value.IntegerValue
511

@<SCITEGIC>MOL_PROPERTY
Conf_Id
SciTegic.value.IntegerValue
135

@<SCITEGIC>MOL_PROPERTY
Delta U+W
SciTegic.value.DoubleValue
1.314

@<SCITEGIC>MOL_PROPERTY
U+W
SciTegic.value.DoubleValue
-50.316

@<SCITEGIC>MOL_PROPERTY
Grad RMS
SciTegic.value.DoubleValue
0.000000

@<SCITEGIC>MOL_PROPERTY
U
SciTegic.value.DoubleValue
9.773

@<SCITEGIC>MOL_PROPERTY
W
SciTegic.value.DoubleValue
-60.088

@<SCITEGIC>MOL_PROPERTY
W(PB)
SciTegic.value.DoubleValue
-62.535

@<SCITEGIC>MOL_PROPERTY
W(SA)
SciTegic.value.DoubleValue
2.447

@<SCITEGIC>MOL_PROPERTY
Valence
SciTegic.value.DoubleValue
8.741

@<SCITEGIC>MOL_PROPERTY
Coulomb
SciTegic.value.DoubleValue
0.479

@<SCITEGIC>MOL_PROPERTY
VdW
SciTegic.value.DoubleValue
0.552

@<SCITEGIC>MOL_PROPERTY
VdW6
SciTegic.value.DoubleValue
-10.627

@<SCITEGIC>MOL_PROPERTY
VdW12
SciTegic.value.DoubleValue
11.179

@<SCITEGIC>MOL_PROPERTY
Bond
SciTegic.value.DoubleValue
0.227

@<SCITEGIC>MOL_PROPERTY
Angle
SciTegic.value.DoubleValue
3.155

@<SCITEGIC>MOL_PROPERTY
Pdih
SciTegic.value.DoubleValue
5.358

@<SCITEGIC>MOL_PROPERTY
Idih
SciTegic.value.DoubleValue
0.001

@<SCITEGIC>MOL_PROPERTY
Tether
SciTegic.value.DoubleValue
0.000

@<TRIPOS>MOLECULE
guest-8_confgen4.mol2 : confsearch ligand conformer 512
          25          24           1
SMALL
USER_CHARGES
 
@<TRIPOS>ATOM
       1    C1      22.878802   16.417916   24.760233 C.2        1 MOL1         0.6168
       2    O1      23.442032   15.778298   23.893975 O.co2      1 MOL1        -0.6703
       3    O2      23.305287   16.539896   25.891605 O.co2      1 MOL1        -0.6703
       4    C2      21.576763   17.125233   24.401651 C.3        1 MOL1        -0.1963
       5    H1      20.948314   17.155776   25.299686 H          1 MOL1         0.0750
       6    H2      21.056535   16.507843   23.661136 H          1 MOL1         0.0750
       7    C3      21.804449   18.560292   23.858887 C.3        1 MOL1        -0.1860
       8    H3      22.411822   19.117082   24.585888 H          1 MOL1         0.0752
       9    H4      22.394336   18.514832   22.933010 H          1 MOL1         0.0752
      10    C4      20.494349   19.344763   23.607539 C.3        1 MOL1        -0.1858
      11    H5      20.763016   20.383886   23.379433 H          1 MOL1         0.0752
      12    H6      19.894655   19.367365   24.527557 H          1 MOL1         0.0752
      13    C5      19.648884   18.776230   22.442883 C.3        1 MOL1        -0.1858
      14    H7      20.235924   18.812256   21.515154 H          1 MOL1         0.0752
      15    H8      19.431910   17.717189   22.629508 H          1 MOL1         0.0752
      16    C6      18.297869   19.503409   22.225083 C.3        1 MOL1        -0.1858
      17    H9      17.663700   19.393114   23.115348 H          1 MOL1         0.0752
      18    H10     17.768780   18.981154   21.416264 H          1 MOL1         0.0752
      19    C7      18.419540   20.997683   21.834517 C.3        1 MOL1        -0.1834
      20    H11     19.378394   21.183597   21.331258 H          1 MOL1         0.0752
      21    H12     17.638283   21.233618   21.098804 H          1 MOL1         0.0752
      22    C8      18.249567   21.955180   23.035172 C.3        1 MOL1        -0.2849
      23    H13     19.006712   21.779480   23.807817 H          1 MOL1         0.0764
      24    H14     18.338712   22.999509   22.709232 H          1 MOL1         0.0764
      25    H15     17.261080   21.830776   23.496148 H          1 MOL1         0.0764
@<TRIPOS>BOND
    1     1     2    1
    2     1     3    2
    3     1     4    1
    4     4     5    1
    5     4     6    1
    6     4     7    1
    7     7     8    1
    8     7     9    1
    9     7    10    1
   10    10    11    1
   11    10    12    1
   12    10    13    1
   13    13    14    1
   14    13    15    1
   15    13    16    1
   16    16    17    1
   17    16    18    1
   18    16    19    1
   19    19    20    1
   20    19    21    1
   21    19    22    1
   22    22    23    1
   23    22    24    1
   24    22    25    1
@<TRIPOS>SUBSTRUCTURE
       1 MOL1            1 RESIDUE      1      MOL     
@<SCITEGIC>MOL_PROPERTY
VConf Rank
SciTegic.value.IntegerValue
512

@<SCITEGIC>MOL_PROPERTY
Conf_Id
SciTegic.value.IntegerValue
19

@<SCITEGIC>MOL_PROPERTY
Delta U+W
SciTegic.value.DoubleValue
3.222

@<SCITEGIC>MOL_PROPERTY
U+W
SciTegic.value.DoubleValue
-48.407

@<SCITEGIC>MOL_PROPERTY
Grad RMS
SciTegic.value.DoubleValue
0.000000

@<SCITEGIC>MOL_PROPERTY
U
SciTegic.value.DoubleValue
10.617

@<SCITEGIC>MOL_PROPERTY
W
SciTegic.value.DoubleValue
-59.025

@<SCITEGIC>MOL_PROPERTY
W(PB)
SciTegic.value.DoubleValue
-61.462

@<SCITEGIC>MOL_PROPERTY
W(SA)
SciTegic.value.DoubleValue
2.437

@<SCITEGIC>MOL_PROPERTY
Valence
SciTegic.value.DoubleValue
11.188

@<SCITEGIC>MOL_PROPERTY
Coulomb
SciTegic.value.DoubleValue
-1.778

@<SCITEGIC>MOL_PROPERTY
VdW
SciTegic.value.DoubleValue
1.208

@<SCITEGIC>MOL_PROPERTY
VdW6
SciTegic.value.DoubleValue
-9.786

@<SCITEGIC>MOL_PROPERTY
VdW12
SciTegic.value.DoubleValue
10.993

@<SCITEGIC>MOL_PROPERTY
Bond
SciTegic.value.DoubleValue
0.241

@<SCITEGIC>MOL_PROPERTY
Angle
SciTegic.value.DoubleValue
3.294

@<SCITEGIC>MOL_PROPERTY
Pdih
SciTegic.value.DoubleValue
7.653

@<SCITEGIC>MOL_PROPERTY
Idih
SciTegic.value.DoubleValue
0.001

@<SCITEGIC>MOL_PROPERTY
Tether
SciTegic.value.DoubleValue
0.000

@<TRIPOS>MOLECULE
guest-8_confgen4.mol2 : confsearch ligand conformer 513
          25          24           1
SMALL
USER_CHARGES
 
@<TRIPOS>ATOM
       1    C1      22.603983   19.416056   19.880778 C.2        1 MOL1         0.6168
       2    O1      22.011385   19.296721   18.826583 O.co2      1 MOL1        -0.6703
       3    O2      23.800206   19.241010   20.003977 O.co2      1 MOL1        -0.6703
       4    C2      21.798591   19.782874   21.122137 C.3        1 MOL1        -0.1963
       5    H1      20.977813   20.435308   20.804605 H          1 MOL1         0.0750
       6    H2      22.444692   20.371054   21.784666 H          1 MOL1         0.0750
       7    C3      21.253922   18.539123   21.871969 C.3        1 MOL1        -0.1860
       8    H3      20.570256   17.983208   21.215583 H          1 MOL1         0.0752
       9    H4      22.094102   17.864247   22.086646 H          1 MOL1         0.0752
      10    C4      20.541785   18.878663   23.203325 C.3        1 MOL1        -0.1858
      11    H5      21.218462   19.456064   23.847760 H          1 MOL1         0.0752
      12    H6      20.336335   17.935433   23.724954 H          1 MOL1         0.0752
      13    C5      19.212959   19.648402   23.013098 C.3        1 MOL1        -0.1858
      14    H7      19.397145   20.561192   22.433125 H          1 MOL1         0.0752
      15    H8      18.520707   19.038363   22.417081 H          1 MOL1         0.0752
      16    C6      18.523650   20.062174   24.337907 C.3        1 MOL1        -0.1858
      17    H9      17.628543   20.643029   24.076639 H          1 MOL1         0.0752
      18    H10     19.170852   20.749420   24.899805 H          1 MOL1         0.0752
      19    C7      18.084846   18.880728   25.238929 C.3        1 MOL1        -0.1834
      20    H11     17.123351   19.133503   25.706833 H          1 MOL1         0.0752
      21    H12     17.901481   17.984464   24.630387 H          1 MOL1         0.0752
      22    C8      19.095789   18.567083   26.364488 C.3        1 MOL1        -0.2849
      23    H13     19.225220   19.434255   27.025051 H          1 MOL1         0.0764
      24    H14     18.740430   17.728627   26.977283 H          1 MOL1         0.0764
      25    H15     20.080143   18.296972   25.965482 H          1 MOL1         0.0764
@<TRIPOS>BOND
    1     1     2    1
    2     1     3    2
    3     1     4    1
    4     4     5    1
    5     4     6    1
    6     4     7    1
    7     7     8    1
    8     7     9    1
    9     7    10    1
   10    10    11    1
   11    10    12    1
   12    10    13    1
   13    13    14    1
   14    13    15    1
   15    13    16    1
   16    16    17    1
   17    16    18    1
   18    16    19    1
   19    19    20    1
   20    19    21    1
   21    19    22    1
   22    22    23    1
   23    22    24    1
   24    22    25    1
@<TRIPOS>SUBSTRUCTURE
       1 MOL1            1 RESIDUE      1      MOL     
@<SCITEGIC>MOL_PROPERTY
VConf Rank
SciTegic.value.IntegerValue
513

@<SCITEGIC>MOL_PROPERTY
Conf_Id
SciTegic.value.IntegerValue
20

@<SCITEGIC>MOL_PROPERTY
Delta U+W
SciTegic.value.DoubleValue
3.224

@<SCITEGIC>MOL_PROPERTY
U+W
SciTegic.value.DoubleValue
-48.406

@<SCITEGIC>MOL_PROPERTY
Grad RMS
SciTegic.value.DoubleValue
0.000000

@<SCITEGIC>MOL_PROPERTY
U
SciTegic.value.DoubleValue
10.617

@<SCITEGIC>MOL_PROPERTY
W
SciTegic.value.DoubleValue
-59.023

@<SCITEGIC>MOL_PROPERTY
W(PB)
SciTegic.value.DoubleValue
-61.467

@<SCITEGIC>MOL_PROPERTY
W(SA)
SciTegic.value.DoubleValue
2.444

@<SCITEGIC>MOL_PROPERTY
Valence
SciTegic.value.DoubleValue
11.188

@<SCITEGIC>MOL_PROPERTY
Coulomb
SciTegic.value.DoubleValue
-1.778

@<SCITEGIC>MOL_PROPERTY
VdW
SciTegic.value.DoubleValue
1.208

@<SCITEGIC>MOL_PROPERTY
VdW6
SciTegic.value.DoubleValue
-9.786

@<SCITEGIC>MOL_PROPERTY
VdW12
SciTegic.value.DoubleValue
10.993

@<SCITEGIC>MOL_PROPERTY
Bond
SciTegic.value.DoubleValue
0.241

@<SCITEGIC>MOL_PROPERTY
Angle
SciTegic.value.DoubleValue
3.294

@<SCITEGIC>MOL_PROPERTY
Pdih
SciTegic.value.DoubleValue
7.653

@<SCITEGIC>MOL_PROPERTY
Idih
SciTegic.value.DoubleValue
0.001

@<SCITEGIC>MOL_PROPERTY
Tether
SciTegic.value.DoubleValue
0.000

@<TRIPOS>MOLECULE
guest-8_confgen4.mol2 : confsearch ligand conformer 514
          25          24           1
SMALL
USER_CHARGES
 
@<TRIPOS>ATOM
       1    C1      16.866324   20.335464   23.594397 C.2        1 MOL1         0.6168
       2    O1      16.201811   19.482731   23.038597 O.co2      1 MOL1        -0.6703
       3    O2      17.204615   21.374577   23.062400 O.co2      1 MOL1        -0.6703
       4    C2      17.241229   20.121747   25.059717 C.3        1 MOL1        -0.1963
       5    H1      16.298265   20.092647   25.617784 H          1 MOL1         0.0750
       6    H2      17.791354   20.999975   25.418697 H          1 MOL1         0.0750
       7    C3      18.044914   18.824381   25.356432 C.3        1 MOL1        -0.1860
       8    H3      17.935201   18.594484   26.424860 H          1 MOL1         0.0752
       9    H4      17.599398   17.976395   24.817887 H          1 MOL1         0.0752
      10    C4      19.559850   18.913414   25.046389 C.3        1 MOL1        -0.1858
      11    H5      20.041998   18.005370   25.433651 H          1 MOL1         0.0752
      12    H6      20.001018   19.755602   25.596775 H          1 MOL1         0.0752
      13    C5      19.888506   19.047015   23.542140 C.3        1 MOL1        -0.1858
      14    H7      19.361542   18.264920   22.978507 H          1 MOL1         0.0752
      15    H8      19.527886   20.012738   23.166193 H          1 MOL1         0.0752
      16    C6      21.406259   18.942214   23.277543 C.3        1 MOL1        -0.1858
      17    H9      21.777512   17.974800   23.642575 H          1 MOL1         0.0752
      18    H10     21.931894   19.721911   23.845710 H          1 MOL1         0.0752
      19    C7      21.736489   19.086911   21.777081 C.3        1 MOL1        -0.1834
      20    H11     21.212760   18.307814   21.205965 H          1 MOL1         0.0752
      21    H12     21.368018   20.054437   21.408668 H          1 MOL1         0.0752
      22    C8      23.252595   18.982417   21.515989 C.3        1 MOL1        -0.2849
      23    H13     23.642043   18.010640   21.846671 H          1 MOL1         0.0764
      24    H14     23.468862   19.087511   20.444893 H          1 MOL1         0.0764
      25    H15     23.798467   19.770604   22.050927 H          1 MOL1         0.0764
@<TRIPOS>BOND
    1     1     2    1
    2     1     3    2
    3     1     4    1
    4     4     5    1
    5     4     6    1
    6     4     7    1
    7     7     8    1
    8     7     9    1
    9     7    10    1
   10    10    11    1
   11    10    12    1
   12    10    13    1
   13    13    14    1
   14    13    15    1
   15    13    16    1
   16    16    17    1
   17    16    18    1
   18    16    19    1
   19    19    20    1
   20    19    21    1
   21    19    22    1
   22    22    23    1
   23    22    24    1
   24    22    25    1
@<TRIPOS>SUBSTRUCTURE
       1 MOL1            1 RESIDUE      1      MOL     
@<SCITEGIC>MOL_PROPERTY
VConf Rank
SciTegic.value.IntegerValue
514

@<SCITEGIC>MOL_PROPERTY
Conf_Id
SciTegic.value.IntegerValue
24

@<SCITEGIC>MOL_PROPERTY
Delta U+W
SciTegic.value.DoubleValue
1.784

@<SCITEGIC>MOL_PROPERTY
U+W
SciTegic.value.DoubleValue
-49.846

@<SCITEGIC>MOL_PROPERTY
Grad RMS
SciTegic.value.DoubleValue
0.000000

@<SCITEGIC>MOL_PROPERTY
U
SciTegic.value.DoubleValue
10.904

@<SCITEGIC>MOL_PROPERTY
W
SciTegic.value.DoubleValue
-60.749

@<SCITEGIC>MOL_PROPERTY
W(PB)
SciTegic.value.DoubleValue
-63.220

@<SCITEGIC>MOL_PROPERTY
W(SA)
SciTegic.value.DoubleValue
2.471

@<SCITEGIC>MOL_PROPERTY
Valence
SciTegic.value.DoubleValue
9.445

@<SCITEGIC>MOL_PROPERTY
Coulomb
SciTegic.value.DoubleValue
0.780

@<SCITEGIC>MOL_PROPERTY
VdW
SciTegic.value.DoubleValue
0.679

@<SCITEGIC>MOL_PROPERTY
VdW6
SciTegic.value.DoubleValue
-10.008

@<SCITEGIC>MOL_PROPERTY
VdW12
SciTegic.value.DoubleValue
10.687

@<SCITEGIC>MOL_PROPERTY
Bond
SciTegic.value.DoubleValue
0.201

@<SCITEGIC>MOL_PROPERTY
Angle
SciTegic.value.DoubleValue
3.198

@<SCITEGIC>MOL_PROPERTY
Pdih
SciTegic.value.DoubleValue
6.039

@<SCITEGIC>MOL_PROPERTY
Idih
SciTegic.value.DoubleValue
0.006

@<SCITEGIC>MOL_PROPERTY
Tether
SciTegic.value.DoubleValue
0.000

@<TRIPOS>MOLECULE
guest-8_confgen4.mol2 : confsearch ligand conformer 515
          25          24           1
SMALL
USER_CHARGES
 
@<TRIPOS>ATOM
       1    C1      22.911556   19.090929   21.953358 C.2        1 MOL1         0.6168
       2    O1      22.828381   18.237041   21.092196 O.co2      1 MOL1        -0.6703
       3    O2      22.769332   20.278321   21.736354 O.co2      1 MOL1        -0.6703
       4    C2      23.279980   18.657407   23.371001 C.3        1 MOL1        -0.1963
       5    H1      23.362520   19.547786   24.005980 H          1 MOL1         0.0750
       6    H2      24.284124   18.222321   23.308841 H          1 MOL1         0.0750
       7    C3      22.318844   17.621141   24.018668 C.3        1 MOL1        -0.1860
       8    H3      22.075445   16.831923   23.293763 H          1 MOL1         0.0752
       9    H4      22.857634   17.123894   24.836519 H          1 MOL1         0.0752
      10    C4      21.017783   18.221058   24.607247 C.3        1 MOL1        -0.1858
      11    H5      21.268381   19.000602   25.339604 H          1 MOL1         0.0752
      12    H6      20.498078   17.429734   25.164647 H          1 MOL1         0.0752
      13    C5      20.052776   18.796567   23.546033 C.3        1 MOL1        -0.1858
      14    H7      20.505308   19.674345   23.067777 H          1 MOL1         0.0752
      15    H8      19.884786   18.050717   22.757026 H          1 MOL1         0.0752
      16    C6      18.699777   19.206900   24.166994 C.3        1 MOL1        -0.1858
      17    H9      18.870188   19.949037   24.958968 H          1 MOL1         0.0752
      18    H10     18.232823   18.333243   24.642012 H          1 MOL1         0.0752
      19    C7      17.739637   19.792314   23.110209 C.3        1 MOL1        -0.1834
      20    H11     18.202726   20.667751   22.634011 H          1 MOL1         0.0752
      21    H12     17.566561   19.052028   22.316812 H          1 MOL1         0.0752
      22    C8      16.389747   20.201486   23.733139 C.3        1 MOL1        -0.2849
      23    H13     16.530743   20.965213   24.509165 H          1 MOL1         0.0764
      24    H14     15.720189   20.615377   22.967991 H          1 MOL1         0.0764
      25    H15     15.889687   19.337168   24.189502 H          1 MOL1         0.0764
@<TRIPOS>BOND
    1     1     2    1
    2     1     3    2
    3     1     4    1
    4     4     5    1
    5     4     6    1
    6     4     7    1
    7     7     8    1
    8     7     9    1
    9     7    10    1
   10    10    11    1
   11    10    12    1
   12    10    13    1
   13    13    14    1
   14    13    15    1
   15    13    16    1
   16    16    17    1
   17    16    18    1
   18    16    19    1
   19    19    20    1
   20    19    21    1
   21    19    22    1
   22    22    23    1
   23    22    24    1
   24    22    25    1
@<TRIPOS>SUBSTRUCTURE
       1 MOL1            1 RESIDUE      1      MOL     
@<SCITEGIC>MOL_PROPERTY
VConf Rank
SciTegic.value.IntegerValue
515

@<SCITEGIC>MOL_PROPERTY
Conf_Id
SciTegic.value.IntegerValue
9

@<SCITEGIC>MOL_PROPERTY
Delta U+W
SciTegic.value.DoubleValue
1.764

@<SCITEGIC>MOL_PROPERTY
U+W
SciTegic.value.DoubleValue
-49.865

@<SCITEGIC>MOL_PROPERTY
Grad RMS
SciTegic.value.DoubleValue
0.000000

@<SCITEGIC>MOL_PROPERTY
U
SciTegic.value.DoubleValue
10.902

@<SCITEGIC>MOL_PROPERTY
W
SciTegic.value.DoubleValue
-60.768

@<SCITEGIC>MOL_PROPERTY
W(PB)
SciTegic.value.DoubleValue
-63.223

@<SCITEGIC>MOL_PROPERTY
W(SA)
SciTegic.value.DoubleValue
2.456

@<SCITEGIC>MOL_PROPERTY
Valence
SciTegic.value.DoubleValue
9.445

@<SCITEGIC>MOL_PROPERTY
Coulomb
SciTegic.value.DoubleValue
0.778

@<SCITEGIC>MOL_PROPERTY
VdW
SciTegic.value.DoubleValue
0.679

@<SCITEGIC>MOL_PROPERTY
VdW6
SciTegic.value.DoubleValue
-10.007

@<SCITEGIC>MOL_PROPERTY
VdW12
SciTegic.value.DoubleValue
10.687

@<SCITEGIC>MOL_PROPERTY
Bond
SciTegic.value.DoubleValue
0.201

@<SCITEGIC>MOL_PROPERTY
Angle
SciTegic.value.DoubleValue
3.198

@<SCITEGIC>MOL_PROPERTY
Pdih
SciTegic.value.DoubleValue
6.040

@<SCITEGIC>MOL_PROPERTY
Idih
SciTegic.value.DoubleValue
0.006

@<SCITEGIC>MOL_PROPERTY
Tether
SciTegic.value.DoubleValue
0.000

@<TRIPOS>MOLECULE
guest-8_confgen4.mol2 : confsearch ligand conformer 516
          25          24           1
SMALL
USER_CHARGES
 
@<TRIPOS>ATOM
       1    C1      23.640779   18.573492   23.354359 C.2        1 MOL1         0.6168
       2    O1      23.538735   17.649939   24.137457 O.co2      1 MOL1        -0.6703
       3    O2      24.633217   18.781860   22.684660 O.co2      1 MOL1        -0.6703
       4    C2      22.450457   19.511037   23.187448 C.3        1 MOL1        -0.1963
       5    H1      22.837727   20.512618   22.965827 H          1 MOL1         0.0750
       6    H2      21.936477   19.574010   24.151462 H          1 MOL1         0.0750
       7    C3      21.481193   19.055293   22.064741 C.3        1 MOL1        -0.1860
       8    H3      22.048154   19.017469   21.124229 H          1 MOL1         0.0752
       9    H4      21.137129   18.029267   22.255279 H          1 MOL1         0.0752
      10    C4      20.268208   20.001089   21.873879 C.3        1 MOL1        -0.1858
      11    H5      20.024025   20.030945   20.803178 H          1 MOL1         0.0752
      12    H6      20.540113   21.029986   22.146418 H          1 MOL1         0.0752
      13    C5      18.986836   19.569857   22.630772 C.3        1 MOL1        -0.1858
      14    H7      18.176415   20.259035   22.357277 H          1 MOL1         0.0752
      15    H8      18.680045   18.576370   22.278225 H          1 MOL1         0.0752
      16    C6      19.133625   19.554126   24.170700 C.3        1 MOL1        -0.1858
      17    H9      19.586621   20.499554   24.498355 H          1 MOL1         0.0752
      18    H10     19.819877   18.751155   24.469935 H          1 MOL1         0.0752
      19    C7      17.788838   19.368886   24.911488 C.3        1 MOL1        -0.1834
      20    H11     17.964407   19.467558   25.991583 H          1 MOL1         0.0752
      21    H12     17.097931   20.177062   24.634485 H          1 MOL1         0.0752
      22    C8      17.125361   18.001802   24.637248 C.3        1 MOL1        -0.2849
      23    H13     17.807745   17.177817   24.883305 H          1 MOL1         0.0764
      24    H14     16.220117   17.884863   25.246927 H          1 MOL1         0.0764
      25    H15     16.832321   17.903521   23.584470 H          1 MOL1         0.0764
@<TRIPOS>BOND
    1     1     2    1
    2     1     3    2
    3     1     4    1
    4     4     5    1
    5     4     6    1
    6     4     7    1
    7     7     8    1
    8     7     9    1
    9     7    10    1
   10    10    11    1
   11    10    12    1
   12    10    13    1
   13    13    14    1
   14    13    15    1
   15    13    16    1
   16    16    17    1
   17    16    18    1
   18    16    19    1
   19    19    20    1
   20    19    21    1
   21    19    22    1
   22    22    23    1
   23    22    24    1
   24    22    25    1
@<TRIPOS>SUBSTRUCTURE
       1 MOL1            1 RESIDUE      1      MOL     
@<SCITEGIC>MOL_PROPERTY
VConf Rank
SciTegic.value.IntegerValue
516

@<SCITEGIC>MOL_PROPERTY
Conf_Id
SciTegic.value.IntegerValue
89

@<SCITEGIC>MOL_PROPERTY
Delta U+W
SciTegic.value.DoubleValue
2.903

@<SCITEGIC>MOL_PROPERTY
U+W
SciTegic.value.DoubleValue
-48.726

@<SCITEGIC>MOL_PROPERTY
Grad RMS
SciTegic.value.DoubleValue
0.000000

@<SCITEGIC>MOL_PROPERTY
U
SciTegic.value.DoubleValue
10.996

@<SCITEGIC>MOL_PROPERTY
W
SciTegic.value.DoubleValue
-59.723

@<SCITEGIC>MOL_PROPERTY
W(PB)
SciTegic.value.DoubleValue
-62.151

@<SCITEGIC>MOL_PROPERTY
W(SA)
SciTegic.value.DoubleValue
2.428

@<SCITEGIC>MOL_PROPERTY
Valence
SciTegic.value.DoubleValue
10.985

@<SCITEGIC>MOL_PROPERTY
Coulomb
SciTegic.value.DoubleValue
-0.995

@<SCITEGIC>MOL_PROPERTY
VdW
SciTegic.value.DoubleValue
1.006

@<SCITEGIC>MOL_PROPERTY
VdW6
SciTegic.value.DoubleValue
-10.062

@<SCITEGIC>MOL_PROPERTY
VdW12
SciTegic.value.DoubleValue
11.069

@<SCITEGIC>MOL_PROPERTY
Bond
SciTegic.value.DoubleValue
0.238

@<SCITEGIC>MOL_PROPERTY
Angle
SciTegic.value.DoubleValue
3.202

@<SCITEGIC>MOL_PROPERTY
Pdih
SciTegic.value.DoubleValue
7.544

@<SCITEGIC>MOL_PROPERTY
Idih
SciTegic.value.DoubleValue
0.001

@<SCITEGIC>MOL_PROPERTY
Tether
SciTegic.value.DoubleValue
0.000

@<TRIPOS>MOLECULE
guest-8_confgen4.mol2 : confsearch ligand conformer 517
          25          24           1
SMALL
USER_CHARGES
 
@<TRIPOS>ATOM
       1    C1      17.268787   18.905284   21.461825 C.2        1 MOL1         0.6168
       2    O1      16.418962   18.862066   22.329690 O.co2      1 MOL1        -0.6703
       3    O2      17.384621   19.830844   20.682384 O.co2      1 MOL1        -0.6703
       4    C2      18.197478   17.702940   21.303239 C.3        1 MOL1        -0.1963
       5    H1      17.977555   17.272616   20.319404 H          1 MOL1         0.0750
       6    H2      17.926826   16.942444   22.045643 H          1 MOL1         0.0750
       7    C3      19.716968   18.021847   21.387087 C.3        1 MOL1        -0.1860
       8    H3      20.260853   17.206397   20.891432 H          1 MOL1         0.0752
       9    H4      19.942554   18.929170   20.809635 H          1 MOL1         0.0752
      10    C4      20.277527   18.154340   22.825194 C.3        1 MOL1        -0.1858
      11    H5      21.370905   18.206033   22.751905 H          1 MOL1         0.0752
      12    H6      20.048827   17.244201   23.396068 H          1 MOL1         0.0752
      13    C5      19.757050   19.393989   23.592500 C.3        1 MOL1        -0.1858
      14    H7      19.928885   20.301230   22.997390 H          1 MOL1         0.0752
      15    H8      18.671588   19.308074   23.723749 H          1 MOL1         0.0752
      16    C6      20.389442   19.563397   24.994911 C.3        1 MOL1        -0.1858
      17    H9      20.245334   18.643344   25.577631 H          1 MOL1         0.0752
      18    H10     19.844103   20.355303   25.526317 H          1 MOL1         0.0752
      19    C7      21.890484   19.930855   24.958994 C.3        1 MOL1        -0.1834
      20    H11     22.470674   19.116748   24.505850 H          1 MOL1         0.0752
      21    H12     22.039322   20.819433   24.330135 H          1 MOL1         0.0752
      22    C8      22.438414   20.207661   26.373648 C.3        1 MOL1        -0.2849
      23    H13     22.326677   19.325266   27.017279 H          1 MOL1         0.0764
      24    H14     23.505005   20.463978   26.332001 H          1 MOL1         0.0764
      25    H15     21.907057   21.045131   26.844443 H          1 MOL1         0.0764
@<TRIPOS>BOND
    1     1     2    1
    2     1     3    2
    3     1     4    1
    4     4     5    1
    5     4     6    1
    6     4     7    1
    7     7     8    1
    8     7     9    1
    9     7    10    1
   10    10    11    1
   11    10    12    1
   12    10    13    1
   13    13    14    1
   14    13    15    1
   15    13    16    1
   16    16    17    1
   17    16    18    1
   18    16    19    1
   19    19    20    1
   20    19    21    1
   21    19    22    1
   22    22    23    1
   23    22    24    1
   24    22    25    1
@<TRIPOS>SUBSTRUCTURE
       1 MOL1            1 RESIDUE      1      MOL     
@<SCITEGIC>MOL_PROPERTY
VConf Rank
SciTegic.value.IntegerValue
517

@<SCITEGIC>MOL_PROPERTY
Conf_Id
SciTegic.value.IntegerValue
114

@<SCITEGIC>MOL_PROPERTY
Delta U+W
SciTegic.value.DoubleValue
2.758

@<SCITEGIC>MOL_PROPERTY
U+W
SciTegic.value.DoubleValue
-48.871

@<SCITEGIC>MOL_PROPERTY
Grad RMS
SciTegic.value.DoubleValue
0.000000

@<SCITEGIC>MOL_PROPERTY
U
SciTegic.value.DoubleValue
11.422

@<SCITEGIC>MOL_PROPERTY
W
SciTegic.value.DoubleValue
-60.293

@<SCITEGIC>MOL_PROPERTY
W(PB)
SciTegic.value.DoubleValue
-62.719

@<SCITEGIC>MOL_PROPERTY
W(SA)
SciTegic.value.DoubleValue
2.425

@<SCITEGIC>MOL_PROPERTY
Valence
SciTegic.value.DoubleValue
10.135

@<SCITEGIC>MOL_PROPERTY
Coulomb
SciTegic.value.DoubleValue
0.369

@<SCITEGIC>MOL_PROPERTY
VdW
SciTegic.value.DoubleValue
0.918

@<SCITEGIC>MOL_PROPERTY
VdW6
SciTegic.value.DoubleValue
-10.482

@<SCITEGIC>MOL_PROPERTY
VdW12
SciTegic.value.DoubleValue
11.400

@<SCITEGIC>MOL_PROPERTY
Bond
SciTegic.value.DoubleValue
0.245

@<SCITEGIC>MOL_PROPERTY
Angle
SciTegic.value.DoubleValue
3.539

@<SCITEGIC>MOL_PROPERTY
Pdih
SciTegic.value.DoubleValue
6.346

@<SCITEGIC>MOL_PROPERTY
Idih
SciTegic.value.DoubleValue
0.006

@<SCITEGIC>MOL_PROPERTY
Tether
SciTegic.value.DoubleValue
0.000

@<TRIPOS>MOLECULE
guest-8_confgen4.mol2 : confsearch ligand conformer 518
          25          24           1
SMALL
USER_CHARGES
 
@<TRIPOS>ATOM
       1    C1      18.882544   18.126291   26.850862 C.2        1 MOL1         0.6168
       2    O1      18.332645   17.052516   26.703614 O.co2      1 MOL1        -0.6703
       3    O2      19.841548   18.296971   27.577689 O.co2      1 MOL1        -0.6703
       4    C2      18.327211   19.332358   26.098563 C.3        1 MOL1        -0.1963
       5    H1      18.275369   20.166568   26.808059 H          1 MOL1         0.0750
       6    H2      17.297349   19.110731   25.793537 H          1 MOL1         0.0750
       7    C3      19.173338   19.750446   24.868015 C.3        1 MOL1        -0.1860
       8    H3      18.778999   20.694276   24.468101 H          1 MOL1         0.0752
       9    H4      20.202065   19.949128   25.195997 H          1 MOL1         0.0752
      10    C4      19.163577   18.678608   23.751626 C.3        1 MOL1        -0.1858
      11    H5      18.121930   18.429210   23.507460 H          1 MOL1         0.0752
      12    H6      19.624827   17.751594   24.119312 H          1 MOL1         0.0752
      13    C5      19.876114   19.129481   22.454056 C.3        1 MOL1        -0.1858
      14    H7      19.689149   18.370473   21.683903 H          1 MOL1         0.0752
      15    H8      19.422745   20.061252   22.089663 H          1 MOL1         0.0752
      16    C6      21.403246   19.322577   22.624716 C.3        1 MOL1        -0.1858
      17    H9      21.855535   18.391560   22.992579 H          1 MOL1         0.0752
      18    H10     21.591751   20.084575   23.391455 H          1 MOL1         0.0752
      19    C7      22.115609   19.765737   21.325260 C.3        1 MOL1        -0.1834
      20    H11     21.658017   20.690721   20.948030 H          1 MOL1         0.0752
      21    H12     23.159707   20.011426   21.563451 H          1 MOL1         0.0752
      22    C8      22.101092   18.688755   20.218550 C.3        1 MOL1        -0.2849
      23    H13     22.699789   19.014997   19.358299 H          1 MOL1         0.0764
      24    H14     22.522832   17.743573   20.584445 H          1 MOL1         0.0764
      25    H15     21.082825   18.495695   19.859014 H          1 MOL1         0.0764
@<TRIPOS>BOND
    1     1     2    1
    2     1     3    2
    3     1     4    1
    4     4     5    1
    5     4     6    1
    6     4     7    1
    7     7     8    1
    8     7     9    1
    9     7    10    1
   10    10    11    1
   11    10    12    1
   12    10    13    1
   13    13    14    1
   14    13    15    1
   15    13    16    1
   16    16    17    1
   17    16    18    1
   18    16    19    1
   19    19    20    1
   20    19    21    1
   21    19    22    1
   22    22    23    1
   23    22    24    1
   24    22    25    1
@<TRIPOS>SUBSTRUCTURE
       1 MOL1            1 RESIDUE      1      MOL     
@<SCITEGIC>MOL_PROPERTY
VConf Rank
SciTegic.value.IntegerValue
518

@<SCITEGIC>MOL_PROPERTY
Conf_Id
SciTegic.value.IntegerValue
87

@<SCITEGIC>MOL_PROPERTY
Delta U+W
SciTegic.value.DoubleValue
1.453

@<SCITEGIC>MOL_PROPERTY
U+W
SciTegic.value.DoubleValue
-50.176

@<SCITEGIC>MOL_PROPERTY
Grad RMS
SciTegic.value.DoubleValue
0.000000

@<SCITEGIC>MOL_PROPERTY
U
SciTegic.value.DoubleValue
9.763

@<SCITEGIC>MOL_PROPERTY
W
SciTegic.value.DoubleValue
-59.940

@<SCITEGIC>MOL_PROPERTY
W(PB)
SciTegic.value.DoubleValue
-62.392

@<SCITEGIC>MOL_PROPERTY
W(SA)
SciTegic.value.DoubleValue
2.452

@<SCITEGIC>MOL_PROPERTY
Valence
SciTegic.value.DoubleValue
8.883

@<SCITEGIC>MOL_PROPERTY
Coulomb
SciTegic.value.DoubleValue
-0.122

@<SCITEGIC>MOL_PROPERTY
VdW
SciTegic.value.DoubleValue
1.003

@<SCITEGIC>MOL_PROPERTY
VdW6
SciTegic.value.DoubleValue
-9.782

@<SCITEGIC>MOL_PROPERTY
VdW12
SciTegic.value.DoubleValue
10.785

@<SCITEGIC>MOL_PROPERTY
Bond
SciTegic.value.DoubleValue
0.212

@<SCITEGIC>MOL_PROPERTY
Angle
SciTegic.value.DoubleValue
2.940

@<SCITEGIC>MOL_PROPERTY
Pdih
SciTegic.value.DoubleValue
5.730

@<SCITEGIC>MOL_PROPERTY
Idih
SciTegic.value.DoubleValue
0.001

@<SCITEGIC>MOL_PROPERTY
Tether
SciTegic.value.DoubleValue
0.000

@<TRIPOS>MOLECULE
guest-8_confgen4.mol2 : confsearch ligand conformer 519
          25          24           1
SMALL
USER_CHARGES
 
@<TRIPOS>ATOM
       1    C1      20.481913   22.393998   21.177142 C.2        1 MOL1         0.6168
       2    O1      20.716173   23.226643   22.030669 O.co2      1 MOL1        -0.6703
       3    O2      20.933573   22.439822   20.049912 O.co2      1 MOL1        -0.6703
       4    C2      19.586436   21.216731   21.546372 C.3        1 MOL1        -0.1963
       5    H1      19.026591   20.920758   20.651132 H          1 MOL1         0.0750
       6    H2      18.855396   21.563662   22.286503 H          1 MOL1         0.0750
       7    C3      20.379739   20.009892   22.105084 C.3        1 MOL1        -0.1860
       8    H3      21.113181   19.678982   21.356951 H          1 MOL1         0.0752
       9    H4      20.946447   20.335386   22.987513 H          1 MOL1         0.0752
      10    C4      19.447828   18.833770   22.477784 C.3        1 MOL1        -0.1858
      11    H5      18.839873   18.568291   21.602265 H          1 MOL1         0.0752
      12    H6      18.740167   19.151999   23.254542 H          1 MOL1         0.0752
      13    C5      20.209237   17.567882   22.944819 C.3        1 MOL1        -0.1858
      14    H7      19.482910   16.766035   23.131553 H          1 MOL1         0.0752
      15    H8      20.840606   17.210130   22.120285 H          1 MOL1         0.0752
      16    C6      21.097991   17.755415   24.202901 C.3        1 MOL1        -0.1858
      17    H9      21.925802   18.436099   23.964861 H          1 MOL1         0.0752
      18    H10     21.567105   16.792513   24.446294 H          1 MOL1         0.0752
      19    C7      20.360583   18.282015   25.458709 C.3        1 MOL1        -0.1834
      20    H11     21.091073   18.397671   26.271058 H          1 MOL1         0.0752
      21    H12     19.957897   19.285535   25.267333 H          1 MOL1         0.0752
      22    C8      19.228106   17.348168   25.937735 C.3        1 MOL1        -0.2849
      23    H13     19.606068   16.333763   26.119565 H          1 MOL1         0.0764
      24    H14     18.793034   17.720566   26.874090 H          1 MOL1         0.0764
      25    H15     18.421281   17.287645   25.196576 H          1 MOL1         0.0764
@<TRIPOS>BOND
    1     1     2    1
    2     1     3    2
    3     1     4    1
    4     4     5    1
    5     4     6    1
    6     4     7    1
    7     7     8    1
    8     7     9    1
    9     7    10    1
   10    10    11    1
   11    10    12    1
   12    10    13    1
   13    13    14    1
   14    13    15    1
   15    13    16    1
   16    16    17    1
   17    16    18    1
   18    16    19    1
   19    19    20    1
   20    19    21    1
   21    19    22    1
   22    22    23    1
   23    22    24    1
   24    22    25    1
@<TRIPOS>SUBSTRUCTURE
       1 MOL1            1 RESIDUE      1      MOL     
@<SCITEGIC>MOL_PROPERTY
VConf Rank
SciTegic.value.IntegerValue
519

@<SCITEGIC>MOL_PROPERTY
Conf_Id
SciTegic.value.IntegerValue
29

@<SCITEGIC>MOL_PROPERTY
Delta U+W
SciTegic.value.DoubleValue
0.850

@<SCITEGIC>MOL_PROPERTY
U+W
SciTegic.value.DoubleValue
-50.780

@<SCITEGIC>MOL_PROPERTY
Grad RMS
SciTegic.value.DoubleValue
0.000000

@<SCITEGIC>MOL_PROPERTY
U
SciTegic.value.DoubleValue
8.646

@<SCITEGIC>MOL_PROPERTY
W
SciTegic.value.DoubleValue
-59.426

@<SCITEGIC>MOL_PROPERTY
W(PB)
SciTegic.value.DoubleValue
-61.868

@<SCITEGIC>MOL_PROPERTY
W(SA)
SciTegic.value.DoubleValue
2.442

@<SCITEGIC>MOL_PROPERTY
Valence
SciTegic.value.DoubleValue
8.924

@<SCITEGIC>MOL_PROPERTY
Coulomb
SciTegic.value.DoubleValue
-1.171

@<SCITEGIC>MOL_PROPERTY
VdW
SciTegic.value.DoubleValue
0.894

@<SCITEGIC>MOL_PROPERTY
VdW6
SciTegic.value.DoubleValue
-10.223

@<SCITEGIC>MOL_PROPERTY
VdW12
SciTegic.value.DoubleValue
11.117

@<SCITEGIC>MOL_PROPERTY
Bond
SciTegic.value.DoubleValue
0.231

@<SCITEGIC>MOL_PROPERTY
Angle
SciTegic.value.DoubleValue
3.232

@<SCITEGIC>MOL_PROPERTY
Pdih
SciTegic.value.DoubleValue
5.461

@<SCITEGIC>MOL_PROPERTY
Idih
SciTegic.value.DoubleValue
0.001

@<SCITEGIC>MOL_PROPERTY
Tether
SciTegic.value.DoubleValue
0.000

@<TRIPOS>MOLECULE
guest-8_confgen4.mol2 : confsearch ligand conformer 520
          25          24           1
SMALL
USER_CHARGES
 
@<TRIPOS>ATOM
       1    C1      17.760986   16.059328   22.342265 C.2        1 MOL1         0.6168
       2    O1      18.385998   15.589606   21.411993 O.co2      1 MOL1        -0.6703
       3    O2      16.550474   16.006559   22.435092 O.co2      1 MOL1        -0.6703
       4    C2      18.537023   16.770940   23.444783 C.3        1 MOL1        -0.1963
       5    H1      19.514713   16.283887   23.542122 H          1 MOL1         0.0750
       6    H2      18.002788   16.618419   24.390200 H          1 MOL1         0.0750
       7    C3      18.719638   18.284111   23.171068 C.3        1 MOL1        -0.1860
       8    H3      19.238165   18.411280   22.211514 H          1 MOL1         0.0752
       9    H4      17.733160   18.756678   23.067702 H          1 MOL1         0.0752
      10    C4      19.515420   18.979308   24.299814 C.3        1 MOL1        -0.1858
      11    H5      20.516190   18.534498   24.377344 H          1 MOL1         0.0752
      12    H6      19.019543   18.782616   25.260043 H          1 MOL1         0.0752
      13    C5      19.632974   20.513266   24.116804 C.3        1 MOL1        -0.1858
      14    H7      18.625557   20.950491   24.137233 H          1 MOL1         0.0752
      15    H8      20.156780   20.934716   24.984783 H          1 MOL1         0.0752
      16    C6      20.345472   20.973057   22.817280 C.3        1 MOL1        -0.1858
      17    H9      20.385146   22.070719   22.809889 H          1 MOL1         0.0752
      18    H10     19.734328   20.693187   21.949270 H          1 MOL1         0.0752
      19    C7      21.778985   20.421263   22.620564 C.3        1 MOL1        -0.1834
      20    H11     21.754137   19.326737   22.535524 H          1 MOL1         0.0752
      21    H12     22.168420   20.791617   21.662398 H          1 MOL1         0.0752
      22    C8      22.751846   20.835055   23.745887 C.3        1 MOL1        -0.2849
      23    H13     22.458318   20.396131   24.707725 H          1 MOL1         0.0764
      24    H14     23.769522   20.491653   23.519744 H          1 MOL1         0.0764
      25    H15     22.779836   21.926529   23.859180 H          1 MOL1         0.0764
@<TRIPOS>BOND
    1     1     2    1
    2     1     3    2
    3     1     4    1
    4     4     5    1
    5     4     6    1
    6     4     7    1
    7     7     8    1
    8     7     9    1
    9     7    10    1
   10    10    11    1
   11    10    12    1
   12    10    13    1
   13    13    14    1
   14    13    15    1
   15    13    16    1
   16    16    17    1
   17    16    18    1
   18    16    19    1
   19    19    20    1
   20    19    21    1
   21    19    22    1
   22    22    23    1
   23    22    24    1
   24    22    25    1
@<TRIPOS>SUBSTRUCTURE
       1 MOL1            1 RESIDUE      1      MOL     
@<SCITEGIC>MOL_PROPERTY
VConf Rank
SciTegic.value.IntegerValue
520

@<SCITEGIC>MOL_PROPERTY
Conf_Id
SciTegic.value.IntegerValue
30

@<SCITEGIC>MOL_PROPERTY
Delta U+W
SciTegic.value.DoubleValue
0.843

@<SCITEGIC>MOL_PROPERTY
U+W
SciTegic.value.DoubleValue
-50.787

@<SCITEGIC>MOL_PROPERTY
Grad RMS
SciTegic.value.DoubleValue
0.000000

@<SCITEGIC>MOL_PROPERTY
U
SciTegic.value.DoubleValue
8.647

@<SCITEGIC>MOL_PROPERTY
W
SciTegic.value.DoubleValue
-59.434

@<SCITEGIC>MOL_PROPERTY
W(PB)
SciTegic.value.DoubleValue
-61.861

@<SCITEGIC>MOL_PROPERTY
W(SA)
SciTegic.value.DoubleValue
2.428

@<SCITEGIC>MOL_PROPERTY
Valence
SciTegic.value.DoubleValue
8.924

@<SCITEGIC>MOL_PROPERTY
Coulomb
SciTegic.value.DoubleValue
-1.170

@<SCITEGIC>MOL_PROPERTY
VdW
SciTegic.value.DoubleValue
0.894

@<SCITEGIC>MOL_PROPERTY
VdW6
SciTegic.value.DoubleValue
-10.224

@<SCITEGIC>MOL_PROPERTY
VdW12
SciTegic.value.DoubleValue
11.118

@<SCITEGIC>MOL_PROPERTY
Bond
SciTegic.value.DoubleValue
0.231

@<SCITEGIC>MOL_PROPERTY
Angle
SciTegic.value.DoubleValue
3.232

@<SCITEGIC>MOL_PROPERTY
Pdih
SciTegic.value.DoubleValue
5.460

@<SCITEGIC>MOL_PROPERTY
Idih
SciTegic.value.DoubleValue
0.000

@<SCITEGIC>MOL_PROPERTY
Tether
SciTegic.value.DoubleValue
0.000

@<TRIPOS>MOLECULE
guest-8_confgen4.mol2 : confsearch ligand conformer 521
          25          24           1
SMALL
USER_CHARGES
 
@<TRIPOS>ATOM
       1    C1      18.075817   15.479533   25.245812 C.2        1 MOL1         0.6168
       2    O1      17.534667   15.091220   24.228477 O.co2      1 MOL1        -0.6703
       3    O2      17.967050   14.911068   26.314052 O.co2      1 MOL1        -0.6703
       4    C2      18.940675   16.740570   25.211137 C.3        1 MOL1        -0.1963
       5    H1      19.939842   16.461511   25.565678 H          1 MOL1         0.0750
       6    H2      18.524655   17.442483   25.943361 H          1 MOL1         0.0750
       7    C3      19.049485   17.430995   23.825535 C.3        1 MOL1        -0.1860
       8    H3      19.460931   16.720230   23.095446 H          1 MOL1         0.0752
       9    H4      18.044475   17.702146   23.473486 H          1 MOL1         0.0752
      10    C4      19.938590   18.692387   23.880561 C.3        1 MOL1        -0.1858
      11    H5      20.942721   18.418909   24.232794 H          1 MOL1         0.0752
      12    H6      19.525367   19.401447   24.611053 H          1 MOL1         0.0752
      13    C5      20.045450   19.377558   22.501210 C.3        1 MOL1        -0.1858
      14    H7      20.458679   18.668737   21.770512 H          1 MOL1         0.0752
      15    H8      19.041463   19.651195   22.148737 H          1 MOL1         0.0752
      16    C6      20.934318   20.638858   22.555522 C.3        1 MOL1        -0.1858
      17    H9      21.938383   20.365440   22.907926 H          1 MOL1         0.0752
      18    H10     20.521209   21.347873   23.286093 H          1 MOL1         0.0752
      19    C7      21.041238   21.323787   21.176827 C.3        1 MOL1        -0.1834
      20    H11     21.455928   20.618047   20.443715 H          1 MOL1         0.0752
      21    H12     20.038770   21.600479   20.821878 H          1 MOL1         0.0752
      22    C8      21.929597   22.582759   21.235231 C.3        1 MOL1        -0.2849
      23    H13     22.948287   22.330123   21.557478 H          1 MOL1         0.0764
      24    H14     21.994494   23.056680   20.247166 H          1 MOL1         0.0764
      25    H15     21.520458   23.319957   21.938468 H          1 MOL1         0.0764
@<TRIPOS>BOND
    1     1     2    1
    2     1     3    2
    3     1     4    1
    4     4     5    1
    5     4     6    1
    6     4     7    1
    7     7     8    1
    8     7     9    1
    9     7    10    1
   10    10    11    1
   11    10    12    1
   12    10    13    1
   13    13    14    1
   14    13    15    1
   15    13    16    1
   16    16    17    1
   17    16    18    1
   18    16    19    1
   19    19    20    1
   20    19    21    1
   21    19    22    1
   22    22    23    1
   23    22    24    1
   24    22    25    1
@<TRIPOS>SUBSTRUCTURE
       1 MOL1            1 RESIDUE      1      MOL     
@<SCITEGIC>MOL_PROPERTY
VConf Rank
SciTegic.value.IntegerValue
521

@<SCITEGIC>MOL_PROPERTY
Conf_Id
SciTegic.value.IntegerValue
0

@<SCITEGIC>MOL_PROPERTY
Delta U+W
SciTegic.value.DoubleValue
0.000

@<SCITEGIC>MOL_PROPERTY
U+W
SciTegic.value.DoubleValue
-51.629

@<SCITEGIC>MOL_PROPERTY
Grad RMS
SciTegic.value.DoubleValue
0.000000

@<SCITEGIC>MOL_PROPERTY
U
SciTegic.value.DoubleValue
6.586

@<SCITEGIC>MOL_PROPERTY
W
SciTegic.value.DoubleValue
-58.216

@<SCITEGIC>MOL_PROPERTY
W(PB)
SciTegic.value.DoubleValue
-60.757

@<SCITEGIC>MOL_PROPERTY
W(SA)
SciTegic.value.DoubleValue
2.541

@<SCITEGIC>MOL_PROPERTY
Valence
SciTegic.value.DoubleValue
8.027

@<SCITEGIC>MOL_PROPERTY
Coulomb
SciTegic.value.DoubleValue
-2.892

@<SCITEGIC>MOL_PROPERTY
VdW
SciTegic.value.DoubleValue
1.451

@<SCITEGIC>MOL_PROPERTY
VdW6
SciTegic.value.DoubleValue
-7.931

@<SCITEGIC>MOL_PROPERTY
VdW12
SciTegic.value.DoubleValue
9.383

@<SCITEGIC>MOL_PROPERTY
Bond
SciTegic.value.DoubleValue
0.149

@<SCITEGIC>MOL_PROPERTY
Angle
SciTegic.value.DoubleValue
2.726

@<SCITEGIC>MOL_PROPERTY
Pdih
SciTegic.value.DoubleValue
5.152

@<SCITEGIC>MOL_PROPERTY
Idih
SciTegic.value.DoubleValue
0.000

@<SCITEGIC>MOL_PROPERTY
Tether
SciTegic.value.DoubleValue
0.000

@<TRIPOS>MOLECULE
guest-8_confgen4.mol2 : confsearch ligand conformer 522
          25          24           1
SMALL
USER_CHARGES
 
@<TRIPOS>ATOM
       1    C1      22.891620   22.910397   23.204523 C.2        1 MOL1         0.6168
       2    O1      23.148189   23.364009   22.106785 O.co2      1 MOL1        -0.6703
       3    O2      22.794291   23.589147   24.207742 O.co2      1 MOL1        -0.6703
       4    C2      22.656056   21.409097   23.325714 C.3        1 MOL1        -0.1963
       5    H1      22.997374   21.089740   24.317741 H          1 MOL1         0.0750
       6    H2      23.289633   20.904162   22.586643 H          1 MOL1         0.0750
       7    C3      21.173175   21.014369   23.117678 C.3        1 MOL1        -0.1860
       8    H3      20.551073   21.538327   23.856629 H          1 MOL1         0.0752
       9    H4      20.843292   21.352901   22.125626 H          1 MOL1         0.0752
      10    C4      20.960591   19.490358   23.245040 C.3        1 MOL1        -0.1858
      11    H5      21.292327   19.154986   24.237339 H          1 MOL1         0.0752
      12    H6      21.584833   18.969496   22.505983 H          1 MOL1         0.0752
      13    C5      19.481507   19.099864   23.036975 C.3        1 MOL1        -0.1858
      14    H7      18.857087   19.620543   23.775959 H          1 MOL1         0.0752
      15    H8      19.149582   19.435126   22.044740 H          1 MOL1         0.0752
      16    C6      19.268168   17.575988   23.164132 C.3        1 MOL1        -0.1858
      17    H9      19.599907   17.240418   24.156320 H          1 MOL1         0.0752
      18    H10     19.892459   17.055017   22.425251 H          1 MOL1         0.0752
      19    C7      17.789796   17.185472   22.956109 C.3        1 MOL1        -0.1834
      20    H11     17.162353   17.703327   23.694776 H          1 MOL1         0.0752
      21    H12     17.454911   17.517896   21.963719 H          1 MOL1         0.0752
      22    C8      17.580910   15.663092   23.083887 C.3        1 MOL1        -0.2849
      23    H13     16.524986   15.403443   22.933246 H          1 MOL1         0.0764
      24    H14     18.173331   15.121082   22.335114 H          1 MOL1         0.0764
      25    H15     17.878571   15.307916   24.079198 H          1 MOL1         0.0764
@<TRIPOS>BOND
    1     1     2    1
    2     1     3    2
    3     1     4    1
    4     4     5    1
    5     4     6    1
    6     4     7    1
    7     7     8    1
    8     7     9    1
    9     7    10    1
   10    10    11    1
   11    10    12    1
   12    10    13    1
   13    13    14    1
   14    13    15    1
   15    13    16    1
   16    16    17    1
   17    16    18    1
   18    16    19    1
   19    19    20    1
   20    19    21    1
   21    19    22    1
   22    22    23    1
   23    22    24    1
   24    22    25    1
@<TRIPOS>SUBSTRUCTURE
       1 MOL1            1 RESIDUE      1      MOL     
@<SCITEGIC>MOL_PROPERTY
VConf Rank
SciTegic.value.IntegerValue
522

@<SCITEGIC>MOL_PROPERTY
Conf_Id
SciTegic.value.IntegerValue
27

@<SCITEGIC>MOL_PROPERTY
Delta U+W
SciTegic.value.DoubleValue
-1.297

@<SCITEGIC>MOL_PROPERTY
U+W
SciTegic.value.DoubleValue
-52.926

@<SCITEGIC>MOL_PROPERTY
Grad RMS
SciTegic.value.DoubleValue
0.000000

@<SCITEGIC>MOL_PROPERTY
U
SciTegic.value.DoubleValue
5.617

@<SCITEGIC>MOL_PROPERTY
W
SciTegic.value.DoubleValue
-58.543

@<SCITEGIC>MOL_PROPERTY
W(PB)
SciTegic.value.DoubleValue
-61.065

@<SCITEGIC>MOL_PROPERTY
W(SA)
SciTegic.value.DoubleValue
2.522

@<SCITEGIC>MOL_PROPERTY
Valence
SciTegic.value.DoubleValue
7.531

@<SCITEGIC>MOL_PROPERTY
Coulomb
SciTegic.value.DoubleValue
-2.818

@<SCITEGIC>MOL_PROPERTY
VdW
SciTegic.value.DoubleValue
0.904

@<SCITEGIC>MOL_PROPERTY
VdW6
SciTegic.value.DoubleValue
-7.640

@<SCITEGIC>MOL_PROPERTY
VdW12
SciTegic.value.DoubleValue
8.544

@<SCITEGIC>MOL_PROPERTY
Bond
SciTegic.value.DoubleValue
0.115

@<SCITEGIC>MOL_PROPERTY
Angle
SciTegic.value.DoubleValue
2.271

@<SCITEGIC>MOL_PROPERTY
Pdih
SciTegic.value.DoubleValue
5.144

@<SCITEGIC>MOL_PROPERTY
Idih
SciTegic.value.DoubleValue
0.001

@<SCITEGIC>MOL_PROPERTY
Tether
SciTegic.value.DoubleValue
0.000

@<TRIPOS>MOLECULE
guest-8_confgen4.mol2 : confsearch ligand conformer 523
          25          24           1
SMALL
USER_CHARGES
 
@<TRIPOS>ATOM
       1    C1      22.066586   18.556449   19.797972 C.2        1 MOL1         0.6168
       2    O1      23.261290   18.355850   19.895524 O.co2      1 MOL1        -0.6703
       3    O2      21.275101   17.724804   19.399374 O.co2      1 MOL1        -0.6703
       4    C2      21.535593   19.934754   20.181748 C.3        1 MOL1        -0.1963
       5    H1      20.546774   20.068194   19.726470 H          1 MOL1         0.0750
       6    H2      22.198122   20.679917   19.725928 H          1 MOL1         0.0750
       7    C3      21.458171   20.176876   21.711561 C.3        1 MOL1        -0.1860
       8    H3      22.449402   20.012508   22.156663 H          1 MOL1         0.0752
       9    H4      21.200612   21.229107   21.893283 H          1 MOL1         0.0752
      10    C4      20.416334   19.270310   22.404730 C.3        1 MOL1        -0.1858
      11    H5      20.677050   18.215312   22.242160 H          1 MOL1         0.0752
      12    H6      19.430040   19.428426   21.947294 H          1 MOL1         0.0752
      13    C5      20.333290   19.550307   23.920756 C.3        1 MOL1        -0.1858
      14    H7      21.319991   19.391915   24.377288 H          1 MOL1         0.0752
      15    H8      20.069715   20.604039   24.085728 H          1 MOL1         0.0752
      16    C6      19.293078   18.644224   24.614177 C.3        1 MOL1        -0.1858
      17    H9      19.556492   17.590406   24.449224 H          1 MOL1         0.0752
      18    H10     18.306357   18.802198   24.157551 H          1 MOL1         0.0752
      19    C7      19.210078   18.923357   26.129619 C.3        1 MOL1        -0.1834
      20    H11     20.195094   18.764505   26.590046 H          1 MOL1         0.0752
      21    H12     18.944858   19.976283   26.298394 H          1 MOL1         0.0752
      22    C8      18.170426   18.016438   26.818260 C.3        1 MOL1        -0.2849
      23    H13     18.428610   16.956808   26.692078 H          1 MOL1         0.0764
      24    H14     18.124633   18.228226   27.894424 H          1 MOL1         0.0764
      25    H15     17.168950   18.177661   26.398204 H          1 MOL1         0.0764
@<TRIPOS>BOND
    1     1     2    1
    2     1     3    2
    3     1     4    1
    4     4     5    1
    5     4     6    1
    6     4     7    1
    7     7     8    1
    8     7     9    1
    9     7    10    1
   10    10    11    1
   11    10    12    1
   12    10    13    1
   13    13    14    1
   14    13    15    1
   15    13    16    1
   16    16    17    1
   17    16    18    1
   18    16    19    1
   19    19    20    1
   20    19    21    1
   21    19    22    1
   22    22    23    1
   23    22    24    1
   24    22    25    1
@<TRIPOS>SUBSTRUCTURE
       1 MOL1            1 RESIDUE      1      MOL     
@<SCITEGIC>MOL_PROPERTY
VConf Rank
SciTegic.value.IntegerValue
523

@<SCITEGIC>MOL_PROPERTY
Conf_Id
SciTegic.value.IntegerValue
37

@<SCITEGIC>MOL_PROPERTY
Delta U+W
SciTegic.value.DoubleValue
-0.230

@<SCITEGIC>MOL_PROPERTY
U+W
SciTegic.value.DoubleValue
-51.860

@<SCITEGIC>MOL_PROPERTY
Grad RMS
SciTegic.value.DoubleValue
0.000000

@<SCITEGIC>MOL_PROPERTY
U
SciTegic.value.DoubleValue
7.816

@<SCITEGIC>MOL_PROPERTY
W
SciTegic.value.DoubleValue
-59.675

@<SCITEGIC>MOL_PROPERTY
W(PB)
SciTegic.value.DoubleValue
-62.180

@<SCITEGIC>MOL_PROPERTY
W(SA)
SciTegic.value.DoubleValue
2.505

@<SCITEGIC>MOL_PROPERTY
Valence
SciTegic.value.DoubleValue
7.785

@<SCITEGIC>MOL_PROPERTY
Coulomb
SciTegic.value.DoubleValue
-0.713

@<SCITEGIC>MOL_PROPERTY
VdW
SciTegic.value.DoubleValue
0.744

@<SCITEGIC>MOL_PROPERTY
VdW6
SciTegic.value.DoubleValue
-8.514

@<SCITEGIC>MOL_PROPERTY
VdW12
SciTegic.value.DoubleValue
9.259

@<SCITEGIC>MOL_PROPERTY
Bond
SciTegic.value.DoubleValue
0.136

@<SCITEGIC>MOL_PROPERTY
Angle
SciTegic.value.DoubleValue
2.433

@<SCITEGIC>MOL_PROPERTY
Pdih
SciTegic.value.DoubleValue
5.216

@<SCITEGIC>MOL_PROPERTY
Idih
SciTegic.value.DoubleValue
0.000

@<SCITEGIC>MOL_PROPERTY
Tether
SciTegic.value.DoubleValue
0.000

@<TRIPOS>MOLECULE
guest-8_confgen4.mol2 : confsearch ligand conformer 524
          25          24           1
SMALL
USER_CHARGES
 
@<TRIPOS>ATOM
       1    C1      22.920020   17.417385   21.345965 C.2        1 MOL1         0.6168
       2    O1      23.794133   16.981372   22.069077 O.co2      1 MOL1        -0.6703
       3    O2      23.095821   18.311500   20.541841 O.co2      1 MOL1        -0.6703
       4    C2      21.529894   16.795268   21.443377 C.3        1 MOL1        -0.1963
       5    H1      21.658228   15.706551   21.457813 H          1 MOL1         0.0750
       6    H2      20.973239   17.037330   20.529929 H          1 MOL1         0.0750
       7    C3      20.726892   17.239084   22.693641 C.3        1 MOL1        -0.1860
       8    H3      19.805771   16.643877   22.755398 H          1 MOL1         0.0752
       9    H4      21.309172   17.015455   23.598414 H          1 MOL1         0.0752
      10    C4      20.362297   18.740396   22.663649 C.3        1 MOL1        -0.1858
      11    H5      19.791975   18.961417   21.751012 H          1 MOL1         0.0752
      12    H6      21.279812   19.343414   22.619373 H          1 MOL1         0.0752
      13    C5      19.536613   19.153107   23.901205 C.3        1 MOL1        -0.1858
      14    H7      18.617161   18.553405   23.945942 H          1 MOL1         0.0752
      15    H8      20.107780   18.931824   24.813285 H          1 MOL1         0.0752
      16    C6      19.172540   20.653263   23.872271 C.3        1 MOL1        -0.1858
      17    H9      18.601610   20.874822   22.960114 H          1 MOL1         0.0752
      18    H10     20.091928   21.253129   23.827398 H          1 MOL1         0.0752
      19    C7      18.347752   21.066395   25.109369 C.3        1 MOL1        -0.1834
      20    H11     17.426321   20.469550   25.156480 H          1 MOL1         0.0752
      21    H12     18.916703   20.847953   26.023733 H          1 MOL1         0.0752
      22    C8      17.986316   22.565026   25.076621 C.3        1 MOL1        -0.2849
      23    H13     17.389283   22.805766   24.187244 H          1 MOL1         0.0764
      24    H14     17.400487   22.841219   25.962964 H          1 MOL1         0.0764
      25    H15     18.890909   23.187009   25.060951 H          1 MOL1         0.0764
@<TRIPOS>BOND
    1     1     2    1
    2     1     3    2
    3     1     4    1
    4     4     5    1
    5     4     6    1
    6     4     7    1
    7     7     8    1
    8     7     9    1
    9     7    10    1
   10    10    11    1
   11    10    12    1
   12    10    13    1
   13    13    14    1
   14    13    15    1
   15    13    16    1
   16    16    17    1
   17    16    18    1
   18    16    19    1
   19    19    20    1
   20    19    21    1
   21    19    22    1
   22    22    23    1
   23    22    24    1
   24    22    25    1
@<TRIPOS>SUBSTRUCTURE
       1 MOL1            1 RESIDUE      1      MOL     
@<SCITEGIC>MOL_PROPERTY
VConf Rank
SciTegic.value.IntegerValue
524

@<SCITEGIC>MOL_PROPERTY
Conf_Id
SciTegic.value.IntegerValue
54

@<SCITEGIC>MOL_PROPERTY
Delta U+W
SciTegic.value.DoubleValue
-0.224

@<SCITEGIC>MOL_PROPERTY
U+W
SciTegic.value.DoubleValue
-51.854

@<SCITEGIC>MOL_PROPERTY
Grad RMS
SciTegic.value.DoubleValue
0.000000

@<SCITEGIC>MOL_PROPERTY
U
SciTegic.value.DoubleValue
7.816

@<SCITEGIC>MOL_PROPERTY
W
SciTegic.value.DoubleValue
-59.670

@<SCITEGIC>MOL_PROPERTY
W(PB)
SciTegic.value.DoubleValue
-62.157

@<SCITEGIC>MOL_PROPERTY
W(SA)
SciTegic.value.DoubleValue
2.487

@<SCITEGIC>MOL_PROPERTY
Valence
SciTegic.value.DoubleValue
7.785

@<SCITEGIC>MOL_PROPERTY
Coulomb
SciTegic.value.DoubleValue
-0.713

@<SCITEGIC>MOL_PROPERTY
VdW
SciTegic.value.DoubleValue
0.744

@<SCITEGIC>MOL_PROPERTY
VdW6
SciTegic.value.DoubleValue
-8.515

@<SCITEGIC>MOL_PROPERTY
VdW12
SciTegic.value.DoubleValue
9.259

@<SCITEGIC>MOL_PROPERTY
Bond
SciTegic.value.DoubleValue
0.136

@<SCITEGIC>MOL_PROPERTY
Angle
SciTegic.value.DoubleValue
2.433

@<SCITEGIC>MOL_PROPERTY
Pdih
SciTegic.value.DoubleValue
5.215

@<SCITEGIC>MOL_PROPERTY
Idih
SciTegic.value.DoubleValue
0.000

@<SCITEGIC>MOL_PROPERTY
Tether
SciTegic.value.DoubleValue
0.000

@<TRIPOS>MOLECULE
guest-8_confgen4.mol2 : confsearch ligand conformer 525
          25          24           1
SMALL
USER_CHARGES
 
@<TRIPOS>ATOM
       1    C1      17.739946   16.442537   21.435114 C.2        1 MOL1         0.6168
       2    O1      17.439140   15.637537   22.294498 O.co2      1 MOL1        -0.6703
       3    O2      16.930219   16.986953   20.710501 O.co2      1 MOL1        -0.6703
       4    C2      19.216630   16.775602   21.241064 C.3        1 MOL1        -0.1963
       5    H1      19.420608   16.741165   20.164414 H          1 MOL1         0.0750
       6    H2      19.818318   15.983878   21.703638 H          1 MOL1         0.0750
       7    C3      19.631602   18.160681   21.802331 C.3        1 MOL1        -0.1860
       8    H3      20.658396   18.372139   21.478626 H          1 MOL1         0.0752
       9    H4      18.992822   18.938151   21.360858 H          1 MOL1         0.0752
      10    C4      19.546107   18.225418   23.346498 C.3        1 MOL1        -0.1858
      11    H5      20.219835   17.478158   23.787486 H          1 MOL1         0.0752
      12    H6      18.530533   17.949320   23.661709 H          1 MOL1         0.0752
      13    C5      19.870094   19.622852   23.927158 C.3        1 MOL1        -0.1858
      14    H7      19.208802   20.372514   23.471881 H          1 MOL1         0.0752
      15    H8      19.631593   19.607346   24.998161 H          1 MOL1         0.0752
      16    C6      21.348291   20.044320   23.737082 C.3        1 MOL1        -0.1858
      17    H9      21.587253   20.067752   22.666465 H          1 MOL1         0.0752
      18    H10     22.009221   19.291746   24.188104 H          1 MOL1         0.0752
      19    C7      21.670890   21.436695   24.328443 C.3        1 MOL1        -0.1834
      20    H11     22.691314   21.716219   24.032054 H          1 MOL1         0.0752
      21    H12     21.003191   22.190483   23.888804 H          1 MOL1         0.0752
      22    C8      21.571767   21.488292   25.868719 C.3        1 MOL1        -0.2849
      23    H13     20.540586   21.335669   26.210444 H          1 MOL1         0.0764
      24    H14     22.205322   20.719148   26.329302 H          1 MOL1         0.0764
      25    H15     21.902888   22.466161   26.241595 H          1 MOL1         0.0764
@<TRIPOS>BOND
    1     1     2    1
    2     1     3    2
    3     1     4    1
    4     4     5    1
    5     4     6    1
    6     4     7    1
    7     7     8    1
    8     7     9    1
    9     7    10    1
   10    10    11    1
   11    10    12    1
   12    10    13    1
   13    13    14    1
   14    13    15    1
   15    13    16    1
   16    16    17    1
   17    16    18    1
   18    16    19    1
   19    19    20    1
   20    19    21    1
   21    19    22    1
   22    22    23    1
   23    22    24    1
   24    22    25    1
@<TRIPOS>SUBSTRUCTURE
       1 MOL1            1 RESIDUE      1      MOL     
@<SCITEGIC>MOL_PROPERTY
VConf Rank
SciTegic.value.IntegerValue
525

@<SCITEGIC>MOL_PROPERTY
Conf_Id
SciTegic.value.IntegerValue
101

@<SCITEGIC>MOL_PROPERTY
Delta U+W
SciTegic.value.DoubleValue
1.534

@<SCITEGIC>MOL_PROPERTY
U+W
SciTegic.value.DoubleValue
-50.095

@<SCITEGIC>MOL_PROPERTY
Grad RMS
SciTegic.value.DoubleValue
0.000000

@<SCITEGIC>MOL_PROPERTY
U
SciTegic.value.DoubleValue
9.416

@<SCITEGIC>MOL_PROPERTY
W
SciTegic.value.DoubleValue
-59.512

@<SCITEGIC>MOL_PROPERTY
W(PB)
SciTegic.value.DoubleValue
-61.988

@<SCITEGIC>MOL_PROPERTY
W(SA)
SciTegic.value.DoubleValue
2.476

@<SCITEGIC>MOL_PROPERTY
Valence
SciTegic.value.DoubleValue
8.939

@<SCITEGIC>MOL_PROPERTY
Coulomb
SciTegic.value.DoubleValue
-0.615

@<SCITEGIC>MOL_PROPERTY
VdW
SciTegic.value.DoubleValue
1.092

@<SCITEGIC>MOL_PROPERTY
VdW6
SciTegic.value.DoubleValue
-9.710

@<SCITEGIC>MOL_PROPERTY
VdW12
SciTegic.value.DoubleValue
10.802

@<SCITEGIC>MOL_PROPERTY
Bond
SciTegic.value.DoubleValue
0.216

@<SCITEGIC>MOL_PROPERTY
Angle
SciTegic.value.DoubleValue
2.979

@<SCITEGIC>MOL_PROPERTY
Pdih
SciTegic.value.DoubleValue
5.743

@<SCITEGIC>MOL_PROPERTY
Idih
SciTegic.value.DoubleValue
0.000

@<SCITEGIC>MOL_PROPERTY
Tether
SciTegic.value.DoubleValue
0.000

@<TRIPOS>MOLECULE
guest-8_confgen4.mol2 : confsearch ligand conformer 526
          25          24           1
SMALL
USER_CHARGES
 
@<TRIPOS>ATOM
       1    C1      16.858475   19.145309   20.605497 C.2        1 MOL1         0.6168
       2    O1      17.087889   19.966036   19.739176 O.co2      1 MOL1        -0.6703
       3    O2      16.071110   18.229169   20.473130 O.co2      1 MOL1        -0.6703
       4    C2      17.616958   19.257797   21.923154 C.3        1 MOL1        -0.1963
       5    H1      16.967839   18.880388   22.722245 H          1 MOL1         0.0750
       6    H2      17.788324   20.322228   22.118042 H          1 MOL1         0.0750
       7    C3      18.958322   18.479246   21.910660 C.3        1 MOL1        -0.1860
       8    H3      18.757991   17.439817   21.615902 H          1 MOL1         0.0752
       9    H4      19.619425   18.897879   21.139305 H          1 MOL1         0.0752
      10    C4      19.686113   18.473666   23.276309 C.3        1 MOL1        -0.1858
      11    H5      20.538658   17.786480   23.202600 H          1 MOL1         0.0752
      12    H6      19.019975   18.063868   24.047601 H          1 MOL1         0.0752
      13    C5      20.191647   19.871560   23.710162 C.3        1 MOL1        -0.1858
      14    H7      20.857983   20.280800   22.939750 H          1 MOL1         0.0752
      15    H8      19.342207   20.562782   23.776360 H          1 MOL1         0.0752
      16    C6      20.908815   19.870962   25.084217 C.3        1 MOL1        -0.1858
      17    H9      20.199311   19.541028   25.855206 H          1 MOL1         0.0752
      18    H10     21.174808   20.905368   25.340970 H          1 MOL1         0.0752
      19    C7      22.182797   18.994111   25.171184 C.3        1 MOL1        -0.1834
      20    H11     22.592773   19.074457   26.187308 H          1 MOL1         0.0752
      21    H12     21.925874   17.935786   25.032326 H          1 MOL1         0.0752
      22    C8      23.277211   19.401635   24.161173 C.3        1 MOL1        -0.2849
      23    H13     23.532894   20.463990   24.266091 H          1 MOL1         0.0764
      24    H14     24.190320   18.815423   24.326559 H          1 MOL1         0.0764
      25    H15     22.951585   19.225338   23.128233 H          1 MOL1         0.0764
@<TRIPOS>BOND
    1     1     2    1
    2     1     3    2
    3     1     4    1
    4     4     5    1
    5     4     6    1
    6     4     7    1
    7     7     8    1
    8     7     9    1
    9     7    10    1
   10    10    11    1
   11    10    12    1
   12    10    13    1
   13    13    14    1
   14    13    15    1
   15    13    16    1
   16    16    17    1
   17    16    18    1
   18    16    19    1
   19    19    20    1
   20    19    21    1
   21    19    22    1
   22    22    23    1
   23    22    24    1
   24    22    25    1
@<TRIPOS>SUBSTRUCTURE
       1 MOL1            1 RESIDUE      1      MOL     
@<SCITEGIC>MOL_PROPERTY
VConf Rank
SciTegic.value.IntegerValue
526

@<SCITEGIC>MOL_PROPERTY
Conf_Id
SciTegic.value.IntegerValue
75

@<SCITEGIC>MOL_PROPERTY
Delta U+W
SciTegic.value.DoubleValue
1.014

@<SCITEGIC>MOL_PROPERTY
U+W
SciTegic.value.DoubleValue
-50.615

@<SCITEGIC>MOL_PROPERTY
Grad RMS
SciTegic.value.DoubleValue
0.000000

@<SCITEGIC>MOL_PROPERTY
U
SciTegic.value.DoubleValue
8.474

@<SCITEGIC>MOL_PROPERTY
W
SciTegic.value.DoubleValue
-59.089

@<SCITEGIC>MOL_PROPERTY
W(PB)
SciTegic.value.DoubleValue
-61.530

@<SCITEGIC>MOL_PROPERTY
W(SA)
SciTegic.value.DoubleValue
2.441

@<SCITEGIC>MOL_PROPERTY
Valence
SciTegic.value.DoubleValue
9.080

@<SCITEGIC>MOL_PROPERTY
Coulomb
SciTegic.value.DoubleValue
-1.772

@<SCITEGIC>MOL_PROPERTY
VdW
SciTegic.value.DoubleValue
1.165

@<SCITEGIC>MOL_PROPERTY
VdW6
SciTegic.value.DoubleValue
-9.830

@<SCITEGIC>MOL_PROPERTY
VdW12
SciTegic.value.DoubleValue
10.996

@<SCITEGIC>MOL_PROPERTY
Bond
SciTegic.value.DoubleValue
0.240

@<SCITEGIC>MOL_PROPERTY
Angle
SciTegic.value.DoubleValue
3.225

@<SCITEGIC>MOL_PROPERTY
Pdih
SciTegic.value.DoubleValue
5.615

@<SCITEGIC>MOL_PROPERTY
Idih
SciTegic.value.DoubleValue
0.001

@<SCITEGIC>MOL_PROPERTY
Tether
SciTegic.value.DoubleValue
0.000

@<TRIPOS>MOLECULE
guest-8_confgen4.mol2 : confsearch ligand conformer 527
          25          24           1
SMALL
USER_CHARGES
 
@<TRIPOS>ATOM
       1    C1      19.594854   15.930300   20.605502 C.2        1 MOL1         0.6168
       2    O1      18.684827   15.236231   21.013877 O.co2      1 MOL1        -0.6703
       3    O2      19.926499   15.987352   19.437844 O.co2      1 MOL1        -0.6703
       4    C2      20.348565   16.793709   21.610751 C.3        1 MOL1        -0.1963
       5    H1      21.388129   16.881269   21.272816 H          1 MOL1         0.0750
       6    H2      20.363155   16.264343   22.571045 H          1 MOL1         0.0750
       7    C3      19.722738   18.199454   21.784824 C.3        1 MOL1        -0.1860
       8    H3      19.703535   18.711299   20.812641 H          1 MOL1         0.0752
       9    H4      18.678592   18.093799   22.110603 H          1 MOL1         0.0752
      10    C4      20.502427   19.053197   22.808231 C.3        1 MOL1        -0.1858
      11    H5      21.545393   19.155701   22.478795 H          1 MOL1         0.0752
      12    H6      20.527028   18.530960   23.772014 H          1 MOL1         0.0752
      13    C5      19.877021   20.458229   22.974026 C.3        1 MOL1        -0.1858
      14    H7      19.899371   20.959839   21.996886 H          1 MOL1         0.0752
      15    H8      18.817268   20.375022   23.251189 H          1 MOL1         0.0752
      16    C6      20.626032   21.346978   23.999468 C.3        1 MOL1        -0.1858
      17    H9      20.604685   22.382535   23.633360 H          1 MOL1         0.0752
      18    H10     21.687639   21.067706   24.042288 H          1 MOL1         0.0752
      19    C7      20.017453   21.344328   25.423732 C.3        1 MOL1        -0.1834
      20    H11     20.572352   22.064126   26.041104 H          1 MOL1         0.0752
      21    H12     18.982003   21.709513   25.382247 H          1 MOL1         0.0752
      22    C8      20.047227   19.968710   26.121701 C.3        1 MOL1        -0.2849
      23    H13     21.060814   19.547287   26.119321 H          1 MOL1         0.0764
      24    H14     19.720935   20.060839   27.165636 H          1 MOL1         0.0764
      25    H15     19.372634   19.259325   25.626399 H          1 MOL1         0.0764
@<TRIPOS>BOND
    1     1     2    1
    2     1     3    2
    3     1     4    1
    4     4     5    1
    5     4     6    1
    6     4     7    1
    7     7     8    1
    8     7     9    1
    9     7    10    1
   10    10    11    1
   11    10    12    1
   12    10    13    1
   13    13    14    1
   14    13    15    1
   15    13    16    1
   16    16    17    1
   17    16    18    1
   18    16    19    1
   19    19    20    1
   20    19    21    1
   21    19    22    1
   22    22    23    1
   23    22    24    1
   24    22    25    1
@<TRIPOS>SUBSTRUCTURE
       1 MOL1            1 RESIDUE      1      MOL     
@<SCITEGIC>MOL_PROPERTY
VConf Rank
SciTegic.value.IntegerValue
527

@<SCITEGIC>MOL_PROPERTY
Conf_Id
SciTegic.value.IntegerValue
125

@<SCITEGIC>MOL_PROPERTY
Delta U+W
SciTegic.value.DoubleValue
2.314

@<SCITEGIC>MOL_PROPERTY
U+W
SciTegic.value.DoubleValue
-49.315

@<SCITEGIC>MOL_PROPERTY
Grad RMS
SciTegic.value.DoubleValue
0.000000

@<SCITEGIC>MOL_PROPERTY
U
SciTegic.value.DoubleValue
9.740

@<SCITEGIC>MOL_PROPERTY
W
SciTegic.value.DoubleValue
-59.054

@<SCITEGIC>MOL_PROPERTY
W(PB)
SciTegic.value.DoubleValue
-61.488

@<SCITEGIC>MOL_PROPERTY
W(SA)
SciTegic.value.DoubleValue
2.433

@<SCITEGIC>MOL_PROPERTY
Valence
SciTegic.value.DoubleValue
10.506

@<SCITEGIC>MOL_PROPERTY
Coulomb
SciTegic.value.DoubleValue
-1.761

@<SCITEGIC>MOL_PROPERTY
VdW
SciTegic.value.DoubleValue
0.994

@<SCITEGIC>MOL_PROPERTY
VdW6
SciTegic.value.DoubleValue
-9.209

@<SCITEGIC>MOL_PROPERTY
VdW12
SciTegic.value.DoubleValue
10.203

@<SCITEGIC>MOL_PROPERTY
Bond
SciTegic.value.DoubleValue
0.193

@<SCITEGIC>MOL_PROPERTY
Angle
SciTegic.value.DoubleValue
2.979

@<SCITEGIC>MOL_PROPERTY
Pdih
SciTegic.value.DoubleValue
7.334

@<SCITEGIC>MOL_PROPERTY
Idih
SciTegic.value.DoubleValue
0.001

@<SCITEGIC>MOL_PROPERTY
Tether
SciTegic.value.DoubleValue
0.000

@<TRIPOS>MOLECULE
guest-8_confgen4.mol2 : confsearch ligand conformer 528
          25          24           1
SMALL
USER_CHARGES
 
@<TRIPOS>ATOM
       1    C1      20.754529   18.465998   19.319721 C.2        1 MOL1         0.6168
       2    O1      21.717120   19.148863   19.030229 O.co2      1 MOL1        -0.6703
       3    O2      20.089003   17.860138   18.503173 O.co2      1 MOL1        -0.6703
       4    C2      20.344414   18.384104   20.785708 C.3        1 MOL1        -0.1963
       5    H1      21.256379   18.443959   21.390238 H          1 MOL1         0.0750
       6    H2      19.901821   17.396195   20.960357 H          1 MOL1         0.0750
       7    C3      19.344565   19.497993   21.191657 C.3        1 MOL1        -0.1860
       8    H3      19.816061   20.481236   21.056546 H          1 MOL1         0.0752
       9    H4      18.486693   19.468700   20.505622 H          1 MOL1         0.0752
      10    C4      18.823681   19.362762   22.642362 C.3        1 MOL1        -0.1858
      11    H5      18.344384   18.382673   22.771477 H          1 MOL1         0.0752
      12    H6      18.039696   20.115601   22.802084 H          1 MOL1         0.0752
      13    C5      19.925482   19.548346   23.711375 C.3        1 MOL1        -0.1858
      14    H7      20.679188   18.759175   23.602917 H          1 MOL1         0.0752
      15    H8      20.436200   20.507241   23.549355 H          1 MOL1         0.0752
      16    C6      19.342117   19.509829   25.142950 C.3        1 MOL1        -0.1858
      17    H9      18.871374   18.533932   25.324373 H          1 MOL1         0.0752
      18    H10     18.543917   20.260210   25.224495 H          1 MOL1         0.0752
      19    C7      20.392383   19.790016   26.243066 C.3        1 MOL1        -0.1834
      20    H11     20.861497   20.768021   26.067723 H          1 MOL1         0.0752
      21    H12     19.877774   19.862053   27.211164 H          1 MOL1         0.0752
      22    C8      21.482690   18.700785   26.339981 C.3        1 MOL1        -0.2849
      23    H13     22.101979   18.671826   25.434813 H          1 MOL1         0.0764
      24    H14     22.147655   18.898104   27.190735 H          1 MOL1         0.0764
      25    H15     21.035350   17.708651   26.483733 H          1 MOL1         0.0764
@<TRIPOS>BOND
    1     1     2    1
    2     1     3    2
    3     1     4    1
    4     4     5    1
    5     4     6    1
    6     4     7    1
    7     7     8    1
    8     7     9    1
    9     7    10    1
   10    10    11    1
   11    10    12    1
   12    10    13    1
   13    13    14    1
   14    13    15    1
   15    13    16    1
   16    16    17    1
   17    16    18    1
   18    16    19    1
   19    19    20    1
   20    19    21    1
   21    19    22    1
   22    22    23    1
   23    22    24    1
   24    22    25    1
@<TRIPOS>SUBSTRUCTURE
       1 MOL1            1 RESIDUE      1      MOL     
@<SCITEGIC>MOL_PROPERTY
VConf Rank
SciTegic.value.IntegerValue
528

@<SCITEGIC>MOL_PROPERTY
Conf_Id
SciTegic.value.IntegerValue
4

@<SCITEGIC>MOL_PROPERTY
Delta U+W
SciTegic.value.DoubleValue
0.189

@<SCITEGIC>MOL_PROPERTY
U+W
SciTegic.value.DoubleValue
-51.441

@<SCITEGIC>MOL_PROPERTY
Grad RMS
SciTegic.value.DoubleValue
0.000000

@<SCITEGIC>MOL_PROPERTY
U
SciTegic.value.DoubleValue
7.701

@<SCITEGIC>MOL_PROPERTY
W
SciTegic.value.DoubleValue
-59.141

@<SCITEGIC>MOL_PROPERTY
W(PB)
SciTegic.value.DoubleValue
-61.609

@<SCITEGIC>MOL_PROPERTY
W(SA)
SciTegic.value.DoubleValue
2.467

@<SCITEGIC>MOL_PROPERTY
Valence
SciTegic.value.DoubleValue
8.550

@<SCITEGIC>MOL_PROPERTY
Coulomb
SciTegic.value.DoubleValue
-1.988

@<SCITEGIC>MOL_PROPERTY
VdW
SciTegic.value.DoubleValue
1.139

@<SCITEGIC>MOL_PROPERTY
VdW6
SciTegic.value.DoubleValue
-8.988

@<SCITEGIC>MOL_PROPERTY
VdW12
SciTegic.value.DoubleValue
10.127

@<SCITEGIC>MOL_PROPERTY
Bond
SciTegic.value.DoubleValue
0.191

@<SCITEGIC>MOL_PROPERTY
Angle
SciTegic.value.DoubleValue
2.738

@<SCITEGIC>MOL_PROPERTY
Pdih
SciTegic.value.DoubleValue
5.621

@<SCITEGIC>MOL_PROPERTY
Idih
SciTegic.value.DoubleValue
0.001

@<SCITEGIC>MOL_PROPERTY
Tether
SciTegic.value.DoubleValue
0.000

@<TRIPOS>MOLECULE
guest-8_confgen4.mol2 : confsearch ligand conformer 529
          25          24           1
SMALL
USER_CHARGES
 
@<TRIPOS>ATOM
       1    C1      19.322132   15.749248   25.350409 C.2        1 MOL1         0.6168
       2    O1      18.272936   15.323583   24.909171 O.co2      1 MOL1        -0.6703
       3    O2      20.024931   15.133335   26.127239 O.co2      1 MOL1        -0.6703
       4    C2      19.794703   17.122075   24.885601 C.3        1 MOL1        -0.1963
       5    H1      20.361244   17.581853   25.704132 H          1 MOL1         0.0750
       6    H2      18.905951   17.740473   24.717005 H          1 MOL1         0.0750
       7    C3      20.665381   17.054169   23.603982 C.3        1 MOL1        -0.1860
       8    H3      21.493590   16.353105   23.777263 H          1 MOL1         0.0752
       9    H4      20.072219   16.635420   22.779277 H          1 MOL1         0.0752
      10    C4      21.253857   18.421863   23.182953 C.3        1 MOL1        -0.1858
      11    H5      21.945080   18.259919   22.344564 H          1 MOL1         0.0752
      12    H6      21.854342   18.833212   24.005864 H          1 MOL1         0.0752
      13    C5      20.179193   19.449522   22.758443 C.3        1 MOL1        -0.1858
      14    H7      19.548767   19.016730   21.969889 H          1 MOL1         0.0752
      15    H8      19.524532   19.669530   23.610289 H          1 MOL1         0.0752
      16    C6      20.817065   20.762029   22.246927 C.3        1 MOL1        -0.1858
      17    H9      21.519437   20.526248   21.435802 H          1 MOL1         0.0752
      18    H10     21.410843   21.221719   23.048799 H          1 MOL1         0.0752
      19    C7      19.783062   21.783452   21.718390 C.3        1 MOL1        -0.1834
      20    H11     20.321470   22.628897   21.268316 H          1 MOL1         0.0752
      21    H12     19.190759   21.328598   20.912418 H          1 MOL1         0.0752
      22    C8      18.839665   22.322815   22.815512 C.3        1 MOL1        -0.2849
      23    H13     19.410919   22.754441   23.647664 H          1 MOL1         0.0764
      24    H14     18.188404   23.107724   22.409714 H          1 MOL1         0.0764
      25    H15     18.194580   21.530226   23.214707 H          1 MOL1         0.0764
@<TRIPOS>BOND
    1     1     2    1
    2     1     3    2
    3     1     4    1
    4     4     5    1
    5     4     6    1
    6     4     7    1
    7     7     8    1
    8     7     9    1
    9     7    10    1
   10    10    11    1
   11    10    12    1
   12    10    13    1
   13    13    14    1
   14    13    15    1
   15    13    16    1
   16    16    17    1
   17    16    18    1
   18    16    19    1
   19    19    20    1
   20    19    21    1
   21    19    22    1
   22    22    23    1
   23    22    24    1
   24    22    25    1
@<TRIPOS>SUBSTRUCTURE
       1 MOL1            1 RESIDUE      1      MOL     
@<SCITEGIC>MOL_PROPERTY
VConf Rank
SciTegic.value.IntegerValue
529

@<SCITEGIC>MOL_PROPERTY
Conf_Id
SciTegic.value.IntegerValue
17

@<SCITEGIC>MOL_PROPERTY
Delta U+W
SciTegic.value.DoubleValue
0.219

@<SCITEGIC>MOL_PROPERTY
U+W
SciTegic.value.DoubleValue
-51.411

@<SCITEGIC>MOL_PROPERTY
Grad RMS
SciTegic.value.DoubleValue
0.000000

@<SCITEGIC>MOL_PROPERTY
U
SciTegic.value.DoubleValue
7.701

@<SCITEGIC>MOL_PROPERTY
W
SciTegic.value.DoubleValue
-59.111

@<SCITEGIC>MOL_PROPERTY
W(PB)
SciTegic.value.DoubleValue
-61.599

@<SCITEGIC>MOL_PROPERTY
W(SA)
SciTegic.value.DoubleValue
2.488

@<SCITEGIC>MOL_PROPERTY
Valence
SciTegic.value.DoubleValue
8.550

@<SCITEGIC>MOL_PROPERTY
Coulomb
SciTegic.value.DoubleValue
-1.988

@<SCITEGIC>MOL_PROPERTY
VdW
SciTegic.value.DoubleValue
1.139

@<SCITEGIC>MOL_PROPERTY
VdW6
SciTegic.value.DoubleValue
-8.988

@<SCITEGIC>MOL_PROPERTY
VdW12
SciTegic.value.DoubleValue
10.127

@<SCITEGIC>MOL_PROPERTY
Bond
SciTegic.value.DoubleValue
0.191

@<SCITEGIC>MOL_PROPERTY
Angle
SciTegic.value.DoubleValue
2.738

@<SCITEGIC>MOL_PROPERTY
Pdih
SciTegic.value.DoubleValue
5.621

@<SCITEGIC>MOL_PROPERTY
Idih
SciTegic.value.DoubleValue
0.001

@<SCITEGIC>MOL_PROPERTY
Tether
SciTegic.value.DoubleValue
0.000

@<TRIPOS>MOLECULE
guest-8_confgen4.mol2 : confsearch ligand conformer 530
          25          24           1
SMALL
USER_CHARGES
 
@<TRIPOS>ATOM
       1    C1      16.698631   20.448065   24.913293 C.2        1 MOL1         0.6168
       2    O1      16.385088   21.540343   24.482386 O.co2      1 MOL1        -0.6703
       3    O2      16.958866   20.234888   26.081158 O.co2      1 MOL1        -0.6703
       4    C2      16.750232   19.274131   23.939564 C.3        1 MOL1        -0.1963
       5    H1      16.162673   19.531244   23.049935 H          1 MOL1         0.0750
       6    H2      16.245583   18.427218   24.419201 H          1 MOL1         0.0750
       7    C3      18.187333   18.857743   23.531813 C.3        1 MOL1        -0.1860
       8    H3      18.760475   18.624228   24.438811 H          1 MOL1         0.0752
       9    H4      18.136868   17.933458   22.940699 H          1 MOL1         0.0752
      10    C4      18.909549   19.951590   22.709222 C.3        1 MOL1        -0.1858
      11    H5      19.028154   20.858824   23.317647 H          1 MOL1         0.0752
      12    H6      18.277214   20.232362   21.855895 H          1 MOL1         0.0752
      13    C5      20.290773   19.507301   22.172054 C.3        1 MOL1        -0.1858
      14    H7      20.173503   18.605272   21.556067 H          1 MOL1         0.0752
      15    H8      20.672845   20.291766   21.504599 H          1 MOL1         0.0752
      16    C6      21.330170   19.246247   23.286746 C.3        1 MOL1        -0.1858
      17    H9      20.999434   18.412766   23.919873 H          1 MOL1         0.0752
      18    H10     21.404495   20.130985   23.933746 H          1 MOL1         0.0752
      19    C7      22.720546   18.915972   22.704062 C.3        1 MOL1        -0.1834
      20    H11     22.649259   18.032327   22.054794 H          1 MOL1         0.0752
      21    H12     23.066090   19.747726   22.074611 H          1 MOL1         0.0752
      22    C8      23.754989   18.652269   23.816766 C.3        1 MOL1        -0.2849
      23    H13     23.450491   17.803485   24.443047 H          1 MOL1         0.0764
      24    H14     24.737045   18.419657   23.384892 H          1 MOL1         0.0764
      25    H15     23.868896   19.532065   24.463577 H          1 MOL1         0.0764
@<TRIPOS>BOND
    1     1     2    1
    2     1     3    2
    3     1     4    1
    4     4     5    1
    5     4     6    1
    6     4     7    1
    7     7     8    1
    8     7     9    1
    9     7    10    1
   10    10    11    1
   11    10    12    1
   12    10    13    1
   13    13    14    1
   14    13    15    1
   15    13    16    1
   16    16    17    1
   17    16    18    1
   18    16    19    1
   19    19    20    1
   20    19    21    1
   21    19    22    1
   22    22    23    1
   23    22    24    1
   24    22    25    1
@<TRIPOS>SUBSTRUCTURE
       1 MOL1            1 RESIDUE      1      MOL     
@<SCITEGIC>MOL_PROPERTY
VConf Rank
SciTegic.value.IntegerValue
530

@<SCITEGIC>MOL_PROPERTY
Conf_Id
SciTegic.value.IntegerValue
142

@<SCITEGIC>MOL_PROPERTY
Delta U+W
SciTegic.value.DoubleValue
0.593

@<SCITEGIC>MOL_PROPERTY
U+W
SciTegic.value.DoubleValue
-51.037

@<SCITEGIC>MOL_PROPERTY
Grad RMS
SciTegic.value.DoubleValue
0.000000

@<SCITEGIC>MOL_PROPERTY
U
SciTegic.value.DoubleValue
8.903

@<SCITEGIC>MOL_PROPERTY
W
SciTegic.value.DoubleValue
-59.940

@<SCITEGIC>MOL_PROPERTY
W(PB)
SciTegic.value.DoubleValue
-62.418

@<SCITEGIC>MOL_PROPERTY
W(SA)
SciTegic.value.DoubleValue
2.478

@<SCITEGIC>MOL_PROPERTY
Valence
SciTegic.value.DoubleValue
8.305

@<SCITEGIC>MOL_PROPERTY
Coulomb
SciTegic.value.DoubleValue
-0.223

@<SCITEGIC>MOL_PROPERTY
VdW
SciTegic.value.DoubleValue
0.821

@<SCITEGIC>MOL_PROPERTY
VdW6
SciTegic.value.DoubleValue
-9.236

@<SCITEGIC>MOL_PROPERTY
VdW12
SciTegic.value.DoubleValue
10.057

@<SCITEGIC>MOL_PROPERTY
Bond
SciTegic.value.DoubleValue
0.173

@<SCITEGIC>MOL_PROPERTY
Angle
SciTegic.value.DoubleValue
2.663

@<SCITEGIC>MOL_PROPERTY
Pdih
SciTegic.value.DoubleValue
5.469

@<SCITEGIC>MOL_PROPERTY
Idih
SciTegic.value.DoubleValue
0.001

@<SCITEGIC>MOL_PROPERTY
Tether
SciTegic.value.DoubleValue
0.000

@<TRIPOS>MOLECULE
guest-8_confgen4.mol2 : confsearch ligand conformer 531
          25          24           1
SMALL
USER_CHARGES
 
@<TRIPOS>ATOM
       1    C1      17.264818   19.713981   21.624346 C.2        1 MOL1         0.6168
       2    O1      16.413509   20.571431   21.491636 O.co2      1 MOL1        -0.6703
       3    O2      17.733029   19.082724   20.697335 O.co2      1 MOL1        -0.6703
       4    C2      17.750124   19.395793   23.035790 C.3        1 MOL1        -0.1963
       5    H1      18.287172   18.440557   23.015760 H          1 MOL1         0.0750
       6    H2      16.861878   19.239644   23.658811 H          1 MOL1         0.0750
       7    C3      18.633107   20.506135   23.667940 C.3        1 MOL1        -0.1860
       8    H3      18.042025   21.429836   23.735580 H          1 MOL1         0.0752
       9    H4      18.877119   20.229374   24.701724 H          1 MOL1         0.0752
      10    C4      19.938011   20.809230   22.886913 C.3        1 MOL1        -0.1858
      11    H5      20.483882   21.607085   23.408497 H          1 MOL1         0.0752
      12    H6      19.677702   21.217319   21.900613 H          1 MOL1         0.0752
      13    C5      20.886122   19.600245   22.687493 C.3        1 MOL1        -0.1858
      14    H7      20.393471   18.837217   22.070049 H          1 MOL1         0.0752
      15    H8      21.758970   19.937621   22.112300 H          1 MOL1         0.0752
      16    C6      21.371110   18.969626   24.013304 C.3        1 MOL1        -0.1858
      17    H9      20.515702   18.561844   24.567465 H          1 MOL1         0.0752
      18    H10     21.823424   19.745965   24.645273 H          1 MOL1         0.0752
      19    C7      22.395958   17.842401   23.767359 C.3        1 MOL1        -0.1834
      20    H11     21.946270   17.065915   23.133068 H          1 MOL1         0.0752
      21    H12     23.261168   18.240788   23.219571 H          1 MOL1         0.0752
      22    C8      22.874051   17.210451   25.090143 C.3        1 MOL1        -0.2849
      23    H13     22.032148   16.775036   25.644200 H          1 MOL1         0.0764
      24    H14     23.601756   16.411696   24.896572 H          1 MOL1         0.0764
      25    H15     23.355816   17.959847   25.731752 H          1 MOL1         0.0764
@<TRIPOS>BOND
    1     1     2    1
    2     1     3    2
    3     1     4    1
    4     4     5    1
    5     4     6    1
    6     4     7    1
    7     7     8    1
    8     7     9    1
    9     7    10    1
   10    10    11    1
   11    10    12    1
   12    10    13    1
   13    13    14    1
   14    13    15    1
   15    13    16    1
   16    16    17    1
   17    16    18    1
   18    16    19    1
   19    19    20    1
   20    19    21    1
   21    19    22    1
   22    22    23    1
   23    22    24    1
   24    22    25    1
@<TRIPOS>SUBSTRUCTURE
       1 MOL1            1 RESIDUE      1      MOL     
@<SCITEGIC>MOL_PROPERTY
VConf Rank
SciTegic.value.IntegerValue
531

@<SCITEGIC>MOL_PROPERTY
Conf_Id
SciTegic.value.IntegerValue
135

@<SCITEGIC>MOL_PROPERTY
Delta U+W
SciTegic.value.DoubleValue
1.314

@<SCITEGIC>MOL_PROPERTY
U+W
SciTegic.value.DoubleValue
-50.316

@<SCITEGIC>MOL_PROPERTY
Grad RMS
SciTegic.value.DoubleValue
0.000000

@<SCITEGIC>MOL_PROPERTY
U
SciTegic.value.DoubleValue
9.773

@<SCITEGIC>MOL_PROPERTY
W
SciTegic.value.DoubleValue
-60.088

@<SCITEGIC>MOL_PROPERTY
W(PB)
SciTegic.value.DoubleValue
-62.535

@<SCITEGIC>MOL_PROPERTY
W(SA)
SciTegic.value.DoubleValue
2.447

@<SCITEGIC>MOL_PROPERTY
Valence
SciTegic.value.DoubleValue
8.741

@<SCITEGIC>MOL_PROPERTY
Coulomb
SciTegic.value.DoubleValue
0.479

@<SCITEGIC>MOL_PROPERTY
VdW
SciTegic.value.DoubleValue
0.552

@<SCITEGIC>MOL_PROPERTY
VdW6
SciTegic.value.DoubleValue
-10.627

@<SCITEGIC>MOL_PROPERTY
VdW12
SciTegic.value.DoubleValue
11.179

@<SCITEGIC>MOL_PROPERTY
Bond
SciTegic.value.DoubleValue
0.227

@<SCITEGIC>MOL_PROPERTY
Angle
SciTegic.value.DoubleValue
3.155

@<SCITEGIC>MOL_PROPERTY
Pdih
SciTegic.value.DoubleValue
5.358

@<SCITEGIC>MOL_PROPERTY
Idih
SciTegic.value.DoubleValue
0.001

@<SCITEGIC>MOL_PROPERTY
Tether
SciTegic.value.DoubleValue
0.000

@<TRIPOS>MOLECULE
guest-8_confgen4.mol2 : confsearch ligand conformer 532
          25          24           1
SMALL
USER_CHARGES
 
@<TRIPOS>ATOM
       1    C1      17.362913   17.400490   25.917207 C.2        1 MOL1         0.6168
       2    O1      16.642958   18.196771   26.486719 O.co2      1 MOL1        -0.6703
       3    O2      17.107400   16.217027   25.812804 O.co2      1 MOL1        -0.6703
       4    C2      18.646599   17.918780   25.278688 C.3        1 MOL1        -0.1963
       5    H1      19.394706   17.118269   25.321896 H          1 MOL1         0.0750
       6    H2      19.016092   18.743393   25.898089 H          1 MOL1         0.0750
       7    C3      18.441921   18.381237   23.812377 C.3        1 MOL1        -0.1860
       8    H3      17.980396   17.559446   23.247486 H          1 MOL1         0.0752
       9    H4      17.727034   19.215197   23.785362 H          1 MOL1         0.0752
      10    C4      19.753675   18.792285   23.101551 C.3        1 MOL1        -0.1858
      11    H5      19.525900   18.949277   22.039732 H          1 MOL1         0.0752
      12    H6      20.475906   17.966185   23.151745 H          1 MOL1         0.0752
      13    C5      20.388643   20.081187   23.676015 C.3        1 MOL1        -0.1858
      14    H7      19.681759   20.914977   23.567839 H          1 MOL1         0.0752
      15    H8      20.558234   19.958508   24.752892 H          1 MOL1         0.0752
      16    C6      21.741668   20.466524   23.026164 C.3        1 MOL1        -0.1858
      17    H9      22.484930   19.678669   23.209887 H          1 MOL1         0.0752
      18    H10     22.116754   21.357169   23.548596 H          1 MOL1         0.0752
      19    C7      21.666901   20.791647   21.513251 C.3        1 MOL1        -0.1834
      20    H11     20.661854   21.148360   21.248920 H          1 MOL1         0.0752
      21    H12     22.351992   21.623278   21.297983 H          1 MOL1         0.0752
      22    C8      22.066182   19.599418   20.615235 C.3        1 MOL1        -0.2849
      23    H13     21.414087   18.732880   20.773350 H          1 MOL1         0.0764
      24    H14     22.002483   19.878481   19.555578 H          1 MOL1         0.0764
      25    H15     23.098725   19.286924   20.818424 H          1 MOL1         0.0764
@<TRIPOS>BOND
    1     1     2    1
    2     1     3    2
    3     1     4    1
    4     4     5    1
    5     4     6    1
    6     4     7    1
    7     7     8    1
    8     7     9    1
    9     7    10    1
   10    10    11    1
   11    10    12    1
   12    10    13    1
   13    13    14    1
   14    13    15    1
   15    13    16    1
   16    16    17    1
   17    16    18    1
   18    16    19    1
   19    19    20    1
   20    19    21    1
   21    19    22    1
   22    22    23    1
   23    22    24    1
   24    22    25    1
@<TRIPOS>SUBSTRUCTURE
       1 MOL1            1 RESIDUE      1      MOL     
@<SCITEGIC>MOL_PROPERTY
VConf Rank
SciTegic.value.IntegerValue
532

@<SCITEGIC>MOL_PROPERTY
Conf_Id
SciTegic.value.IntegerValue
19

@<SCITEGIC>MOL_PROPERTY
Delta U+W
SciTegic.value.DoubleValue
3.222

@<SCITEGIC>MOL_PROPERTY
U+W
SciTegic.value.DoubleValue
-48.407

@<SCITEGIC>MOL_PROPERTY
Grad RMS
SciTegic.value.DoubleValue
0.000000

@<SCITEGIC>MOL_PROPERTY
U
SciTegic.value.DoubleValue
10.617

@<SCITEGIC>MOL_PROPERTY
W
SciTegic.value.DoubleValue
-59.025

@<SCITEGIC>MOL_PROPERTY
W(PB)
SciTegic.value.DoubleValue
-61.462

@<SCITEGIC>MOL_PROPERTY
W(SA)
SciTegic.value.DoubleValue
2.437

@<SCITEGIC>MOL_PROPERTY
Valence
SciTegic.value.DoubleValue
11.188

@<SCITEGIC>MOL_PROPERTY
Coulomb
SciTegic.value.DoubleValue
-1.778

@<SCITEGIC>MOL_PROPERTY
VdW
SciTegic.value.DoubleValue
1.208

@<SCITEGIC>MOL_PROPERTY
VdW6
SciTegic.value.DoubleValue
-9.786

@<SCITEGIC>MOL_PROPERTY
VdW12
SciTegic.value.DoubleValue
10.993

@<SCITEGIC>MOL_PROPERTY
Bond
SciTegic.value.DoubleValue
0.241

@<SCITEGIC>MOL_PROPERTY
Angle
SciTegic.value.DoubleValue
3.294

@<SCITEGIC>MOL_PROPERTY
Pdih
SciTegic.value.DoubleValue
7.653

@<SCITEGIC>MOL_PROPERTY
Idih
SciTegic.value.DoubleValue
0.001

@<SCITEGIC>MOL_PROPERTY
Tether
SciTegic.value.DoubleValue
0.000

@<TRIPOS>MOLECULE
guest-8_confgen4.mol2 : confsearch ligand conformer 533
          25          24           1
SMALL
USER_CHARGES
 
@<TRIPOS>ATOM
       1    C1      16.466952   17.877164   24.948040 C.2        1 MOL1         0.6168
       2    O1      16.562832   17.558974   26.116930 O.co2      1 MOL1        -0.6703
       3    O2      15.558459   17.518213   24.225154 O.co2      1 MOL1        -0.6703
       4    C2      17.559058   18.756200   24.349057 C.3        1 MOL1        -0.1963
       5    H1      17.915409   19.427167   25.138354 H          1 MOL1         0.0750
       6    H2      17.103832   19.380899   23.571323 H          1 MOL1         0.0750
       7    C3      18.732249   17.933208   23.755647 C.3        1 MOL1        -0.1860
       8    H3      19.211755   17.347788   24.552291 H          1 MOL1         0.0752
       9    H4      18.323089   17.206057   23.040605 H          1 MOL1         0.0752
      10    C4      19.791801   18.796168   23.029297 C.3        1 MOL1        -0.1858
      11    H5      19.306379   19.399315   22.250093 H          1 MOL1         0.0752
      12    H6      20.485332   18.117100   22.517566 H          1 MOL1         0.0752
      13    C5      20.596254   19.714602   23.979982 C.3        1 MOL1        -0.1858
      14    H7      19.905784   20.351600   24.546517 H          1 MOL1         0.0752
      15    H8      21.125690   19.098908   24.719721 H          1 MOL1         0.0752
      16    C6      21.610142   20.640267   23.261200 C.3        1 MOL1        -0.1858
      17    H9      22.076055   21.276276   24.026242 H          1 MOL1         0.0752
      18    H10     21.080106   21.326252   22.586372 H          1 MOL1         0.0752
      19    C7      22.737540   19.900939   22.497936 C.3        1 MOL1        -0.1834
      20    H11     23.671695   20.467429   22.615172 H          1 MOL1         0.0752
      21    H12     22.920137   18.915358   22.947961 H          1 MOL1         0.0752
      22    C8      22.453629   19.755861   20.986112 C.3        1 MOL1        -0.2849
      23    H13     22.348022   20.740790   20.512992 H          1 MOL1         0.0764
      24    H14     23.279796   19.231592   20.488723 H          1 MOL1         0.0764
      25    H15     21.534647   19.189845   20.795803 H          1 MOL1         0.0764
@<TRIPOS>BOND
    1     1     2    1
    2     1     3    2
    3     1     4    1
    4     4     5    1
    5     4     6    1
    6     4     7    1
    7     7     8    1
    8     7     9    1
    9     7    10    1
   10    10    11    1
   11    10    12    1
   12    10    13    1
   13    13    14    1
   14    13    15    1
   15    13    16    1
   16    16    17    1
   17    16    18    1
   18    16    19    1
   19    19    20    1
   20    19    21    1
   21    19    22    1
   22    22    23    1
   23    22    24    1
   24    22    25    1
@<TRIPOS>SUBSTRUCTURE
       1 MOL1            1 RESIDUE      1      MOL     
@<SCITEGIC>MOL_PROPERTY
VConf Rank
SciTegic.value.IntegerValue
533

@<SCITEGIC>MOL_PROPERTY
Conf_Id
SciTegic.value.IntegerValue
20

@<SCITEGIC>MOL_PROPERTY
Delta U+W
SciTegic.value.DoubleValue
3.224

@<SCITEGIC>MOL_PROPERTY
U+W
SciTegic.value.DoubleValue
-48.406

@<SCITEGIC>MOL_PROPERTY
Grad RMS
SciTegic.value.DoubleValue
0.000000

@<SCITEGIC>MOL_PROPERTY
U
SciTegic.value.DoubleValue
10.617

@<SCITEGIC>MOL_PROPERTY
W
SciTegic.value.DoubleValue
-59.023

@<SCITEGIC>MOL_PROPERTY
W(PB)
SciTegic.value.DoubleValue
-61.467

@<SCITEGIC>MOL_PROPERTY
W(SA)
SciTegic.value.DoubleValue
2.444

@<SCITEGIC>MOL_PROPERTY
Valence
SciTegic.value.DoubleValue
11.188

@<SCITEGIC>MOL_PROPERTY
Coulomb
SciTegic.value.DoubleValue
-1.778

@<SCITEGIC>MOL_PROPERTY
VdW
SciTegic.value.DoubleValue
1.208

@<SCITEGIC>MOL_PROPERTY
VdW6
SciTegic.value.DoubleValue
-9.786

@<SCITEGIC>MOL_PROPERTY
VdW12
SciTegic.value.DoubleValue
10.993

@<SCITEGIC>MOL_PROPERTY
Bond
SciTegic.value.DoubleValue
0.241

@<SCITEGIC>MOL_PROPERTY
Angle
SciTegic.value.DoubleValue
3.294

@<SCITEGIC>MOL_PROPERTY
Pdih
SciTegic.value.DoubleValue
7.653

@<SCITEGIC>MOL_PROPERTY
Idih
SciTegic.value.DoubleValue
0.001

@<SCITEGIC>MOL_PROPERTY
Tether
SciTegic.value.DoubleValue
0.000

@<TRIPOS>MOLECULE
guest-8_confgen4.mol2 : confsearch ligand conformer 534
          25          24           1
SMALL
USER_CHARGES
 
@<TRIPOS>ATOM
       1    C1      21.166141   20.659382   26.152947 C.2        1 MOL1         0.6168
       2    O1      22.177140   21.216459   25.771908 O.co2      1 MOL1        -0.6703
       3    O2      21.168086   19.600049   26.748789 O.co2      1 MOL1        -0.6703
       4    C2      19.825864   21.357699   25.930678 C.3        1 MOL1        -0.1963
       5    H1      19.865723   22.290607   26.504753 H          1 MOL1         0.0750
       6    H2      19.028904   20.749448   26.375286 H          1 MOL1         0.0750
       7    C3      19.488026   21.689059   24.449741 C.3        1 MOL1        -0.1860
       8    H3      18.727881   22.481891   24.444619 H          1 MOL1         0.0752
       9    H4      20.370117   22.113348   23.950253 H          1 MOL1         0.0752
      10    C4      18.933652   20.498960   23.627903 C.3        1 MOL1        -0.1858
      11    H5      18.591963   20.883549   22.657170 H          1 MOL1         0.0752
      12    H6      18.045567   20.087159   24.126461 H          1 MOL1         0.0752
      13    C5      19.960651   19.370663   23.381231 C.3        1 MOL1        -0.1858
      14    H7      20.889176   19.798453   22.978883 H          1 MOL1         0.0752
      15    H8      20.215726   18.884602   24.331329 H          1 MOL1         0.0752
      16    C6      19.415723   18.305680   22.404791 C.3        1 MOL1        -0.1858
      17    H9      19.164481   18.779668   21.446053 H          1 MOL1         0.0752
      18    H10     18.484774   17.882549   22.806446 H          1 MOL1         0.0752
      19    C7      20.436054   17.172714   22.166704 C.3        1 MOL1        -0.1834
      20    H11     21.368279   17.592649   21.764125 H          1 MOL1         0.0752
      21    H12     20.688592   16.694980   23.123574 H          1 MOL1         0.0752
      22    C8      19.889037   16.110600   21.191842 C.3        1 MOL1        -0.2849
      23    H13     19.657540   16.555862   20.215358 H          1 MOL1         0.0764
      24    H14     20.627047   15.313343   21.034401 H          1 MOL1         0.0764
      25    H15     18.972668   15.651352   21.585203 H          1 MOL1         0.0764
@<TRIPOS>BOND
    1     1     2    1
    2     1     3    2
    3     1     4    1
    4     4     5    1
    5     4     6    1
    6     4     7    1
    7     7     8    1
    8     7     9    1
    9     7    10    1
   10    10    11    1
   11    10    12    1
   12    10    13    1
   13    13    14    1
   14    13    15    1
   15    13    16    1
   16    16    17    1
   17    16    18    1
   18    16    19    1
   19    19    20    1
   20    19    21    1
   21    19    22    1
   22    22    23    1
   23    22    24    1
   24    22    25    1
@<TRIPOS>SUBSTRUCTURE
       1 MOL1            1 RESIDUE      1      MOL     
@<SCITEGIC>MOL_PROPERTY
VConf Rank
SciTegic.value.IntegerValue
534

@<SCITEGIC>MOL_PROPERTY
Conf_Id
SciTegic.value.IntegerValue
24

@<SCITEGIC>MOL_PROPERTY
Delta U+W
SciTegic.value.DoubleValue
1.784

@<SCITEGIC>MOL_PROPERTY
U+W
SciTegic.value.DoubleValue
-49.846

@<SCITEGIC>MOL_PROPERTY
Grad RMS
SciTegic.value.DoubleValue
0.000000

@<SCITEGIC>MOL_PROPERTY
U
SciTegic.value.DoubleValue
10.904

@<SCITEGIC>MOL_PROPERTY
W
SciTegic.value.DoubleValue
-60.749

@<SCITEGIC>MOL_PROPERTY
W(PB)
SciTegic.value.DoubleValue
-63.220

@<SCITEGIC>MOL_PROPERTY
W(SA)
SciTegic.value.DoubleValue
2.471

@<SCITEGIC>MOL_PROPERTY
Valence
SciTegic.value.DoubleValue
9.445

@<SCITEGIC>MOL_PROPERTY
Coulomb
SciTegic.value.DoubleValue
0.780

@<SCITEGIC>MOL_PROPERTY
VdW
SciTegic.value.DoubleValue
0.679

@<SCITEGIC>MOL_PROPERTY
VdW6
SciTegic.value.DoubleValue
-10.008

@<SCITEGIC>MOL_PROPERTY
VdW12
SciTegic.value.DoubleValue
10.687

@<SCITEGIC>MOL_PROPERTY
Bond
SciTegic.value.DoubleValue
0.201

@<SCITEGIC>MOL_PROPERTY
Angle
SciTegic.value.DoubleValue
3.198

@<SCITEGIC>MOL_PROPERTY
Pdih
SciTegic.value.DoubleValue
6.039

@<SCITEGIC>MOL_PROPERTY
Idih
SciTegic.value.DoubleValue
0.006

@<SCITEGIC>MOL_PROPERTY
Tether
SciTegic.value.DoubleValue
0.000

@<TRIPOS>MOLECULE
guest-8_confgen4.mol2 : confsearch ligand conformer 535
          25          24           1
SMALL
USER_CHARGES
 
@<TRIPOS>ATOM
       1    C1      18.371410   16.338552   23.746048 C.2        1 MOL1         0.6168
       2    O1      18.515355   15.907576   24.873516 O.co2      1 MOL1        -0.6703
       3    O2      17.385032   16.948270   23.382015 O.co2      1 MOL1        -0.6703
       4    C2      19.456312   16.041801   22.712454 C.3        1 MOL1        -0.1963
       5    H1      19.148485   16.454325   21.744026 H          1 MOL1         0.0750
       6    H2      19.480717   14.952191   22.595746 H          1 MOL1         0.0750
       7    C3      20.880585   16.542902   23.083193 C.3        1 MOL1        -0.1860
       8    H3      21.100515   16.303215   24.132848 H          1 MOL1         0.0752
       9    H4      21.606148   15.974744   22.485546 H          1 MOL1         0.0752
      10    C4      21.128598   18.048861   22.819260 C.3        1 MOL1        -0.1858
      11    H5      20.918541   18.279102   21.765837 H          1 MOL1         0.0752
      12    H6      22.197570   18.251201   22.972034 H          1 MOL1         0.0752
      13    C5      20.309775   18.991546   23.730029 C.3        1 MOL1        -0.1858
      14    H7      19.241336   18.898642   23.498049 H          1 MOL1         0.0752
      15    H8      20.438461   18.693973   24.779760 H          1 MOL1         0.0752
      16    C6      20.733625   20.466007   23.554286 C.3        1 MOL1        -0.1858
      17    H9      20.608884   20.760274   22.503155 H          1 MOL1         0.0752
      18    H10     21.800820   20.572996   23.792226 H          1 MOL1         0.0752
      19    C7      19.908743   21.409371   24.454845 C.3        1 MOL1        -0.1834
      20    H11     18.840520   21.306403   24.218413 H          1 MOL1         0.0752
      21    H12     20.031938   21.118054   25.507183 H          1 MOL1         0.0752
      22    C8      20.333835   22.880874   24.276958 C.3        1 MOL1        -0.2849
      23    H13     20.190996   23.208168   23.238763 H          1 MOL1         0.0764
      24    H14     19.737323   23.536842   24.924217 H          1 MOL1         0.0764
      25    H15     21.391484   23.018411   24.537412 H          1 MOL1         0.0764
@<TRIPOS>BOND
    1     1     2    1
    2     1     3    2
    3     1     4    1
    4     4     5    1
    5     4     6    1
    6     4     7    1
    7     7     8    1
    8     7     9    1
    9     7    10    1
   10    10    11    1
   11    10    12    1
   12    10    13    1
   13    13    14    1
   14    13    15    1
   15    13    16    1
   16    16    17    1
   17    16    18    1
   18    16    19    1
   19    19    20    1
   20    19    21    1
   21    19    22    1
   22    22    23    1
   23    22    24    1
   24    22    25    1
@<TRIPOS>SUBSTRUCTURE
       1 MOL1            1 RESIDUE      1      MOL     
@<SCITEGIC>MOL_PROPERTY
VConf Rank
SciTegic.value.IntegerValue
535

@<SCITEGIC>MOL_PROPERTY
Conf_Id
SciTegic.value.IntegerValue
9

@<SCITEGIC>MOL_PROPERTY
Delta U+W
SciTegic.value.DoubleValue
1.764

@<SCITEGIC>MOL_PROPERTY
U+W
SciTegic.value.DoubleValue
-49.865

@<SCITEGIC>MOL_PROPERTY
Grad RMS
SciTegic.value.DoubleValue
0.000000

@<SCITEGIC>MOL_PROPERTY
U
SciTegic.value.DoubleValue
10.902

@<SCITEGIC>MOL_PROPERTY
W
SciTegic.value.DoubleValue
-60.768

@<SCITEGIC>MOL_PROPERTY
W(PB)
SciTegic.value.DoubleValue
-63.223

@<SCITEGIC>MOL_PROPERTY
W(SA)
SciTegic.value.DoubleValue
2.456

@<SCITEGIC>MOL_PROPERTY
Valence
SciTegic.value.DoubleValue
9.445

@<SCITEGIC>MOL_PROPERTY
Coulomb
SciTegic.value.DoubleValue
0.778

@<SCITEGIC>MOL_PROPERTY
VdW
SciTegic.value.DoubleValue
0.679

@<SCITEGIC>MOL_PROPERTY
VdW6
SciTegic.value.DoubleValue
-10.007

@<SCITEGIC>MOL_PROPERTY
VdW12
SciTegic.value.DoubleValue
10.687

@<SCITEGIC>MOL_PROPERTY
Bond
SciTegic.value.DoubleValue
0.201

@<SCITEGIC>MOL_PROPERTY
Angle
SciTegic.value.DoubleValue
3.198

@<SCITEGIC>MOL_PROPERTY
Pdih
SciTegic.value.DoubleValue
6.040

@<SCITEGIC>MOL_PROPERTY
Idih
SciTegic.value.DoubleValue
0.006

@<SCITEGIC>MOL_PROPERTY
Tether
SciTegic.value.DoubleValue
0.000

@<TRIPOS>MOLECULE
guest-8_confgen4.mol2 : confsearch ligand conformer 536
          25          24           1
SMALL
USER_CHARGES
 
@<TRIPOS>ATOM
       1    C1      20.589963   18.114876   26.897768 C.2        1 MOL1         0.6168
       2    O1      21.288174   17.187485   26.538528 O.co2      1 MOL1        -0.6703
       3    O2      20.561232   18.533681   28.038217 O.co2      1 MOL1        -0.6703
       4    C2      19.716754   18.804660   25.855932 C.3        1 MOL1        -0.1963
       5    H1      18.804510   19.151427   26.355754 H          1 MOL1         0.0750
       6    H2      19.412095   18.051320   25.123045 H          1 MOL1         0.0750
       7    C3      20.432601   19.997408   25.168499 C.3        1 MOL1        -0.1860
       8    H3      20.707354   20.721033   25.948444 H          1 MOL1         0.0752
       9    H4      21.376531   19.662647   24.716452 H          1 MOL1         0.0752
      10    C4      19.557248   20.717459   24.111345 C.3        1 MOL1        -0.1858
      11    H5      19.794175   21.789668   24.145273 H          1 MOL1         0.0752
      12    H6      18.494515   20.638421   24.378159 H          1 MOL1         0.0752
      13    C5      19.778312   20.238692   22.654405 C.3        1 MOL1        -0.1858
      14    H7      19.174452   20.870060   21.988614 H          1 MOL1         0.0752
      15    H8      20.826523   20.410121   22.376392 H          1 MOL1         0.0752
      16    C6      19.409998   18.756179   22.410128 C.3        1 MOL1        -0.1858
      17    H9      18.415401   18.558569   22.832174 H          1 MOL1         0.0752
      18    H10     20.116888   18.105701   22.941572 H          1 MOL1         0.0752
      19    C7      19.396509   18.367879   20.913273 C.3        1 MOL1        -0.1834
      20    H11     19.032374   17.335489   20.819776 H          1 MOL1         0.0752
      21    H12     18.679002   19.000014   20.372143 H          1 MOL1         0.0752
      22    C8      20.784829   18.469135   20.244961 C.3        1 MOL1        -0.2849
      23    H13     21.525319   17.864376   20.784485 H          1 MOL1         0.0764
      24    H14     20.740525   18.105749   19.210148 H          1 MOL1         0.0764
      25    H15     21.141072   19.506559   20.218216 H          1 MOL1         0.0764
@<TRIPOS>BOND
    1     1     2    1
    2     1     3    2
    3     1     4    1
    4     4     5    1
    5     4     6    1
    6     4     7    1
    7     7     8    1
    8     7     9    1
    9     7    10    1
   10    10    11    1
   11    10    12    1
   12    10    13    1
   13    13    14    1
   14    13    15    1
   15    13    16    1
   16    16    17    1
   17    16    18    1
   18    16    19    1
   19    19    20    1
   20    19    21    1
   21    19    22    1
   22    22    23    1
   23    22    24    1
   24    22    25    1
@<TRIPOS>SUBSTRUCTURE
       1 MOL1            1 RESIDUE      1      MOL     
@<SCITEGIC>MOL_PROPERTY
VConf Rank
SciTegic.value.IntegerValue
536

@<SCITEGIC>MOL_PROPERTY
Conf_Id
SciTegic.value.IntegerValue
89

@<SCITEGIC>MOL_PROPERTY
Delta U+W
SciTegic.value.DoubleValue
2.903

@<SCITEGIC>MOL_PROPERTY
U+W
SciTegic.value.DoubleValue
-48.726

@<SCITEGIC>MOL_PROPERTY
Grad RMS
SciTegic.value.DoubleValue
0.000000

@<SCITEGIC>MOL_PROPERTY
U
SciTegic.value.DoubleValue
10.996

@<SCITEGIC>MOL_PROPERTY
W
SciTegic.value.DoubleValue
-59.723

@<SCITEGIC>MOL_PROPERTY
W(PB)
SciTegic.value.DoubleValue
-62.151

@<SCITEGIC>MOL_PROPERTY
W(SA)
SciTegic.value.DoubleValue
2.428

@<SCITEGIC>MOL_PROPERTY
Valence
SciTegic.value.DoubleValue
10.985

@<SCITEGIC>MOL_PROPERTY
Coulomb
SciTegic.value.DoubleValue
-0.995

@<SCITEGIC>MOL_PROPERTY
VdW
SciTegic.value.DoubleValue
1.006

@<SCITEGIC>MOL_PROPERTY
VdW6
SciTegic.value.DoubleValue
-10.062

@<SCITEGIC>MOL_PROPERTY
VdW12
SciTegic.value.DoubleValue
11.069

@<SCITEGIC>MOL_PROPERTY
Bond
SciTegic.value.DoubleValue
0.238

@<SCITEGIC>MOL_PROPERTY
Angle
SciTegic.value.DoubleValue
3.202

@<SCITEGIC>MOL_PROPERTY
Pdih
SciTegic.value.DoubleValue
7.544

@<SCITEGIC>MOL_PROPERTY
Idih
SciTegic.value.DoubleValue
0.001

@<SCITEGIC>MOL_PROPERTY
Tether
SciTegic.value.DoubleValue
0.000

@<TRIPOS>MOLECULE
guest-8_confgen4.mol2 : confsearch ligand conformer 537
          25          24           1
SMALL
USER_CHARGES
 
@<TRIPOS>ATOM
       1    C1      16.687750   18.843499   24.139647 C.2        1 MOL1         0.6168
       2    O1      16.312259   19.774706   23.454723 O.co2      1 MOL1        -0.6703
       3    O2      16.377630   17.687432   23.927650 O.co2      1 MOL1        -0.6703
       4    C2      17.541280   19.151861   25.368324 C.3        1 MOL1        -0.1963
       5    H1      16.944853   18.855450   26.238895 H          1 MOL1         0.0750
       6    H2      17.683912   20.236841   25.440746 H          1 MOL1         0.0750
       7    C3      18.913379   18.422581   25.423796 C.3        1 MOL1        -0.1860
       8    H3      19.244661   18.405882   26.470895 H          1 MOL1         0.0752
       9    H4      18.791694   17.370857   25.129443 H          1 MOL1         0.0752
      10    C4      20.037236   19.082094   24.585988 C.3        1 MOL1        -0.1858
      11    H5      20.979434   18.581997   24.842278 H          1 MOL1         0.0752
      12    H6      20.153457   20.132426   24.885738 H          1 MOL1         0.0752
      13    C5      19.813815   18.999525   23.056397 C.3        1 MOL1        -0.1858
      14    H7      19.636274   17.956639   22.760360 H          1 MOL1         0.0752
      15    H8      18.906814   19.557127   22.793216 H          1 MOL1         0.0752
      16    C6      20.983421   19.584150   22.228382 C.3        1 MOL1        -0.1858
      17    H9      21.181308   20.616369   22.548056 H          1 MOL1         0.0752
      18    H10     20.668365   19.640302   21.177435 H          1 MOL1         0.0752
      19    C7      22.282620   18.751026   22.314562 C.3        1 MOL1        -0.1834
      20    H11     22.664981   18.747921   23.343406 H          1 MOL1         0.0752
      21    H12     22.071090   17.706379   22.047813 H          1 MOL1         0.0752
      22    C8      23.373791   19.307402   21.377605 C.3        1 MOL1        -0.2849
      23    H13     23.624542   20.343752   21.639276 H          1 MOL1         0.0764
      24    H14     24.290235   18.707724   21.452208 H          1 MOL1         0.0764
      25    H15     23.041097   19.288649   20.331514 H          1 MOL1         0.0764
@<TRIPOS>BOND
    1     1     2    1
    2     1     3    2
    3     1     4    1
    4     4     5    1
    5     4     6    1
    6     4     7    1
    7     7     8    1
    8     7     9    1
    9     7    10    1
   10    10    11    1
   11    10    12    1
   12    10    13    1
   13    13    14    1
   14    13    15    1
   15    13    16    1
   16    16    17    1
   17    16    18    1
   18    16    19    1
   19    19    20    1
   20    19    21    1
   21    19    22    1
   22    22    23    1
   23    22    24    1
   24    22    25    1
@<TRIPOS>SUBSTRUCTURE
       1 MOL1            1 RESIDUE      1      MOL     
@<SCITEGIC>MOL_PROPERTY
VConf Rank
SciTegic.value.IntegerValue
537

@<SCITEGIC>MOL_PROPERTY
Conf_Id
SciTegic.value.IntegerValue
114

@<SCITEGIC>MOL_PROPERTY
Delta U+W
SciTegic.value.DoubleValue
2.758

@<SCITEGIC>MOL_PROPERTY
U+W
SciTegic.value.DoubleValue
-48.871

@<SCITEGIC>MOL_PROPERTY
Grad RMS
SciTegic.value.DoubleValue
0.000000

@<SCITEGIC>MOL_PROPERTY
U
SciTegic.value.DoubleValue
11.422

@<SCITEGIC>MOL_PROPERTY
W
SciTegic.value.DoubleValue
-60.293

@<SCITEGIC>MOL_PROPERTY
W(PB)
SciTegic.value.DoubleValue
-62.719

@<SCITEGIC>MOL_PROPERTY
W(SA)
SciTegic.value.DoubleValue
2.425

@<SCITEGIC>MOL_PROPERTY
Valence
SciTegic.value.DoubleValue
10.135

@<SCITEGIC>MOL_PROPERTY
Coulomb
SciTegic.value.DoubleValue
0.369

@<SCITEGIC>MOL_PROPERTY
VdW
SciTegic.value.DoubleValue
0.918

@<SCITEGIC>MOL_PROPERTY
VdW6
SciTegic.value.DoubleValue
-10.482

@<SCITEGIC>MOL_PROPERTY
VdW12
SciTegic.value.DoubleValue
11.400

@<SCITEGIC>MOL_PROPERTY
Bond
SciTegic.value.DoubleValue
0.245

@<SCITEGIC>MOL_PROPERTY
Angle
SciTegic.value.DoubleValue
3.539

@<SCITEGIC>MOL_PROPERTY
Pdih
SciTegic.value.DoubleValue
6.346

@<SCITEGIC>MOL_PROPERTY
Idih
SciTegic.value.DoubleValue
0.006

@<SCITEGIC>MOL_PROPERTY
Tether
SciTegic.value.DoubleValue
0.000

@<TRIPOS>MOLECULE
guest-8_confgen4.mol2 : confsearch ligand conformer 538
          25          24           1
SMALL
USER_CHARGES
 
@<TRIPOS>ATOM
       1    C1      17.646747   16.707057   21.838843 C.2        1 MOL1         0.6168
       2    O1      16.690827   16.721044   22.589232 O.co2      1 MOL1        -0.6703
       3    O2      17.596710   17.065993   20.678774 O.co2      1 MOL1        -0.6703
       4    C2      18.979344   16.191417   22.374799 C.3        1 MOL1        -0.1963
       5    H1      19.395004   15.511308   21.622033 H          1 MOL1         0.0750
       6    H2      18.786972   15.591666   23.272611 H          1 MOL1         0.0750
       7    C3      20.007255   17.309982   22.686553 C.3        1 MOL1        -0.1860
       8    H3      20.971028   16.848174   22.939783 H          1 MOL1         0.0752
       9    H4      20.168916   17.906022   21.778848 H          1 MOL1         0.0752
      10    C4      19.554761   18.220820   23.853119 C.3        1 MOL1        -0.1858
      11    H5      19.309126   17.592375   24.720047 H          1 MOL1         0.0752
      12    H6      18.628848   18.745686   23.580170 H          1 MOL1         0.0752
      13    C5      20.624468   19.252743   24.283867 C.3        1 MOL1        -0.1858
      14    H7      20.271829   19.743673   25.199738 H          1 MOL1         0.0752
      15    H8      21.554136   18.730913   24.548314 H          1 MOL1         0.0752
      16    C6      20.915334   20.325614   23.205494 C.3        1 MOL1        -0.1858
      17    H9      19.984647   20.844646   22.938832 H          1 MOL1         0.0752
      18    H10     21.272341   19.836486   22.290419 H          1 MOL1         0.0752
      19    C7      21.979029   21.361061   23.640052 C.3        1 MOL1        -0.1834
      20    H11     22.907871   20.844429   23.918676 H          1 MOL1         0.0752
      21    H12     22.224359   21.995662   22.777304 H          1 MOL1         0.0752
      22    C8      21.517050   22.265288   24.803606 C.3        1 MOL1        -0.2849
      23    H13     22.266647   23.040864   25.007294 H          1 MOL1         0.0764
      24    H14     20.570774   22.765849   24.560473 H          1 MOL1         0.0764
      25    H15     21.375788   21.690748   25.727379 H          1 MOL1         0.0764
@<TRIPOS>BOND
    1     1     2    1
    2     1     3    2
    3     1     4    1
    4     4     5    1
    5     4     6    1
    6     4     7    1
    7     7     8    1
    8     7     9    1
    9     7    10    1
   10    10    11    1
   11    10    12    1
   12    10    13    1
   13    13    14    1
   14    13    15    1
   15    13    16    1
   16    16    17    1
   17    16    18    1
   18    16    19    1
   19    19    20    1
   20    19    21    1
   21    19    22    1
   22    22    23    1
   23    22    24    1
   24    22    25    1
@<TRIPOS>SUBSTRUCTURE
       1 MOL1            1 RESIDUE      1      MOL     
@<SCITEGIC>MOL_PROPERTY
VConf Rank
SciTegic.value.IntegerValue
538

@<SCITEGIC>MOL_PROPERTY
Conf_Id
SciTegic.value.IntegerValue
87

@<SCITEGIC>MOL_PROPERTY
Delta U+W
SciTegic.value.DoubleValue
1.453

@<SCITEGIC>MOL_PROPERTY
U+W
SciTegic.value.DoubleValue
-50.176

@<SCITEGIC>MOL_PROPERTY
Grad RMS
SciTegic.value.DoubleValue
0.000000

@<SCITEGIC>MOL_PROPERTY
U
SciTegic.value.DoubleValue
9.763

@<SCITEGIC>MOL_PROPERTY
W
SciTegic.value.DoubleValue
-59.940

@<SCITEGIC>MOL_PROPERTY
W(PB)
SciTegic.value.DoubleValue
-62.392

@<SCITEGIC>MOL_PROPERTY
W(SA)
SciTegic.value.DoubleValue
2.452

@<SCITEGIC>MOL_PROPERTY
Valence
SciTegic.value.DoubleValue
8.883

@<SCITEGIC>MOL_PROPERTY
Coulomb
SciTegic.value.DoubleValue
-0.122

@<SCITEGIC>MOL_PROPERTY
VdW
SciTegic.value.DoubleValue
1.003

@<SCITEGIC>MOL_PROPERTY
VdW6
SciTegic.value.DoubleValue
-9.782

@<SCITEGIC>MOL_PROPERTY
VdW12
SciTegic.value.DoubleValue
10.785

@<SCITEGIC>MOL_PROPERTY
Bond
SciTegic.value.DoubleValue
0.212

@<SCITEGIC>MOL_PROPERTY
Angle
SciTegic.value.DoubleValue
2.940

@<SCITEGIC>MOL_PROPERTY
Pdih
SciTegic.value.DoubleValue
5.730

@<SCITEGIC>MOL_PROPERTY
Idih
SciTegic.value.DoubleValue
0.001

@<SCITEGIC>MOL_PROPERTY
Tether
SciTegic.value.DoubleValue
0.000

@<TRIPOS>MOLECULE
guest-8_confgen4.mol2 : confsearch ligand conformer 539
          25          24           1
SMALL
USER_CHARGES
 
@<TRIPOS>ATOM
       1    C1      21.927385   19.191265   19.843392 C.2        1 MOL1         0.6168
       2    O1      21.388472   20.132944   19.296127 O.co2      1 MOL1        -0.6703
       3    O2      23.087262   18.879093   19.659060 O.co2      1 MOL1        -0.6703
       4    C2      21.108199   18.366724   20.829918 C.3        1 MOL1        -0.1963
       5    H1      21.462100   17.329864   20.783488 H          1 MOL1         0.0750
       6    H2      20.064897   18.369102   20.492146 H          1 MOL1         0.0750
       7    C3      21.200444   18.899476   22.280992 C.3        1 MOL1        -0.1860
       8    H3      22.251082   18.899297   22.602398 H          1 MOL1         0.0752
       9    H4      20.860082   19.943334   22.298259 H          1 MOL1         0.0752
      10    C4      20.355695   18.050257   23.258669 C.3        1 MOL1        -0.1858
      11    H5      20.663322   16.998962   23.176410 H          1 MOL1         0.0752
      12    H6      19.299236   18.082376   22.961569 H          1 MOL1         0.0752
      13    C5      20.500844   18.486561   24.738165 C.3        1 MOL1        -0.1858
      14    H7      19.920375   17.800366   25.368698 H          1 MOL1         0.0752
      15    H8      21.547700   18.357027   25.044407 H          1 MOL1         0.0752
      16    C6      20.073161   19.946558   25.043642 C.3        1 MOL1        -0.1858
      17    H9      20.760229   20.639348   24.540408 H          1 MOL1         0.0752
      18    H10     20.201729   20.130878   26.118810 H          1 MOL1         0.0752
      19    C7      18.619699   20.304668   24.646983 C.3        1 MOL1        -0.1834
      20    H11     18.441824   21.362083   24.886020 H          1 MOL1         0.0752
      21    H12     18.491222   20.213271   23.560257 H          1 MOL1         0.0752
      22    C8      17.560365   19.446211   25.371486 C.3        1 MOL1        -0.2849
      23    H13     17.681058   19.510143   26.460651 H          1 MOL1         0.0764
      24    H14     16.549055   19.792063   25.121754 H          1 MOL1         0.0764
      25    H15     17.633572   18.391501   25.077935 H          1 MOL1         0.0764
@<TRIPOS>BOND
    1     1     2    1
    2     1     3    2
    3     1     4    1
    4     4     5    1
    5     4     6    1
    6     4     7    1
    7     7     8    1
    8     7     9    1
    9     7    10    1
   10    10    11    1
   11    10    12    1
   12    10    13    1
   13    13    14    1
   14    13    15    1
   15    13    16    1
   16    16    17    1
   17    16    18    1
   18    16    19    1
   19    19    20    1
   20    19    21    1
   21    19    22    1
   22    22    23    1
   23    22    24    1
   24    22    25    1
@<TRIPOS>SUBSTRUCTURE
       1 MOL1            1 RESIDUE      1      MOL     
@<SCITEGIC>MOL_PROPERTY
VConf Rank
SciTegic.value.IntegerValue
539

@<SCITEGIC>MOL_PROPERTY
Conf_Id
SciTegic.value.IntegerValue
29

@<SCITEGIC>MOL_PROPERTY
Delta U+W
SciTegic.value.DoubleValue
0.850

@<SCITEGIC>MOL_PROPERTY
U+W
SciTegic.value.DoubleValue
-50.780

@<SCITEGIC>MOL_PROPERTY
Grad RMS
SciTegic.value.DoubleValue
0.000000

@<SCITEGIC>MOL_PROPERTY
U
SciTegic.value.DoubleValue
8.646

@<SCITEGIC>MOL_PROPERTY
W
SciTegic.value.DoubleValue
-59.426

@<SCITEGIC>MOL_PROPERTY
W(PB)
SciTegic.value.DoubleValue
-61.868

@<SCITEGIC>MOL_PROPERTY
W(SA)
SciTegic.value.DoubleValue
2.442

@<SCITEGIC>MOL_PROPERTY
Valence
SciTegic.value.DoubleValue
8.924

@<SCITEGIC>MOL_PROPERTY
Coulomb
SciTegic.value.DoubleValue
-1.171

@<SCITEGIC>MOL_PROPERTY
VdW
SciTegic.value.DoubleValue
0.894

@<SCITEGIC>MOL_PROPERTY
VdW6
SciTegic.value.DoubleValue
-10.223

@<SCITEGIC>MOL_PROPERTY
VdW12
SciTegic.value.DoubleValue
11.117

@<SCITEGIC>MOL_PROPERTY
Bond
SciTegic.value.DoubleValue
0.231

@<SCITEGIC>MOL_PROPERTY
Angle
SciTegic.value.DoubleValue
3.232

@<SCITEGIC>MOL_PROPERTY
Pdih
SciTegic.value.DoubleValue
5.461

@<SCITEGIC>MOL_PROPERTY
Idih
SciTegic.value.DoubleValue
0.001

@<SCITEGIC>MOL_PROPERTY
Tether
SciTegic.value.DoubleValue
0.000

@<TRIPOS>MOLECULE
guest-8_confgen4.mol2 : confsearch ligand conformer 540
          25          24           1
SMALL
USER_CHARGES
 
@<TRIPOS>ATOM
       1    C1      18.094228   22.649807   23.222227 C.2        1 MOL1         0.6168
       2    O1      18.582309   23.170327   22.238601 O.co2      1 MOL1        -0.6703
       3    O2      17.712614   23.271933   24.193860 O.co2      1 MOL1        -0.6703
       4    C2      17.971142   21.130455   23.246565 C.3        1 MOL1        -0.1963
       5    H1      17.803453   20.785693   22.219145 H          1 MOL1         0.0750
       6    H2      17.077346   20.870412   23.826209 H          1 MOL1         0.0750
       7    C3      19.218669   20.435617   23.845594 C.3        1 MOL1        -0.1860
       8    H3      20.101858   20.726605   23.261566 H          1 MOL1         0.0752
       9    H4      19.378891   20.796597   24.870857 H          1 MOL1         0.0752
      10    C4      19.070658   18.896562   23.851557 C.3        1 MOL1        -0.1858
      11    H5      18.950561   18.530732   22.823378 H          1 MOL1         0.0752
      12    H6      18.145757   18.628567   24.380101 H          1 MOL1         0.0752
      13    C5      20.252912   18.166060   24.536378 C.3        1 MOL1        -0.1858
      14    H7      20.297190   18.474298   25.589706 H          1 MOL1         0.0752
      15    H8      20.043003   17.088519   24.551323 H          1 MOL1         0.0752
      16    C6      21.643680   18.406793   23.891678 C.3        1 MOL1        -0.1858
      17    H9      22.392068   17.826063   24.447698 H          1 MOL1         0.0752
      18    H10     21.928024   19.458973   24.023324 H          1 MOL1         0.0752
      19    C7      21.746159   18.043428   22.389814 C.3        1 MOL1        -0.1834
      20    H11     21.068606   18.675924   21.800996 H          1 MOL1         0.0752
      21    H12     22.761037   18.278545   22.041035 H          1 MOL1         0.0752
      22    C8      21.453470   16.555204   22.100748 C.3        1 MOL1        -0.2849
      23    H13     20.412392   16.300857   22.336137 H          1 MOL1         0.0764
      24    H14     21.619639   16.329883   21.039453 H          1 MOL1         0.0764
      25    H15     22.109752   15.903796   22.692270 H          1 MOL1         0.0764
@<TRIPOS>BOND
    1     1     2    1
    2     1     3    2
    3     1     4    1
    4     4     5    1
    5     4     6    1
    6     4     7    1
    7     7     8    1
    8     7     9    1
    9     7    10    1
   10    10    11    1
   11    10    12    1
   12    10    13    1
   13    13    14    1
   14    13    15    1
   15    13    16    1
   16    16    17    1
   17    16    18    1
   18    16    19    1
   19    19    20    1
   20    19    21    1
   21    19    22    1
   22    22    23    1
   23    22    24    1
   24    22    25    1
@<TRIPOS>SUBSTRUCTURE
       1 MOL1            1 RESIDUE      1      MOL     
@<SCITEGIC>MOL_PROPERTY
VConf Rank
SciTegic.value.IntegerValue
540

@<SCITEGIC>MOL_PROPERTY
Conf_Id
SciTegic.value.IntegerValue
30

@<SCITEGIC>MOL_PROPERTY
Delta U+W
SciTegic.value.DoubleValue
0.843

@<SCITEGIC>MOL_PROPERTY
U+W
SciTegic.value.DoubleValue
-50.787

@<SCITEGIC>MOL_PROPERTY
Grad RMS
SciTegic.value.DoubleValue
0.000000

@<SCITEGIC>MOL_PROPERTY
U
SciTegic.value.DoubleValue
8.647

@<SCITEGIC>MOL_PROPERTY
W
SciTegic.value.DoubleValue
-59.434

@<SCITEGIC>MOL_PROPERTY
W(PB)
SciTegic.value.DoubleValue
-61.861

@<SCITEGIC>MOL_PROPERTY
W(SA)
SciTegic.value.DoubleValue
2.428

@<SCITEGIC>MOL_PROPERTY
Valence
SciTegic.value.DoubleValue
8.924

@<SCITEGIC>MOL_PROPERTY
Coulomb
SciTegic.value.DoubleValue
-1.170

@<SCITEGIC>MOL_PROPERTY
VdW
SciTegic.value.DoubleValue
0.894

@<SCITEGIC>MOL_PROPERTY
VdW6
SciTegic.value.DoubleValue
-10.224

@<SCITEGIC>MOL_PROPERTY
VdW12
SciTegic.value.DoubleValue
11.118

@<SCITEGIC>MOL_PROPERTY
Bond
SciTegic.value.DoubleValue
0.231

@<SCITEGIC>MOL_PROPERTY
Angle
SciTegic.value.DoubleValue
3.232

@<SCITEGIC>MOL_PROPERTY
Pdih
SciTegic.value.DoubleValue
5.460

@<SCITEGIC>MOL_PROPERTY
Idih
SciTegic.value.DoubleValue
0.000

@<SCITEGIC>MOL_PROPERTY
Tether
SciTegic.value.DoubleValue
0.000

@<TRIPOS>MOLECULE
guest-8_confgen4.mol2 : confsearch ligand conformer 541
          25          24           1
SMALL
USER_CHARGES
 
@<TRIPOS>ATOM
       1    C1      20.354824   14.721094   21.642672 C.2        1 MOL1         0.6168
       2    O1      21.291580   14.946745   20.900938 O.co2      1 MOL1        -0.6703
       3    O2      19.854946   13.620484   21.764734 O.co2      1 MOL1        -0.6703
       4    C2      19.755235   15.856101   22.474326 C.3        1 MOL1        -0.1963
       5    H1      19.814553   15.556424   23.527219 H          1 MOL1         0.0750
       6    H2      18.691163   15.921772   22.218700 H          1 MOL1         0.0750
       7    C3      20.426920   17.242210   22.284696 C.3        1 MOL1        -0.1860
       8    H3      21.493980   17.167645   22.536347 H          1 MOL1         0.0752
       9    H4      20.369530   17.533361   21.226659 H          1 MOL1         0.0752
      10    C4      19.761531   18.327348   23.158984 C.3        1 MOL1        -0.1858
      11    H5      19.820053   18.034127   24.216213 H          1 MOL1         0.0752
      12    H6      18.694906   18.400086   22.905690 H          1 MOL1         0.0752
      13    C5      20.431250   19.705315   22.968794 C.3        1 MOL1        -0.1858
      14    H7      21.497890   19.632889   23.222050 H          1 MOL1         0.0752
      15    H8      20.372842   19.998824   21.911654 H          1 MOL1         0.0752
      16    C6      19.766431   20.790773   23.842700 C.3        1 MOL1        -0.1858
      17    H9      19.824773   20.497488   24.899900 H          1 MOL1         0.0752
      18    H10     18.699791   20.863443   23.589534 H          1 MOL1         0.0752
      19    C7      20.435799   22.168165   23.652708 C.3        1 MOL1        -0.1834
      20    H11     21.502673   22.099812   23.906866 H          1 MOL1         0.0752
      21    H12     20.377698   22.465771   22.596515 H          1 MOL1         0.0752
      22    C8      19.769142   23.249275   24.526992 C.3        1 MOL1        -0.2849
      23    H13     19.840609   22.992346   25.592016 H          1 MOL1         0.0764
      24    H14     20.257256   24.221419   24.379452 H          1 MOL1         0.0764
      25    H15     18.707176   23.361077   24.271793 H          1 MOL1         0.0764
@<TRIPOS>BOND
    1     1     2    1
    2     1     3    2
    3     1     4    1
    4     4     5    1
    5     4     6    1
    6     4     7    1
    7     7     8    1
    8     7     9    1
    9     7    10    1
   10    10    11    1
   11    10    12    1
   12    10    13    1
   13    13    14    1
   14    13    15    1
   15    13    16    1
   16    16    17    1
   17    16    18    1
   18    16    19    1
   19    19    20    1
   20    19    21    1
   21    19    22    1
   22    22    23    1
   23    22    24    1
   24    22    25    1
@<TRIPOS>SUBSTRUCTURE
       1 MOL1            1 RESIDUE      1      MOL     
@<SCITEGIC>MOL_PROPERTY
VConf Rank
SciTegic.value.IntegerValue
541

@<SCITEGIC>MOL_PROPERTY
Conf_Id
SciTegic.value.IntegerValue
0

@<SCITEGIC>MOL_PROPERTY
Delta U+W
SciTegic.value.DoubleValue
0.000

@<SCITEGIC>MOL_PROPERTY
U+W
SciTegic.value.DoubleValue
-51.629

@<SCITEGIC>MOL_PROPERTY
Grad RMS
SciTegic.value.DoubleValue
0.000000

@<SCITEGIC>MOL_PROPERTY
U
SciTegic.value.DoubleValue
6.586

@<SCITEGIC>MOL_PROPERTY
W
SciTegic.value.DoubleValue
-58.216

@<SCITEGIC>MOL_PROPERTY
W(PB)
SciTegic.value.DoubleValue
-60.757

@<SCITEGIC>MOL_PROPERTY
W(SA)
SciTegic.value.DoubleValue
2.541

@<SCITEGIC>MOL_PROPERTY
Valence
SciTegic.value.DoubleValue
8.027

@<SCITEGIC>MOL_PROPERTY
Coulomb
SciTegic.value.DoubleValue
-2.892

@<SCITEGIC>MOL_PROPERTY
VdW
SciTegic.value.DoubleValue
1.451

@<SCITEGIC>MOL_PROPERTY
VdW6
SciTegic.value.DoubleValue
-7.931

@<SCITEGIC>MOL_PROPERTY
VdW12
SciTegic.value.DoubleValue
9.383

@<SCITEGIC>MOL_PROPERTY
Bond
SciTegic.value.DoubleValue
0.149

@<SCITEGIC>MOL_PROPERTY
Angle
SciTegic.value.DoubleValue
2.726

@<SCITEGIC>MOL_PROPERTY
Pdih
SciTegic.value.DoubleValue
5.152

@<SCITEGIC>MOL_PROPERTY
Idih
SciTegic.value.DoubleValue
0.000

@<SCITEGIC>MOL_PROPERTY
Tether
SciTegic.value.DoubleValue
0.000

@<TRIPOS>MOLECULE
guest-8_confgen4.mol2 : confsearch ligand conformer 542
          25          24           1
SMALL
USER_CHARGES
 
@<TRIPOS>ATOM
       1    C1      17.808325   15.158604   23.897238 C.2        1 MOL1         0.6168
       2    O1      17.153274   15.144451   24.920628 O.co2      1 MOL1        -0.6703
       3    O2      17.492784   14.560954   22.887352 O.co2      1 MOL1        -0.6703
       4    C2      19.085204   15.991072   23.871560 C.3        1 MOL1        -0.1963
       5    H1      19.800145   15.497592   23.202275 H          1 MOL1         0.0750
       6    H2      19.520701   15.977865   24.877926 H          1 MOL1         0.0750
       7    C3      18.842667   17.450129   23.412919 C.3        1 MOL1        -0.1860
       8    H3      18.394439   17.445384   22.409593 H          1 MOL1         0.0752
       9    H4      18.114878   17.925585   24.085123 H          1 MOL1         0.0752
      10    C4      20.149618   18.272075   23.395419 C.3        1 MOL1        -0.1858
      11    H5      20.875358   17.793583   22.723461 H          1 MOL1         0.0752
      12    H6      20.595842   18.273710   24.399442 H          1 MOL1         0.0752
      13    C5      19.904687   19.726131   22.938036 C.3        1 MOL1        -0.1858
      14    H7      19.458538   19.724751   21.934018 H          1 MOL1         0.0752
      15    H8      19.178998   20.204803   23.609863 H          1 MOL1         0.0752
      16    C6      21.211187   20.548702   22.920347 C.3        1 MOL1        -0.1858
      17    H9      21.937068   20.070339   22.248513 H          1 MOL1         0.0752
      18    H10     21.657581   20.550283   23.924252 H          1 MOL1         0.0752
      19    C7      20.966541   22.002175   22.463261 C.3        1 MOL1        -0.1834
      20    H11     20.521709   22.004652   21.458470 H          1 MOL1         0.0752
      21    H12     20.242255   22.484600   23.134205 H          1 MOL1         0.0752
      22    C8      22.273495   22.820225   22.446914 C.3        1 MOL1        -0.2849
      23    H13     22.081133   23.850314   22.119804 H          1 MOL1         0.0764
      24    H14     22.724022   22.860879   23.447299 H          1 MOL1         0.0764
      25    H15     23.005572   22.377315   21.758953 H          1 MOL1         0.0764
@<TRIPOS>BOND
    1     1     2    1
    2     1     3    2
    3     1     4    1
    4     4     5    1
    5     4     6    1
    6     4     7    1
    7     7     8    1
    8     7     9    1
    9     7    10    1
   10    10    11    1
   11    10    12    1
   12    10    13    1
   13    13    14    1
   14    13    15    1
   15    13    16    1
   16    16    17    1
   17    16    18    1
   18    16    19    1
   19    19    20    1
   20    19    21    1
   21    19    22    1
   22    22    23    1
   23    22    24    1
   24    22    25    1
@<TRIPOS>SUBSTRUCTURE
       1 MOL1            1 RESIDUE      1      MOL     
@<SCITEGIC>MOL_PROPERTY
VConf Rank
SciTegic.value.IntegerValue
542

@<SCITEGIC>MOL_PROPERTY
Conf_Id
SciTegic.value.IntegerValue
27

@<SCITEGIC>MOL_PROPERTY
Delta U+W
SciTegic.value.DoubleValue
-1.297

@<SCITEGIC>MOL_PROPERTY
U+W
SciTegic.value.DoubleValue
-52.926

@<SCITEGIC>MOL_PROPERTY
Grad RMS
SciTegic.value.DoubleValue
0.000000

@<SCITEGIC>MOL_PROPERTY
U
SciTegic.value.DoubleValue
5.617

@<SCITEGIC>MOL_PROPERTY
W
SciTegic.value.DoubleValue
-58.543

@<SCITEGIC>MOL_PROPERTY
W(PB)
SciTegic.value.DoubleValue
-61.065

@<SCITEGIC>MOL_PROPERTY
W(SA)
SciTegic.value.DoubleValue
2.522

@<SCITEGIC>MOL_PROPERTY
Valence
SciTegic.value.DoubleValue
7.531

@<SCITEGIC>MOL_PROPERTY
Coulomb
SciTegic.value.DoubleValue
-2.818

@<SCITEGIC>MOL_PROPERTY
VdW
SciTegic.value.DoubleValue
0.904

@<SCITEGIC>MOL_PROPERTY
VdW6
SciTegic.value.DoubleValue
-7.640

@<SCITEGIC>MOL_PROPERTY
VdW12
SciTegic.value.DoubleValue
8.544

@<SCITEGIC>MOL_PROPERTY
Bond
SciTegic.value.DoubleValue
0.115

@<SCITEGIC>MOL_PROPERTY
Angle
SciTegic.value.DoubleValue
2.271

@<SCITEGIC>MOL_PROPERTY
Pdih
SciTegic.value.DoubleValue
5.144

@<SCITEGIC>MOL_PROPERTY
Idih
SciTegic.value.DoubleValue
0.001

@<SCITEGIC>MOL_PROPERTY
Tether
SciTegic.value.DoubleValue
0.000

@<TRIPOS>MOLECULE
guest-8_confgen4.mol2 : confsearch ligand conformer 543
          25          24           1
SMALL
USER_CHARGES
 
@<TRIPOS>ATOM
       1    C1      17.158749   20.713678   25.386471 C.2        1 MOL1         0.6168
       2    O1      17.060935   20.301195   26.525490 O.co2      1 MOL1        -0.6703
       3    O2      17.450042   21.860447   25.108923 O.co2      1 MOL1        -0.6703
       4    C2      16.883713   19.740467   24.243589 C.3        1 MOL1        -0.1963
       5    H1      16.673956   20.317791   23.334993 H          1 MOL1         0.0750
       6    H2      15.965973   19.194395   24.491669 H          1 MOL1         0.0750
       7    C3      18.032832   18.731909   23.984206 C.3        1 MOL1        -0.1860
       8    H3      18.249719   18.181284   24.910189 H          1 MOL1         0.0752
       9    H4      17.696572   17.990390   23.246896 H          1 MOL1         0.0752
      10    C4      19.318890   19.416035   23.468653 C.3        1 MOL1        -0.1858
      11    H5      19.671572   20.147314   24.209106 H          1 MOL1         0.0752
      12    H6      19.093952   19.976036   22.550598 H          1 MOL1         0.0752
      13    C5      20.438348   18.390811   23.186940 C.3        1 MOL1        -0.1858
      14    H7      20.662590   17.831349   24.105529 H          1 MOL1         0.0752
      15    H8      20.088971   17.660260   22.444465 H          1 MOL1         0.0752
      16    C6      21.723979   19.073772   22.672569 C.3        1 MOL1        -0.1858
      17    H9      22.073454   19.804441   23.414942 H          1 MOL1         0.0752
      18    H10     21.499881   19.633593   21.754167 H          1 MOL1         0.0752
      19    C7      22.843395   18.049474   22.391336 C.3        1 MOL1        -0.1834
      20    H11     23.071473   17.488828   23.308472 H          1 MOL1         0.0752
      21    H12     22.497948   17.318020   21.647614 H          1 MOL1         0.0752
      22    C8      24.125401   18.735509   21.878092 C.3        1 MOL1        -0.2849
      23    H13     24.510974   19.450453   22.616730 H          1 MOL1         0.0764
      24    H14     24.910186   17.993011   21.683437 H          1 MOL1         0.0764
      25    H15     23.933138   19.278413   20.943381 H          1 MOL1         0.0764
@<TRIPOS>BOND
    1     1     2    1
    2     1     3    2
    3     1     4    1
    4     4     5    1
    5     4     6    1
    6     4     7    1
    7     7     8    1
    8     7     9    1
    9     7    10    1
   10    10    11    1
   11    10    12    1
   12    10    13    1
   13    13    14    1
   14    13    15    1
   15    13    16    1
   16    16    17    1
   17    16    18    1
   18    16    19    1
   19    19    20    1
   20    19    21    1
   21    19    22    1
   22    22    23    1
   23    22    24    1
   24    22    25    1
@<TRIPOS>SUBSTRUCTURE
       1 MOL1            1 RESIDUE      1      MOL     
@<SCITEGIC>MOL_PROPERTY
VConf Rank
SciTegic.value.IntegerValue
543

@<SCITEGIC>MOL_PROPERTY
Conf_Id
SciTegic.value.IntegerValue
37

@<SCITEGIC>MOL_PROPERTY
Delta U+W
SciTegic.value.DoubleValue
-0.230

@<SCITEGIC>MOL_PROPERTY
U+W
SciTegic.value.DoubleValue
-51.860

@<SCITEGIC>MOL_PROPERTY
Grad RMS
SciTegic.value.DoubleValue
0.000000

@<SCITEGIC>MOL_PROPERTY
U
SciTegic.value.DoubleValue
7.816

@<SCITEGIC>MOL_PROPERTY
W
SciTegic.value.DoubleValue
-59.675

@<SCITEGIC>MOL_PROPERTY
W(PB)
SciTegic.value.DoubleValue
-62.180

@<SCITEGIC>MOL_PROPERTY
W(SA)
SciTegic.value.DoubleValue
2.505

@<SCITEGIC>MOL_PROPERTY
Valence
SciTegic.value.DoubleValue
7.785

@<SCITEGIC>MOL_PROPERTY
Coulomb
SciTegic.value.DoubleValue
-0.713

@<SCITEGIC>MOL_PROPERTY
VdW
SciTegic.value.DoubleValue
0.744

@<SCITEGIC>MOL_PROPERTY
VdW6
SciTegic.value.DoubleValue
-8.514

@<SCITEGIC>MOL_PROPERTY
VdW12
SciTegic.value.DoubleValue
9.259

@<SCITEGIC>MOL_PROPERTY
Bond
SciTegic.value.DoubleValue
0.136

@<SCITEGIC>MOL_PROPERTY
Angle
SciTegic.value.DoubleValue
2.433

@<SCITEGIC>MOL_PROPERTY
Pdih
SciTegic.value.DoubleValue
5.216

@<SCITEGIC>MOL_PROPERTY
Idih
SciTegic.value.DoubleValue
0.000

@<SCITEGIC>MOL_PROPERTY
Tether
SciTegic.value.DoubleValue
0.000

@<TRIPOS>MOLECULE
guest-8_confgen4.mol2 : confsearch ligand conformer 544
          25          24           1
SMALL
USER_CHARGES
 
@<TRIPOS>ATOM
       1    C1      23.784257   18.051253   23.750264 C.2        1 MOL1         0.6168
       2    O1      23.880208   16.844834   23.861713 O.co2      1 MOL1        -0.6703
       3    O2      24.056542   18.832864   24.640156 O.co2      1 MOL1        -0.6703
       4    C2      23.311113   18.614075   22.412978 C.3        1 MOL1        -0.1963
       5    H1      23.862053   18.089830   21.623284 H          1 MOL1         0.0750
       6    H2      23.601339   19.670145   22.355259 H          1 MOL1         0.0750
       7    C3      21.787030   18.463178   22.169369 C.3        1 MOL1        -0.1860
       8    H3      21.559330   18.765068   21.138076 H          1 MOL1         0.0752
       9    H4      21.507426   17.404096   22.257906 H          1 MOL1         0.0752
      10    C4      20.942192   19.311007   23.146712 C.3        1 MOL1        -0.1858
      11    H5      21.234705   20.366762   23.063996 H          1 MOL1         0.0752
      12    H6      21.151607   19.002847   24.180446 H          1 MOL1         0.0752
      13    C5      19.430555   19.170477   22.865939 C.3        1 MOL1        -0.1858
      14    H7      19.218324   19.480872   21.833636 H          1 MOL1         0.0752
      15    H8      19.138989   18.114458   22.949005 H          1 MOL1         0.0752
      16    C6      18.585720   20.016812   23.842580 C.3        1 MOL1        -0.1858
      17    H9      18.877333   21.072844   23.759882 H          1 MOL1         0.0752
      18    H10     18.797943   19.706614   24.874987 H          1 MOL1         0.0752
      19    C7      17.074670   19.876190   23.562720 C.3        1 MOL1        -0.1834
      20    H11     16.858401   20.187386   22.531283 H          1 MOL1         0.0752
      21    H12     16.779023   18.821176   23.646506 H          1 MOL1         0.0752
      22    C8      16.234656   20.722799   24.540081 C.3        1 MOL1        -0.2849
      23    H13     16.487763   21.787728   24.454881 H          1 MOL1         0.0764
      24    H14     15.163619   20.610941   24.326893 H          1 MOL1         0.0764
      25    H15     16.407858   20.411263   25.578515 H          1 MOL1         0.0764
@<TRIPOS>BOND
    1     1     2    1
    2     1     3    2
    3     1     4    1
    4     4     5    1
    5     4     6    1
    6     4     7    1
    7     7     8    1
    8     7     9    1
    9     7    10    1
   10    10    11    1
   11    10    12    1
   12    10    13    1
   13    13    14    1
   14    13    15    1
   15    13    16    1
   16    16    17    1
   17    16    18    1
   18    16    19    1
   19    19    20    1
   20    19    21    1
   21    19    22    1
   22    22    23    1
   23    22    24    1
   24    22    25    1
@<TRIPOS>SUBSTRUCTURE
       1 MOL1            1 RESIDUE      1      MOL     
@<SCITEGIC>MOL_PROPERTY
VConf Rank
SciTegic.value.IntegerValue
544

@<SCITEGIC>MOL_PROPERTY
Conf_Id
SciTegic.value.IntegerValue
54

@<SCITEGIC>MOL_PROPERTY
Delta U+W
SciTegic.value.DoubleValue
-0.224

@<SCITEGIC>MOL_PROPERTY
U+W
SciTegic.value.DoubleValue
-51.854

@<SCITEGIC>MOL_PROPERTY
Grad RMS
SciTegic.value.DoubleValue
0.000000

@<SCITEGIC>MOL_PROPERTY
U
SciTegic.value.DoubleValue
7.816

@<SCITEGIC>MOL_PROPERTY
W
SciTegic.value.DoubleValue
-59.670

@<SCITEGIC>MOL_PROPERTY
W(PB)
SciTegic.value.DoubleValue
-62.157

@<SCITEGIC>MOL_PROPERTY
W(SA)
SciTegic.value.DoubleValue
2.487

@<SCITEGIC>MOL_PROPERTY
Valence
SciTegic.value.DoubleValue
7.785

@<SCITEGIC>MOL_PROPERTY
Coulomb
SciTegic.value.DoubleValue
-0.713

@<SCITEGIC>MOL_PROPERTY
VdW
SciTegic.value.DoubleValue
0.744

@<SCITEGIC>MOL_PROPERTY
VdW6
SciTegic.value.DoubleValue
-8.515

@<SCITEGIC>MOL_PROPERTY
VdW12
SciTegic.value.DoubleValue
9.259

@<SCITEGIC>MOL_PROPERTY
Bond
SciTegic.value.DoubleValue
0.136

@<SCITEGIC>MOL_PROPERTY
Angle
SciTegic.value.DoubleValue
2.433

@<SCITEGIC>MOL_PROPERTY
Pdih
SciTegic.value.DoubleValue
5.215

@<SCITEGIC>MOL_PROPERTY
Idih
SciTegic.value.DoubleValue
0.000

@<SCITEGIC>MOL_PROPERTY
Tether
SciTegic.value.DoubleValue
0.000

@<TRIPOS>MOLECULE
guest-8_confgen4.mol2 : confsearch ligand conformer 545
          25          24           1
SMALL
USER_CHARGES
 
@<TRIPOS>ATOM
       1    C1      17.889592   16.398781   25.313025 C.2        1 MOL1         0.6168
       2    O1      17.210567   15.867072   24.456718 O.co2      1 MOL1        -0.6703
       3    O2      18.543867   15.782757   26.131285 O.co2      1 MOL1        -0.6703
       4    C2      17.908531   17.923451   25.377880 C.3        1 MOL1        -0.1963
       5    H1      17.773752   18.207513   26.428172 H          1 MOL1         0.0750
       6    H2      17.039406   18.308441   24.830857 H          1 MOL1         0.0750
       7    C3      19.211500   18.563545   24.831789 C.3        1 MOL1        -0.1860
       8    H3      19.194418   19.635752   25.063918 H          1 MOL1         0.0752
       9    H4      20.075298   18.137662   25.360823 H          1 MOL1         0.0752
      10    C4      19.378312   18.361170   23.306283 C.3        1 MOL1        -0.1858
      11    H5      18.537031   18.827355   22.775533 H          1 MOL1         0.0752
      12    H6      19.329445   17.287397   23.079120 H          1 MOL1         0.0752
      13    C5      20.712688   18.913414   22.750026 C.3        1 MOL1        -0.1858
      14    H7      21.553026   18.461071   23.293895 H          1 MOL1         0.0752
      15    H8      20.805221   18.585950   21.706774 H          1 MOL1         0.0752
      16    C6      20.818013   20.457316   22.814087 C.3        1 MOL1        -0.1858
      17    H9      20.733163   20.786819   23.857208 H          1 MOL1         0.0752
      18    H10     19.974661   20.909075   22.274376 H          1 MOL1         0.0752
      19    C7      22.148318   21.006256   22.247129 C.3        1 MOL1        -0.1834
      20    H11     22.200616   22.083846   22.455235 H          1 MOL1         0.0752
      21    H12     22.994851   20.547170   22.776206 H          1 MOL1         0.0752
      22    C8      22.304791   20.788237   20.726299 C.3        1 MOL1        -0.2849
      23    H13     22.381308   19.722252   20.478861 H          1 MOL1         0.0764
      24    H14     21.451254   21.209091   20.179065 H          1 MOL1         0.0764
      25    H15     23.215737   21.279345   20.360382 H          1 MOL1         0.0764
@<TRIPOS>BOND
    1     1     2    1
    2     1     3    2
    3     1     4    1
    4     4     5    1
    5     4     6    1
    6     4     7    1
    7     7     8    1
    8     7     9    1
    9     7    10    1
   10    10    11    1
   11    10    12    1
   12    10    13    1
   13    13    14    1
   14    13    15    1
   15    13    16    1
   16    16    17    1
   17    16    18    1
   18    16    19    1
   19    19    20    1
   20    19    21    1
   21    19    22    1
   22    22    23    1
   23    22    24    1
   24    22    25    1
@<TRIPOS>SUBSTRUCTURE
       1 MOL1            1 RESIDUE      1      MOL     
@<SCITEGIC>MOL_PROPERTY
VConf Rank
SciTegic.value.IntegerValue
545

@<SCITEGIC>MOL_PROPERTY
Conf_Id
SciTegic.value.IntegerValue
101

@<SCITEGIC>MOL_PROPERTY
Delta U+W
SciTegic.value.DoubleValue
1.534

@<SCITEGIC>MOL_PROPERTY
U+W
SciTegic.value.DoubleValue
-50.095

@<SCITEGIC>MOL_PROPERTY
Grad RMS
SciTegic.value.DoubleValue
0.000000

@<SCITEGIC>MOL_PROPERTY
U
SciTegic.value.DoubleValue
9.416

@<SCITEGIC>MOL_PROPERTY
W
SciTegic.value.DoubleValue
-59.512

@<SCITEGIC>MOL_PROPERTY
W(PB)
SciTegic.value.DoubleValue
-61.988

@<SCITEGIC>MOL_PROPERTY
W(SA)
SciTegic.value.DoubleValue
2.476

@<SCITEGIC>MOL_PROPERTY
Valence
SciTegic.value.DoubleValue
8.939

@<SCITEGIC>MOL_PROPERTY
Coulomb
SciTegic.value.DoubleValue
-0.615

@<SCITEGIC>MOL_PROPERTY
VdW
SciTegic.value.DoubleValue
1.092

@<SCITEGIC>MOL_PROPERTY
VdW6
SciTegic.value.DoubleValue
-9.710

@<SCITEGIC>MOL_PROPERTY
VdW12
SciTegic.value.DoubleValue
10.802

@<SCITEGIC>MOL_PROPERTY
Bond
SciTegic.value.DoubleValue
0.216

@<SCITEGIC>MOL_PROPERTY
Angle
SciTegic.value.DoubleValue
2.979

@<SCITEGIC>MOL_PROPERTY
Pdih
SciTegic.value.DoubleValue
5.743

@<SCITEGIC>MOL_PROPERTY
Idih
SciTegic.value.DoubleValue
0.000

@<SCITEGIC>MOL_PROPERTY
Tether
SciTegic.value.DoubleValue
0.000

@<TRIPOS>MOLECULE
guest-8_confgen4.mol2 : confsearch ligand conformer 546
          25          24           1
SMALL
USER_CHARGES
 
@<TRIPOS>ATOM
       1    C1      22.426666   22.302652   24.836168 C.2        1 MOL1         0.6168
       2    O1      23.245434   22.604619   23.990491 O.co2      1 MOL1        -0.6703
       3    O2      22.100254   23.035514   25.748936 O.co2      1 MOL1        -0.6703
       4    C2      21.755150   20.937841   24.733575 C.3        1 MOL1        -0.1963
       5    H1      21.525096   20.595039   25.749400 H          1 MOL1         0.0750
       6    H2      22.485773   20.238963   24.311532 H          1 MOL1         0.0750
       7    C3      20.464610   20.968217   23.873843 C.3        1 MOL1        -0.1860
       8    H3      19.798415   21.747915   24.268410 H          1 MOL1         0.0752
       9    H4      20.714328   21.265417   22.845926 H          1 MOL1         0.0752
      10    C4      19.697020   19.624618   23.857881 C.3        1 MOL1        -0.1858
      11    H5      18.738705   19.788411   23.348671 H          1 MOL1         0.0752
      12    H6      19.457025   19.324677   24.886961 H          1 MOL1         0.0752
      13    C5      20.466317   18.484575   23.146273 C.3        1 MOL1        -0.1858
      14    H7      20.705495   18.783974   22.117599 H          1 MOL1         0.0752
      15    H8      21.428660   18.324536   23.648271 H          1 MOL1         0.0752
      16    C6      19.705501   17.134209   23.141111 C.3        1 MOL1        -0.1858
      17    H9      19.552273   16.808724   24.179022 H          1 MOL1         0.0752
      18    H10     20.346790   16.372606   22.677023 H          1 MOL1         0.0752
      19    C7      18.337694   17.142148   22.414129 C.3        1 MOL1        -0.1834
      20    H11     17.900165   16.136746   22.483255 H          1 MOL1         0.0752
      21    H12     17.637222   17.812108   22.929720 H          1 MOL1         0.0752
      22    C8      18.437503   17.538281   20.925150 C.3        1 MOL1        -0.2849
      23    H13     19.152001   16.895671   20.394561 H          1 MOL1         0.0764
      24    H14     17.461071   17.436803   20.434185 H          1 MOL1         0.0764
      25    H15     18.760136   18.580861   20.811069 H          1 MOL1         0.0764
@<TRIPOS>BOND
    1     1     2    1
    2     1     3    2
    3     1     4    1
    4     4     5    1
    5     4     6    1
    6     4     7    1
    7     7     8    1
    8     7     9    1
    9     7    10    1
   10    10    11    1
   11    10    12    1
   12    10    13    1
   13    13    14    1
   14    13    15    1
   15    13    16    1
   16    16    17    1
   17    16    18    1
   18    16    19    1
   19    19    20    1
   20    19    21    1
   21    19    22    1
   22    22    23    1
   23    22    24    1
   24    22    25    1
@<TRIPOS>SUBSTRUCTURE
       1 MOL1            1 RESIDUE      1      MOL     
@<SCITEGIC>MOL_PROPERTY
VConf Rank
SciTegic.value.IntegerValue
546

@<SCITEGIC>MOL_PROPERTY
Conf_Id
SciTegic.value.IntegerValue
75

@<SCITEGIC>MOL_PROPERTY
Delta U+W
SciTegic.value.DoubleValue
1.014

@<SCITEGIC>MOL_PROPERTY
U+W
SciTegic.value.DoubleValue
-50.615

@<SCITEGIC>MOL_PROPERTY
Grad RMS
SciTegic.value.DoubleValue
0.000000

@<SCITEGIC>MOL_PROPERTY
U
SciTegic.value.DoubleValue
8.474

@<SCITEGIC>MOL_PROPERTY
W
SciTegic.value.DoubleValue
-59.089

@<SCITEGIC>MOL_PROPERTY
W(PB)
SciTegic.value.DoubleValue
-61.530

@<SCITEGIC>MOL_PROPERTY
W(SA)
SciTegic.value.DoubleValue
2.441

@<SCITEGIC>MOL_PROPERTY
Valence
SciTegic.value.DoubleValue
9.080

@<SCITEGIC>MOL_PROPERTY
Coulomb
SciTegic.value.DoubleValue
-1.772

@<SCITEGIC>MOL_PROPERTY
VdW
SciTegic.value.DoubleValue
1.165

@<SCITEGIC>MOL_PROPERTY
VdW6
SciTegic.value.DoubleValue
-9.830

@<SCITEGIC>MOL_PROPERTY
VdW12
SciTegic.value.DoubleValue
10.996

@<SCITEGIC>MOL_PROPERTY
Bond
SciTegic.value.DoubleValue
0.240

@<SCITEGIC>MOL_PROPERTY
Angle
SciTegic.value.DoubleValue
3.225

@<SCITEGIC>MOL_PROPERTY
Pdih
SciTegic.value.DoubleValue
5.615

@<SCITEGIC>MOL_PROPERTY
Idih
SciTegic.value.DoubleValue
0.001

@<SCITEGIC>MOL_PROPERTY
Tether
SciTegic.value.DoubleValue
0.000

@<TRIPOS>MOLECULE
guest-8_confgen4.mol2 : confsearch ligand conformer 547
          25          24           1
SMALL
USER_CHARGES
 
@<TRIPOS>ATOM
       1    C1      23.427194   21.684102   22.564257 C.2        1 MOL1         0.6168
       2    O1      23.187898   22.364343   21.586167 O.co2      1 MOL1        -0.6703
       3    O2      24.199072   22.015392   23.442392 O.co2      1 MOL1        -0.6703
       4    C2      22.702659   20.350542   22.708294 C.3        1 MOL1        -0.1963
       5    H1      23.369625   19.655238   23.232000 H          1 MOL1         0.0750
       6    H2      22.534381   19.944083   21.703764 H          1 MOL1         0.0750
       7    C3      21.358191   20.475247   23.466540 C.3        1 MOL1        -0.1860
       8    H3      21.542080   20.895492   24.465076 H          1 MOL1         0.0752
       9    H4      20.707374   21.184574   22.936607 H          1 MOL1         0.0752
      10    C4      20.643603   19.112789   23.597774 C.3        1 MOL1        -0.1858
      11    H5      21.297874   18.407031   24.127537 H          1 MOL1         0.0752
      12    H6      20.473936   18.694742   22.598442 H          1 MOL1         0.0752
      13    C5      19.304340   19.241668   24.360990 C.3        1 MOL1        -0.1858
      14    H7      19.519254   19.632520   25.364964 H          1 MOL1         0.0752
      15    H8      18.657178   19.984724   23.875329 H          1 MOL1         0.0752
      16    C6      18.549684   17.895942   24.509114 C.3        1 MOL1        -0.1858
      17    H9      18.057435   17.887032   25.491193 H          1 MOL1         0.0752
      18    H10     19.261567   17.059395   24.524824 H          1 MOL1         0.0752
      19    C7      17.458136   17.645485   23.439208 C.3        1 MOL1        -0.1834
      20    H11     16.936346   16.710597   23.685971 H          1 MOL1         0.0752
      21    H12     16.702625   18.441589   23.490789 H          1 MOL1         0.0752
      22    C8      17.997301   17.544475   21.997171 C.3        1 MOL1        -0.2849
      23    H13     18.802361   16.801431   21.928435 H          1 MOL1         0.0764
      24    H14     17.197616   17.242428   21.308675 H          1 MOL1         0.0764
      25    H15     18.383448   18.511187   21.650785 H          1 MOL1         0.0764
@<TRIPOS>BOND
    1     1     2    1
    2     1     3    2
    3     1     4    1
    4     4     5    1
    5     4     6    1
    6     4     7    1
    7     7     8    1
    8     7     9    1
    9     7    10    1
   10    10    11    1
   11    10    12    1
   12    10    13    1
   13    13    14    1
   14    13    15    1
   15    13    16    1
   16    16    17    1
   17    16    18    1
   18    16    19    1
   19    19    20    1
   20    19    21    1
   21    19    22    1
   22    22    23    1
   23    22    24    1
   24    22    25    1
@<TRIPOS>SUBSTRUCTURE
       1 MOL1            1 RESIDUE      1      MOL     
@<SCITEGIC>MOL_PROPERTY
VConf Rank
SciTegic.value.IntegerValue
547

@<SCITEGIC>MOL_PROPERTY
Conf_Id
SciTegic.value.IntegerValue
125

@<SCITEGIC>MOL_PROPERTY
Delta U+W
SciTegic.value.DoubleValue
2.314

@<SCITEGIC>MOL_PROPERTY
U+W
SciTegic.value.DoubleValue
-49.315

@<SCITEGIC>MOL_PROPERTY
Grad RMS
SciTegic.value.DoubleValue
0.000000

@<SCITEGIC>MOL_PROPERTY
U
SciTegic.value.DoubleValue
9.740

@<SCITEGIC>MOL_PROPERTY
W
SciTegic.value.DoubleValue
-59.054

@<SCITEGIC>MOL_PROPERTY
W(PB)
SciTegic.value.DoubleValue
-61.488

@<SCITEGIC>MOL_PROPERTY
W(SA)
SciTegic.value.DoubleValue
2.433

@<SCITEGIC>MOL_PROPERTY
Valence
SciTegic.value.DoubleValue
10.506

@<SCITEGIC>MOL_PROPERTY
Coulomb
SciTegic.value.DoubleValue
-1.761

@<SCITEGIC>MOL_PROPERTY
VdW
SciTegic.value.DoubleValue
0.994

@<SCITEGIC>MOL_PROPERTY
VdW6
SciTegic.value.DoubleValue
-9.209

@<SCITEGIC>MOL_PROPERTY
VdW12
SciTegic.value.DoubleValue
10.203

@<SCITEGIC>MOL_PROPERTY
Bond
SciTegic.value.DoubleValue
0.193

@<SCITEGIC>MOL_PROPERTY
Angle
SciTegic.value.DoubleValue
2.979

@<SCITEGIC>MOL_PROPERTY
Pdih
SciTegic.value.DoubleValue
7.334

@<SCITEGIC>MOL_PROPERTY
Idih
SciTegic.value.DoubleValue
0.001

@<SCITEGIC>MOL_PROPERTY
Tether
SciTegic.value.DoubleValue
0.000

@<TRIPOS>MOLECULE
guest-8_confgen4.mol2 : confsearch ligand conformer 548
          25          24           1
SMALL
USER_CHARGES
 
@<TRIPOS>ATOM
       1    C1      17.289987   18.796766   20.354034 C.2        1 MOL1         0.6168
       2    O1      17.748588   19.392227   19.399150 O.co2      1 MOL1        -0.6703
       3    O2      16.158881   18.354106   20.391372 O.co2      1 MOL1        -0.6703
       4    C2      18.174400   18.616025   21.582515 C.3        1 MOL1        -0.1963
       5    H1      19.208628   18.512233   21.235644 H          1 MOL1         0.0750
       6    H2      17.896370   17.671831   22.065787 H          1 MOL1         0.0750
       7    C3      18.049780   19.789487   22.588844 C.3        1 MOL1        -0.1860
       8    H3      18.375538   20.721873   22.107319 H          1 MOL1         0.0752
       9    H4      16.989205   19.925514   22.842068 H          1 MOL1         0.0752
      10    C4      18.847189   19.570018   23.896562 C.3        1 MOL1        -0.1858
      11    H5      18.512482   18.642226   24.380445 H          1 MOL1         0.0752
      12    H6      18.607763   20.386732   24.591230 H          1 MOL1         0.0752
      13    C5      20.378001   19.522879   23.683050 C.3        1 MOL1        -0.1858
      14    H7      20.633741   18.668553   23.044809 H          1 MOL1         0.0752
      15    H8      20.702927   20.429455   23.154745 H          1 MOL1         0.0752
      16    C6      21.136867   19.407971   25.025482 C.3        1 MOL1        -0.1858
      17    H9      20.848831   18.478150   25.534753 H          1 MOL1         0.0752
      18    H10     20.827384   20.231642   25.683229 H          1 MOL1         0.0752
      19    C7      22.674706   19.457067   24.869084 C.3        1 MOL1        -0.1834
      20    H11     22.966815   20.388551   24.364786 H          1 MOL1         0.0752
      21    H12     23.129538   19.489865   25.868724 H          1 MOL1         0.0752
      22    C8      23.250680   18.247713   24.100775 C.3        1 MOL1        -0.2849
      23    H13     22.914866   18.239441   23.056339 H          1 MOL1         0.0764
      24    H14     24.347776   18.283134   24.096248 H          1 MOL1         0.0764
      25    H15     22.945008   17.302954   24.568859 H          1 MOL1         0.0764
@<TRIPOS>BOND
    1     1     2    1
    2     1     3    2
    3     1     4    1
    4     4     5    1
    5     4     6    1
    6     4     7    1
    7     7     8    1
    8     7     9    1
    9     7    10    1
   10    10    11    1
   11    10    12    1
   12    10    13    1
   13    13    14    1
   14    13    15    1
   15    13    16    1
   16    16    17    1
   17    16    18    1
   18    16    19    1
   19    19    20    1
   20    19    21    1
   21    19    22    1
   22    22    23    1
   23    22    24    1
   24    22    25    1
@<TRIPOS>SUBSTRUCTURE
       1 MOL1            1 RESIDUE      1      MOL     
@<SCITEGIC>MOL_PROPERTY
VConf Rank
SciTegic.value.IntegerValue
548

@<SCITEGIC>MOL_PROPERTY
Conf_Id
SciTegic.value.IntegerValue
4

@<SCITEGIC>MOL_PROPERTY
Delta U+W
SciTegic.value.DoubleValue
0.189

@<SCITEGIC>MOL_PROPERTY
U+W
SciTegic.value.DoubleValue
-51.441

@<SCITEGIC>MOL_PROPERTY
Grad RMS
SciTegic.value.DoubleValue
0.000000

@<SCITEGIC>MOL_PROPERTY
U
SciTegic.value.DoubleValue
7.701

@<SCITEGIC>MOL_PROPERTY
W
SciTegic.value.DoubleValue
-59.141

@<SCITEGIC>MOL_PROPERTY
W(PB)
SciTegic.value.DoubleValue
-61.609

@<SCITEGIC>MOL_PROPERTY
W(SA)
SciTegic.value.DoubleValue
2.467

@<SCITEGIC>MOL_PROPERTY
Valence
SciTegic.value.DoubleValue
8.550

@<SCITEGIC>MOL_PROPERTY
Coulomb
SciTegic.value.DoubleValue
-1.988

@<SCITEGIC>MOL_PROPERTY
VdW
SciTegic.value.DoubleValue
1.139

@<SCITEGIC>MOL_PROPERTY
VdW6
SciTegic.value.DoubleValue
-8.988

@<SCITEGIC>MOL_PROPERTY
VdW12
SciTegic.value.DoubleValue
10.127

@<SCITEGIC>MOL_PROPERTY
Bond
SciTegic.value.DoubleValue
0.191

@<SCITEGIC>MOL_PROPERTY
Angle
SciTegic.value.DoubleValue
2.738

@<SCITEGIC>MOL_PROPERTY
Pdih
SciTegic.value.DoubleValue
5.621

@<SCITEGIC>MOL_PROPERTY
Idih
SciTegic.value.DoubleValue
0.001

@<SCITEGIC>MOL_PROPERTY
Tether
SciTegic.value.DoubleValue
0.000

@<TRIPOS>MOLECULE
guest-8_confgen4.mol2 : confsearch ligand conformer 549
          25          24           1
SMALL
USER_CHARGES
 
@<TRIPOS>ATOM
       1    C1      23.236052   21.622496   22.481695 C.2        1 MOL1         0.6168
       2    O1      22.765362   22.723008   22.271884 O.co2      1 MOL1        -0.6703
       3    O2      24.428820   21.405071   22.563980 O.co2      1 MOL1        -0.6703
       4    C2      22.276479   20.453927   22.675829 C.3        1 MOL1        -0.1963
       5    H1      22.766203   19.546252   22.303469 H          1 MOL1         0.0750
       6    H2      21.400201   20.634232   22.043099 H          1 MOL1         0.0750
       7    C3      21.853350   20.265161   24.155886 C.3        1 MOL1        -0.1860
       8    H3      22.758471   20.182104   24.773385 H          1 MOL1         0.0752
       9    H4      21.322581   21.162453   24.502991 H          1 MOL1         0.0752
      10    C4      20.975116   19.013543   24.393193 C.3        1 MOL1        -0.1858
      11    H5      20.823726   18.894790   25.474807 H          1 MOL1         0.0752
      12    H6      21.512464   18.117230   24.054295 H          1 MOL1         0.0752
      13    C5      19.596459   19.088403   23.696849 C.3        1 MOL1        -0.1858
      14    H7      19.082168   20.010687   23.999271 H          1 MOL1         0.0752
      15    H8      19.735987   19.138426   22.610269 H          1 MOL1         0.0752
      16    C6      18.714675   17.867310   24.046979 C.3        1 MOL1        -0.1858
      17    H9      18.631999   17.787019   25.139482 H          1 MOL1         0.0752
      18    H10     19.205206   16.946249   23.703595 H          1 MOL1         0.0752
      19    C7      17.289304   17.946902   23.452169 C.3        1 MOL1        -0.1834
      20    H11     16.696990   17.108326   23.843555 H          1 MOL1         0.0752
      21    H12     16.793702   18.864604   23.797872 H          1 MOL1         0.0752
      22    C8      17.266229   17.893751   21.909046 C.3        1 MOL1        -0.2849
      23    H13     17.784458   16.999609   21.538830 H          1 MOL1         0.0764
      24    H14     16.232372   17.861521   21.541629 H          1 MOL1         0.0764
      25    H15     17.746689   18.777109   21.470271 H          1 MOL1         0.0764
@<TRIPOS>BOND
    1     1     2    1
    2     1     3    2
    3     1     4    1
    4     4     5    1
    5     4     6    1
    6     4     7    1
    7     7     8    1
    8     7     9    1
    9     7    10    1
   10    10    11    1
   11    10    12    1
   12    10    13    1
   13    13    14    1
   14    13    15    1
   15    13    16    1
   16    16    17    1
   17    16    18    1
   18    16    19    1
   19    19    20    1
   20    19    21    1
   21    19    22    1
   22    22    23    1
   23    22    24    1
   24    22    25    1
@<TRIPOS>SUBSTRUCTURE
       1 MOL1            1 RESIDUE      1      MOL     
@<SCITEGIC>MOL_PROPERTY
VConf Rank
SciTegic.value.IntegerValue
549

@<SCITEGIC>MOL_PROPERTY
Conf_Id
SciTegic.value.IntegerValue
17

@<SCITEGIC>MOL_PROPERTY
Delta U+W
SciTegic.value.DoubleValue
0.219

@<SCITEGIC>MOL_PROPERTY
U+W
SciTegic.value.DoubleValue
-51.411

@<SCITEGIC>MOL_PROPERTY
Grad RMS
SciTegic.value.DoubleValue
0.000000

@<SCITEGIC>MOL_PROPERTY
U
SciTegic.value.DoubleValue
7.701

@<SCITEGIC>MOL_PROPERTY
W
SciTegic.value.DoubleValue
-59.111

@<SCITEGIC>MOL_PROPERTY
W(PB)
SciTegic.value.DoubleValue
-61.599

@<SCITEGIC>MOL_PROPERTY
W(SA)
SciTegic.value.DoubleValue
2.488

@<SCITEGIC>MOL_PROPERTY
Valence
SciTegic.value.DoubleValue
8.550

@<SCITEGIC>MOL_PROPERTY
Coulomb
SciTegic.value.DoubleValue
-1.988

@<SCITEGIC>MOL_PROPERTY
VdW
SciTegic.value.DoubleValue
1.139

@<SCITEGIC>MOL_PROPERTY
VdW6
SciTegic.value.DoubleValue
-8.988

@<SCITEGIC>MOL_PROPERTY
VdW12
SciTegic.value.DoubleValue
10.127

@<SCITEGIC>MOL_PROPERTY
Bond
SciTegic.value.DoubleValue
0.191

@<SCITEGIC>MOL_PROPERTY
Angle
SciTegic.value.DoubleValue
2.738

@<SCITEGIC>MOL_PROPERTY
Pdih
SciTegic.value.DoubleValue
5.621

@<SCITEGIC>MOL_PROPERTY
Idih
SciTegic.value.DoubleValue
0.001

@<SCITEGIC>MOL_PROPERTY
Tether
SciTegic.value.DoubleValue
0.000

@<TRIPOS>MOLECULE
guest-8_confgen4.mol2 : confsearch ligand conformer 550
          25          24           1
SMALL
USER_CHARGES
 
@<TRIPOS>ATOM
       1    C1      23.090021   18.548806   21.376807 C.2        1 MOL1         0.6168
       2    O1      23.508894   17.442309   21.654787 O.co2      1 MOL1        -0.6703
       3    O2      23.704959   19.574716   21.592293 O.co2      1 MOL1        -0.6703
       4    C2      21.725346   18.657027   20.702357 C.3        1 MOL1        -0.1963
       5    H1      21.474794   17.684639   20.261381 H          1 MOL1         0.0750
       6    H2      21.824766   19.365845   19.871889 H          1 MOL1         0.0750
       7    C3      20.590596   19.125026   21.650100 C.3        1 MOL1        -0.1860
       8    H3      20.872703   20.089271   22.093174 H          1 MOL1         0.0752
       9    H4      19.681632   19.300359   21.059077 H          1 MOL1         0.0752
      10    C4      20.285632   18.093616   22.762728 C.3        1 MOL1        -0.1858
      11    H5      21.168690   17.963878   23.403586 H          1 MOL1         0.0752
      12    H6      20.093284   17.115929   22.300151 H          1 MOL1         0.0752
      13    C5      19.066177   18.472249   23.636391 C.3        1 MOL1        -0.1858
      14    H7      18.179933   18.593876   22.998717 H          1 MOL1         0.0752
      15    H8      18.849561   17.634122   24.312765 H          1 MOL1         0.0752
      16    C6      19.284004   19.752071   24.476413 C.3        1 MOL1        -0.1858
      17    H9      19.427208   20.615436   23.813825 H          1 MOL1         0.0752
      18    H10     20.201518   19.648609   25.071693 H          1 MOL1         0.0752
      19    C7      18.090004   20.028783   25.414252 C.3        1 MOL1        -0.1834
      20    H11     17.170154   20.130994   24.821894 H          1 MOL1         0.0752
      21    H12     17.942189   19.173988   26.088715 H          1 MOL1         0.0752
      22    C8      18.307068   21.307305   26.248509 C.3        1 MOL1        -0.2849
      23    H13     18.425785   22.184605   25.599176 H          1 MOL1         0.0764
      24    H14     17.449434   21.488383   26.909365 H          1 MOL1         0.0764
      25    H15     19.204852   21.220088   26.874416 H          1 MOL1         0.0764
@<TRIPOS>BOND
    1     1     2    1
    2     1     3    2
    3     1     4    1
    4     4     5    1
    5     4     6    1
    6     4     7    1
    7     7     8    1
    8     7     9    1
    9     7    10    1
   10    10    11    1
   11    10    12    1
   12    10    13    1
   13    13    14    1
   14    13    15    1
   15    13    16    1
   16    16    17    1
   17    16    18    1
   18    16    19    1
   19    19    20    1
   20    19    21    1
   21    19    22    1
   22    22    23    1
   23    22    24    1
   24    22    25    1
@<TRIPOS>SUBSTRUCTURE
       1 MOL1            1 RESIDUE      1      MOL     
@<SCITEGIC>MOL_PROPERTY
VConf Rank
SciTegic.value.IntegerValue
550

@<SCITEGIC>MOL_PROPERTY
Conf_Id
SciTegic.value.IntegerValue
142

@<SCITEGIC>MOL_PROPERTY
Delta U+W
SciTegic.value.DoubleValue
0.593

@<SCITEGIC>MOL_PROPERTY
U+W
SciTegic.value.DoubleValue
-51.037

@<SCITEGIC>MOL_PROPERTY
Grad RMS
SciTegic.value.DoubleValue
0.000000

@<SCITEGIC>MOL_PROPERTY
U
SciTegic.value.DoubleValue
8.903

@<SCITEGIC>MOL_PROPERTY
W
SciTegic.value.DoubleValue
-59.940

@<SCITEGIC>MOL_PROPERTY
W(PB)
SciTegic.value.DoubleValue
-62.418

@<SCITEGIC>MOL_PROPERTY
W(SA)
SciTegic.value.DoubleValue
2.478

@<SCITEGIC>MOL_PROPERTY
Valence
SciTegic.value.DoubleValue
8.305

@<SCITEGIC>MOL_PROPERTY
Coulomb
SciTegic.value.DoubleValue
-0.223

@<SCITEGIC>MOL_PROPERTY
VdW
SciTegic.value.DoubleValue
0.821

@<SCITEGIC>MOL_PROPERTY
VdW6
SciTegic.value.DoubleValue
-9.236

@<SCITEGIC>MOL_PROPERTY
VdW12
SciTegic.value.DoubleValue
10.057

@<SCITEGIC>MOL_PROPERTY
Bond
SciTegic.value.DoubleValue
0.173

@<SCITEGIC>MOL_PROPERTY
Angle
SciTegic.value.DoubleValue
2.663

@<SCITEGIC>MOL_PROPERTY
Pdih
SciTegic.value.DoubleValue
5.469

@<SCITEGIC>MOL_PROPERTY
Idih
SciTegic.value.DoubleValue
0.001

@<SCITEGIC>MOL_PROPERTY
Tether
SciTegic.value.DoubleValue
0.000

@<TRIPOS>MOLECULE
guest-8_confgen4.mol2 : confsearch ligand conformer 551
          25          24           1
SMALL
USER_CHARGES
 
@<TRIPOS>ATOM
       1    C1      19.804986   19.881456   26.836814 C.2        1 MOL1         0.6168
       2    O1      19.126481   19.506363   27.773027 O.co2      1 MOL1        -0.6703
       3    O2      20.994590   20.115802   26.920358 O.co2      1 MOL1        -0.6703
       4    C2      19.117315   20.095340   25.491340 C.3        1 MOL1        -0.1963
       5    H1      19.780308   20.684655   24.847565 H          1 MOL1         0.0750
       6    H2      18.230544   20.713605   25.672740 H          1 MOL1         0.0750
       7    C3      18.691762   18.781435   24.780925 C.3        1 MOL1        -0.1860
       8    H3      17.975806   18.250200   25.423088 H          1 MOL1         0.0752
       9    H4      18.145049   19.028086   23.861623 H          1 MOL1         0.0752
      10    C4      19.865155   17.823428   24.449241 C.3        1 MOL1        -0.1858
      11    H5      19.461094   16.927862   23.958025 H          1 MOL1         0.0752
      12    H6      20.317645   17.474163   25.387512 H          1 MOL1         0.0752
      13    C5      20.979317   18.425555   23.556820 C.3        1 MOL1        -0.1858
      14    H7      21.471144   19.255101   24.082285 H          1 MOL1         0.0752
      15    H8      21.753234   17.660419   23.407991 H          1 MOL1         0.0752
      16    C6      20.474249   18.904714   22.176248 C.3        1 MOL1        -0.1858
      17    H9      19.752149   19.721334   22.305900 H          1 MOL1         0.0752
      18    H10     19.944854   18.083756   21.673810 H          1 MOL1         0.0752
      19    C7      21.633711   19.394212   21.283233 C.3        1 MOL1        -0.1834
      20    H11     22.166320   20.213824   21.785268 H          1 MOL1         0.0752
      21    H12     22.359778   18.582035   21.139815 H          1 MOL1         0.0752
      22    C8      21.127749   19.877391   19.909103 C.3        1 MOL1        -0.2849
      23    H13     20.423384   20.712051   20.021262 H          1 MOL1         0.0764
      24    H14     21.964735   20.221392   19.287691 H          1 MOL1         0.0764
      25    H15     20.616982   19.067584   19.371810 H          1 MOL1         0.0764
@<TRIPOS>BOND
    1     1     2    1
    2     1     3    2
    3     1     4    1
    4     4     5    1
    5     4     6    1
    6     4     7    1
    7     7     8    1
    8     7     9    1
    9     7    10    1
   10    10    11    1
   11    10    12    1
   12    10    13    1
   13    13    14    1
   14    13    15    1
   15    13    16    1
   16    16    17    1
   17    16    18    1
   18    16    19    1
   19    19    20    1
   20    19    21    1
   21    19    22    1
   22    22    23    1
   23    22    24    1
   24    22    25    1
@<TRIPOS>SUBSTRUCTURE
       1 MOL1            1 RESIDUE      1      MOL     
@<SCITEGIC>MOL_PROPERTY
VConf Rank
SciTegic.value.IntegerValue
551

@<SCITEGIC>MOL_PROPERTY
Conf_Id
SciTegic.value.IntegerValue
135

@<SCITEGIC>MOL_PROPERTY
Delta U+W
SciTegic.value.DoubleValue
1.314

@<SCITEGIC>MOL_PROPERTY
U+W
SciTegic.value.DoubleValue
-50.316

@<SCITEGIC>MOL_PROPERTY
Grad RMS
SciTegic.value.DoubleValue
0.000000

@<SCITEGIC>MOL_PROPERTY
U
SciTegic.value.DoubleValue
9.773

@<SCITEGIC>MOL_PROPERTY
W
SciTegic.value.DoubleValue
-60.088

@<SCITEGIC>MOL_PROPERTY
W(PB)
SciTegic.value.DoubleValue
-62.535

@<SCITEGIC>MOL_PROPERTY
W(SA)
SciTegic.value.DoubleValue
2.447

@<SCITEGIC>MOL_PROPERTY
Valence
SciTegic.value.DoubleValue
8.741

@<SCITEGIC>MOL_PROPERTY
Coulomb
SciTegic.value.DoubleValue
0.479

@<SCITEGIC>MOL_PROPERTY
VdW
SciTegic.value.DoubleValue
0.552

@<SCITEGIC>MOL_PROPERTY
VdW6
SciTegic.value.DoubleValue
-10.627

@<SCITEGIC>MOL_PROPERTY
VdW12
SciTegic.value.DoubleValue
11.179

@<SCITEGIC>MOL_PROPERTY
Bond
SciTegic.value.DoubleValue
0.227

@<SCITEGIC>MOL_PROPERTY
Angle
SciTegic.value.DoubleValue
3.155

@<SCITEGIC>MOL_PROPERTY
Pdih
SciTegic.value.DoubleValue
5.358

@<SCITEGIC>MOL_PROPERTY
Idih
SciTegic.value.DoubleValue
0.001

@<SCITEGIC>MOL_PROPERTY
Tether
SciTegic.value.DoubleValue
0.000

@<TRIPOS>MOLECULE
guest-8_confgen4.mol2 : confsearch ligand conformer 552
          25          24           1
SMALL
USER_CHARGES
 
@<TRIPOS>ATOM
       1    C1      24.179008   19.714402   22.370303 C.2        1 MOL1         0.6168
       2    O1      24.673988   20.686017   22.906681 O.co2      1 MOL1        -0.6703
       3    O2      24.826533   18.780985   21.938779 O.co2      1 MOL1        -0.6703
       4    C2      22.660303   19.652412   22.252520 C.3        1 MOL1        -0.1963
       5    H1      22.412761   19.097268   21.339895 H          1 MOL1         0.0750
       6    H2      22.295499   20.676804   22.119439 H          1 MOL1         0.0750
       7    C3      21.990814   18.985625   23.482564 C.3        1 MOL1        -0.1860
       8    H3      22.451794   18.000792   23.640830 H          1 MOL1         0.0752
       9    H4      22.205090   19.576173   24.384019 H          1 MOL1         0.0752
      10    C4      20.462380   18.795918   23.331456 C.3        1 MOL1        -0.1858
      11    H5      20.114633   18.183586   24.172950 H          1 MOL1         0.0752
      12    H6      20.249134   18.226959   22.416366 H          1 MOL1         0.0752
      13    C5      19.674012   20.127370   23.318242 C.3        1 MOL1        -0.1858
      14    H7      19.846447   20.662197   24.262075 H          1 MOL1         0.0752
      15    H8      20.060624   20.775127   22.521739 H          1 MOL1         0.0752
      16    C6      18.149938   19.960607   23.092726 C.3        1 MOL1        -0.1858
      17    H9      17.962533   19.510922   22.108059 H          1 MOL1         0.0752
      18    H10     17.710933   20.966699   23.048829 H          1 MOL1         0.0752
      19    C7      17.413089   19.161587   24.196728 C.3        1 MOL1        -0.1834
      20    H11     17.952464   19.242384   25.150553 H          1 MOL1         0.0752
      21    H12     16.428074   19.618902   24.363791 H          1 MOL1         0.0752
      22    C8      17.194054   17.677074   23.828608 C.3        1 MOL1        -0.2849
      23    H13     18.142138   17.155121   23.655921 H          1 MOL1         0.0764
      24    H14     16.665784   17.154870   24.636718 H          1 MOL1         0.0764
      25    H15     16.587687   17.586577   22.917998 H          1 MOL1         0.0764
@<TRIPOS>BOND
    1     1     2    1
    2     1     3    2
    3     1     4    1
    4     4     5    1
    5     4     6    1
    6     4     7    1
    7     7     8    1
    8     7     9    1
    9     7    10    1
   10    10    11    1
   11    10    12    1
   12    10    13    1
   13    13    14    1
   14    13    15    1
   15    13    16    1
   16    16    17    1
   17    16    18    1
   18    16    19    1
   19    19    20    1
   20    19    21    1
   21    19    22    1
   22    22    23    1
   23    22    24    1
   24    22    25    1
@<TRIPOS>SUBSTRUCTURE
       1 MOL1            1 RESIDUE      1      MOL     
@<SCITEGIC>MOL_PROPERTY
VConf Rank
SciTegic.value.IntegerValue
552

@<SCITEGIC>MOL_PROPERTY
Conf_Id
SciTegic.value.IntegerValue
19

@<SCITEGIC>MOL_PROPERTY
Delta U+W
SciTegic.value.DoubleValue
3.222

@<SCITEGIC>MOL_PROPERTY
U+W
SciTegic.value.DoubleValue
-48.407

@<SCITEGIC>MOL_PROPERTY
Grad RMS
SciTegic.value.DoubleValue
0.000000

@<SCITEGIC>MOL_PROPERTY
U
SciTegic.value.DoubleValue
10.617

@<SCITEGIC>MOL_PROPERTY
W
SciTegic.value.DoubleValue
-59.025

@<SCITEGIC>MOL_PROPERTY
W(PB)
SciTegic.value.DoubleValue
-61.462

@<SCITEGIC>MOL_PROPERTY
W(SA)
SciTegic.value.DoubleValue
2.437

@<SCITEGIC>MOL_PROPERTY
Valence
SciTegic.value.DoubleValue
11.188

@<SCITEGIC>MOL_PROPERTY
Coulomb
SciTegic.value.DoubleValue
-1.778

@<SCITEGIC>MOL_PROPERTY
VdW
SciTegic.value.DoubleValue
1.208

@<SCITEGIC>MOL_PROPERTY
VdW6
SciTegic.value.DoubleValue
-9.786

@<SCITEGIC>MOL_PROPERTY
VdW12
SciTegic.value.DoubleValue
10.993

@<SCITEGIC>MOL_PROPERTY
Bond
SciTegic.value.DoubleValue
0.241

@<SCITEGIC>MOL_PROPERTY
Angle
SciTegic.value.DoubleValue
3.294

@<SCITEGIC>MOL_PROPERTY
Pdih
SciTegic.value.DoubleValue
7.653

@<SCITEGIC>MOL_PROPERTY
Idih
SciTegic.value.DoubleValue
0.001

@<SCITEGIC>MOL_PROPERTY
Tether
SciTegic.value.DoubleValue
0.000

@<TRIPOS>MOLECULE
guest-8_confgen4.mol2 : confsearch ligand conformer 553
          25          24           1
SMALL
USER_CHARGES
 
@<TRIPOS>ATOM
       1    C1      19.046638   22.089277   26.138050 C.2        1 MOL1         0.6168
       2    O1      19.717060   23.100970   26.076803 O.co2      1 MOL1        -0.6703
       3    O2      18.410822   21.761677   27.120489 O.co2      1 MOL1        -0.6703
       4    C2      19.020286   21.168194   24.923515 C.3        1 MOL1        -0.1963
       5    H1      19.100290   21.795713   24.029093 H          1 MOL1         0.0750
       6    H2      18.040277   20.677433   24.890605 H          1 MOL1         0.0750
       7    C3      20.149981   20.105762   24.952800 C.3        1 MOL1        -0.1860
       8    H3      21.127679   20.606899   24.936957 H          1 MOL1         0.0752
       9    H4      20.095561   19.563359   25.906888 H          1 MOL1         0.0752
      10    C4      20.068240   19.079762   23.797128 C.3        1 MOL1        -0.1858
      11    H5      19.081018   18.598131   23.799475 H          1 MOL1         0.0752
      12    H6      20.805356   18.291306   23.994576 H          1 MOL1         0.0752
      13    C5      20.349683   19.694784   22.405366 C.3        1 MOL1        -0.1858
      14    H7      19.660549   20.529415   22.226584 H          1 MOL1         0.0752
      15    H8      21.361575   20.122027   22.393771 H          1 MOL1         0.0752
      16    C6      20.198863   18.697970   21.228468 C.3        1 MOL1        -0.1858
      17    H9      20.367970   19.257640   20.298390 H          1 MOL1         0.0752
      18    H10     19.163371   18.335164   21.173386 H          1 MOL1         0.0752
      19    C7      21.185216   17.503628   21.257757 C.3        1 MOL1        -0.1834
      20    H11     21.497565   17.280136   20.228295 H          1 MOL1         0.0752
      21    H12     22.099993   17.777563   21.801242 H          1 MOL1         0.0752
      22    C8      20.568230   16.220858   21.858669 C.3        1 MOL1        -0.2849
      23    H13     19.698560   15.895308   21.273201 H          1 MOL1         0.0764
      24    H14     21.300900   15.403560   21.853856 H          1 MOL1         0.0764
      25    H15     20.240960   16.371438   22.893724 H          1 MOL1         0.0764
@<TRIPOS>BOND
    1     1     2    1
    2     1     3    2
    3     1     4    1
    4     4     5    1
    5     4     6    1
    6     4     7    1
    7     7     8    1
    8     7     9    1
    9     7    10    1
   10    10    11    1
   11    10    12    1
   12    10    13    1
   13    13    14    1
   14    13    15    1
   15    13    16    1
   16    16    17    1
   17    16    18    1
   18    16    19    1
   19    19    20    1
   20    19    21    1
   21    19    22    1
   22    22    23    1
   23    22    24    1
   24    22    25    1
@<TRIPOS>SUBSTRUCTURE
       1 MOL1            1 RESIDUE      1      MOL     
@<SCITEGIC>MOL_PROPERTY
VConf Rank
SciTegic.value.IntegerValue
553

@<SCITEGIC>MOL_PROPERTY
Conf_Id
SciTegic.value.IntegerValue
20

@<SCITEGIC>MOL_PROPERTY
Delta U+W
SciTegic.value.DoubleValue
3.224

@<SCITEGIC>MOL_PROPERTY
U+W
SciTegic.value.DoubleValue
-48.406

@<SCITEGIC>MOL_PROPERTY
Grad RMS
SciTegic.value.DoubleValue
0.000000

@<SCITEGIC>MOL_PROPERTY
U
SciTegic.value.DoubleValue
10.617

@<SCITEGIC>MOL_PROPERTY
W
SciTegic.value.DoubleValue
-59.023

@<SCITEGIC>MOL_PROPERTY
W(PB)
SciTegic.value.DoubleValue
-61.467

@<SCITEGIC>MOL_PROPERTY
W(SA)
SciTegic.value.DoubleValue
2.444

@<SCITEGIC>MOL_PROPERTY
Valence
SciTegic.value.DoubleValue
11.188

@<SCITEGIC>MOL_PROPERTY
Coulomb
SciTegic.value.DoubleValue
-1.778

@<SCITEGIC>MOL_PROPERTY
VdW
SciTegic.value.DoubleValue
1.208

@<SCITEGIC>MOL_PROPERTY
VdW6
SciTegic.value.DoubleValue
-9.786

@<SCITEGIC>MOL_PROPERTY
VdW12
SciTegic.value.DoubleValue
10.993

@<SCITEGIC>MOL_PROPERTY
Bond
SciTegic.value.DoubleValue
0.241

@<SCITEGIC>MOL_PROPERTY
Angle
SciTegic.value.DoubleValue
3.294

@<SCITEGIC>MOL_PROPERTY
Pdih
SciTegic.value.DoubleValue
7.653

@<SCITEGIC>MOL_PROPERTY
Idih
SciTegic.value.DoubleValue
0.001

@<SCITEGIC>MOL_PROPERTY
Tether
SciTegic.value.DoubleValue
0.000

@<TRIPOS>MOLECULE
guest-8_confgen4.mol2 : confsearch ligand conformer 554
          25          24           1
SMALL
USER_CHARGES
 
@<TRIPOS>ATOM
       1    C1      18.974381   20.225606   26.484308 C.2        1 MOL1         0.6168
       2    O1      17.772562   20.397550   26.423382 O.co2      1 MOL1        -0.6703
       3    O2      19.783427   21.132397   26.464483 O.co2      1 MOL1        -0.6703
       4    C2      19.494804   18.800442   26.661666 C.3        1 MOL1        -0.1963
       5    H1      19.111862   18.450678   27.627320 H          1 MOL1         0.0750
       6    H2      20.587689   18.828277   26.748941 H          1 MOL1         0.0750
       7    C3      19.068278   17.795850   25.554427 C.3        1 MOL1        -0.1860
       8    H3      19.172771   16.780276   25.959545 H          1 MOL1         0.0752
       9    H4      18.000746   17.921335   25.325903 H          1 MOL1         0.0752
      10    C4      19.902650   17.872024   24.251696 C.3        1 MOL1        -0.1858
      11    H5      19.615494   17.026362   23.611869 H          1 MOL1         0.0752
      12    H6      20.967093   17.734203   24.485791 H          1 MOL1         0.0752
      13    C5      19.711438   19.183462   23.456588 C.3        1 MOL1        -0.1858
      14    H7      18.639144   19.374894   23.313111 H          1 MOL1         0.0752
      15    H8      20.115276   20.028331   24.028527 H          1 MOL1         0.0752
      16    C6      20.415409   19.126709   22.083353 C.3        1 MOL1        -0.1858
      17    H9      20.012888   18.288802   21.497815 H          1 MOL1         0.0752
      18    H10     21.486577   18.930416   22.228612 H          1 MOL1         0.0752
      19    C7      20.234693   20.439975   21.293386 C.3        1 MOL1        -0.1834
      20    H11     19.164126   20.638808   21.145701 H          1 MOL1         0.0752
      21    H12     20.637810   21.280425   21.875405 H          1 MOL1         0.0752
      22    C8      20.939073   20.380601   19.922987 C.3        1 MOL1        -0.2849
      23    H13     20.532692   19.567420   19.307389 H          1 MOL1         0.0764
      24    H14     20.800305   21.321946   19.375560 H          1 MOL1         0.0764
      25    H15     22.017622   20.213937   20.042685 H          1 MOL1         0.0764
@<TRIPOS>BOND
    1     1     2    1
    2     1     3    2
    3     1     4    1
    4     4     5    1
    5     4     6    1
    6     4     7    1
    7     7     8    1
    8     7     9    1
    9     7    10    1
   10    10    11    1
   11    10    12    1
   12    10    13    1
   13    13    14    1
   14    13    15    1
   15    13    16    1
   16    16    17    1
   17    16    18    1
   18    16    19    1
   19    19    20    1
   20    19    21    1
   21    19    22    1
   22    22    23    1
   23    22    24    1
   24    22    25    1
@<TRIPOS>SUBSTRUCTURE
       1 MOL1            1 RESIDUE      1      MOL     
@<SCITEGIC>MOL_PROPERTY
VConf Rank
SciTegic.value.IntegerValue
554

@<SCITEGIC>MOL_PROPERTY
Conf_Id
SciTegic.value.IntegerValue
24

@<SCITEGIC>MOL_PROPERTY
Delta U+W
SciTegic.value.DoubleValue
1.784

@<SCITEGIC>MOL_PROPERTY
U+W
SciTegic.value.DoubleValue
-49.846

@<SCITEGIC>MOL_PROPERTY
Grad RMS
SciTegic.value.DoubleValue
0.000000

@<SCITEGIC>MOL_PROPERTY
U
SciTegic.value.DoubleValue
10.904

@<SCITEGIC>MOL_PROPERTY
W
SciTegic.value.DoubleValue
-60.749

@<SCITEGIC>MOL_PROPERTY
W(PB)
SciTegic.value.DoubleValue
-63.220

@<SCITEGIC>MOL_PROPERTY
W(SA)
SciTegic.value.DoubleValue
2.471

@<SCITEGIC>MOL_PROPERTY
Valence
SciTegic.value.DoubleValue
9.445

@<SCITEGIC>MOL_PROPERTY
Coulomb
SciTegic.value.DoubleValue
0.780

@<SCITEGIC>MOL_PROPERTY
VdW
SciTegic.value.DoubleValue
0.679

@<SCITEGIC>MOL_PROPERTY
VdW6
SciTegic.value.DoubleValue
-10.008

@<SCITEGIC>MOL_PROPERTY
VdW12
SciTegic.value.DoubleValue
10.687

@<SCITEGIC>MOL_PROPERTY
Bond
SciTegic.value.DoubleValue
0.201

@<SCITEGIC>MOL_PROPERTY
Angle
SciTegic.value.DoubleValue
3.198

@<SCITEGIC>MOL_PROPERTY
Pdih
SciTegic.value.DoubleValue
6.039

@<SCITEGIC>MOL_PROPERTY
Idih
SciTegic.value.DoubleValue
0.006

@<SCITEGIC>MOL_PROPERTY
Tether
SciTegic.value.DoubleValue
0.000

@<TRIPOS>MOLECULE
guest-8_confgen4.mol2 : confsearch ligand conformer 555
          25          24           1
SMALL
USER_CHARGES
 
@<TRIPOS>ATOM
       1    C1      22.632384   17.067662   22.958914 C.2        1 MOL1         0.6168
       2    O1      22.177470   16.108556   22.366620 O.co2      1 MOL1        -0.6703
       3    O2      23.229062   17.973359   22.410366 O.co2      1 MOL1        -0.6703
       4    C2      22.507054   17.106116   24.480822 C.3        1 MOL1        -0.1963
       5    H1      23.010070   18.004991   24.857364 H          1 MOL1         0.0750
       6    H2      23.074560   16.247706   24.858364 H          1 MOL1         0.0750
       7    C3      21.054000   17.032484   25.028832 C.3        1 MOL1        -0.1860
       8    H3      20.490397   16.256284   24.492679 H          1 MOL1         0.0752
       9    H4      21.102580   16.701691   26.075085 H          1 MOL1         0.0752
      10    C4      20.277657   18.372307   24.993452 C.3        1 MOL1        -0.1858
      11    H5      20.840585   19.140373   25.541194 H          1 MOL1         0.0752
      12    H6      19.333436   18.234780   25.537985 H          1 MOL1         0.0752
      13    C5      19.959666   18.879012   23.568406 C.3        1 MOL1        -0.1858
      14    H7      20.889875   19.147875   23.052235 H          1 MOL1         0.0752
      15    H8      19.489797   18.073958   22.986892 H          1 MOL1         0.0752
      16    C6      19.028046   20.110259   23.594576 C.3        1 MOL1        -0.1858
      17    H9      19.497365   20.912401   24.180526 H          1 MOL1         0.0752
      18    H10     18.088961   19.850452   24.102107 H          1 MOL1         0.0752
      19    C7      18.719161   20.623975   22.172585 C.3        1 MOL1        -0.1834
      20    H11     19.656293   20.886610   21.662281 H          1 MOL1         0.0752
      21    H12     18.248929   19.824027   21.584008 H          1 MOL1         0.0752
      22    C8      17.789141   21.853558   22.201848 C.3        1 MOL1        -0.2849
      23    H13     18.249104   22.680724   22.758268 H          1 MOL1         0.0764
      24    H14     17.580434   22.205106   21.183065 H          1 MOL1         0.0764
      25    H15     16.830982   21.610039   22.679344 H          1 MOL1         0.0764
@<TRIPOS>BOND
    1     1     2    1
    2     1     3    2
    3     1     4    1
    4     4     5    1
    5     4     6    1
    6     4     7    1
    7     7     8    1
    8     7     9    1
    9     7    10    1
   10    10    11    1
   11    10    12    1
   12    10    13    1
   13    13    14    1
   14    13    15    1
   15    13    16    1
   16    16    17    1
   17    16    18    1
   18    16    19    1
   19    19    20    1
   20    19    21    1
   21    19    22    1
   22    22    23    1
   23    22    24    1
   24    22    25    1
@<TRIPOS>SUBSTRUCTURE
       1 MOL1            1 RESIDUE      1      MOL     
@<SCITEGIC>MOL_PROPERTY
VConf Rank
SciTegic.value.IntegerValue
555

@<SCITEGIC>MOL_PROPERTY
Conf_Id
SciTegic.value.IntegerValue
9

@<SCITEGIC>MOL_PROPERTY
Delta U+W
SciTegic.value.DoubleValue
1.764

@<SCITEGIC>MOL_PROPERTY
U+W
SciTegic.value.DoubleValue
-49.865

@<SCITEGIC>MOL_PROPERTY
Grad RMS
SciTegic.value.DoubleValue
0.000000

@<SCITEGIC>MOL_PROPERTY
U
SciTegic.value.DoubleValue
10.902

@<SCITEGIC>MOL_PROPERTY
W
SciTegic.value.DoubleValue
-60.768

@<SCITEGIC>MOL_PROPERTY
W(PB)
SciTegic.value.DoubleValue
-63.223

@<SCITEGIC>MOL_PROPERTY
W(SA)
SciTegic.value.DoubleValue
2.456

@<SCITEGIC>MOL_PROPERTY
Valence
SciTegic.value.DoubleValue
9.445

@<SCITEGIC>MOL_PROPERTY
Coulomb
SciTegic.value.DoubleValue
0.778

@<SCITEGIC>MOL_PROPERTY
VdW
SciTegic.value.DoubleValue
0.679

@<SCITEGIC>MOL_PROPERTY
VdW6
SciTegic.value.DoubleValue
-10.007

@<SCITEGIC>MOL_PROPERTY
VdW12
SciTegic.value.DoubleValue
10.687

@<SCITEGIC>MOL_PROPERTY
Bond
SciTegic.value.DoubleValue
0.201

@<SCITEGIC>MOL_PROPERTY
Angle
SciTegic.value.DoubleValue
3.198

@<SCITEGIC>MOL_PROPERTY
Pdih
SciTegic.value.DoubleValue
6.040

@<SCITEGIC>MOL_PROPERTY
Idih
SciTegic.value.DoubleValue
0.006

@<SCITEGIC>MOL_PROPERTY
Tether
SciTegic.value.DoubleValue
0.000

@<TRIPOS>MOLECULE
guest-8_confgen4.mol2 : confsearch ligand conformer 556
          25          24           1
SMALL
USER_CHARGES
 
@<TRIPOS>ATOM
       1    C1      18.823408   20.932817   26.428355 C.2        1 MOL1         0.6168
       2    O1      18.314258   21.810956   25.760341 O.co2      1 MOL1        -0.6703
       3    O2      18.579776   20.755461   27.605655 O.co2      1 MOL1        -0.6703
       4    C2      19.806980   19.988278   25.747070 C.3        1 MOL1        -0.1963
       5    H1      20.559067   19.691847   26.487848 H          1 MOL1         0.0750
       6    H2      20.330332   20.553819   24.970070 H          1 MOL1         0.0750
       7    C3      19.118115   18.729874   25.155856 C.3        1 MOL1        -0.1860
       8    H3      18.617738   18.201018   25.978881 H          1 MOL1         0.0752
       9    H4      18.324378   19.026453   24.456258 H          1 MOL1         0.0752
      10    C4      20.103569   17.752499   24.465994 C.3        1 MOL1        -0.1858
      11    H5      19.750843   16.727960   24.647162 H          1 MOL1         0.0752
      12    H6      21.094301   17.814269   24.936605 H          1 MOL1         0.0752
      13    C5      20.229176   17.936282   22.932629 C.3        1 MOL1        -0.1858
      14    H7      20.881909   17.143552   22.542669 H          1 MOL1         0.0752
      15    H8      19.244891   17.781034   22.471643 H          1 MOL1         0.0752
      16    C6      20.795769   19.309783   22.501772 C.3        1 MOL1        -0.1858
      17    H9      21.702016   19.523628   23.084339 H          1 MOL1         0.0752
      18    H10     20.071419   20.100456   22.737148 H          1 MOL1         0.0752
      19    C7      21.148079   19.381581   20.997693 C.3        1 MOL1        -0.1834
      20    H11     21.632284   20.346650   20.794339 H          1 MOL1         0.0752
      21    H12     21.886667   18.606138   20.751909 H          1 MOL1         0.0752
      22    C8      19.917576   19.237359   20.076070 C.3        1 MOL1        -0.2849
      23    H13     19.153978   19.987253   20.320450 H          1 MOL1         0.0764
      24    H14     20.205411   19.377411   19.026124 H          1 MOL1         0.0764
      25    H15     19.464412   18.242232   20.166824 H          1 MOL1         0.0764
@<TRIPOS>BOND
    1     1     2    1
    2     1     3    2
    3     1     4    1
    4     4     5    1
    5     4     6    1
    6     4     7    1
    7     7     8    1
    8     7     9    1
    9     7    10    1
   10    10    11    1
   11    10    12    1
   12    10    13    1
   13    13    14    1
   14    13    15    1
   15    13    16    1
   16    16    17    1
   17    16    18    1
   18    16    19    1
   19    19    20    1
   20    19    21    1
   21    19    22    1
   22    22    23    1
   23    22    24    1
   24    22    25    1
@<TRIPOS>SUBSTRUCTURE
       1 MOL1            1 RESIDUE      1      MOL     
@<SCITEGIC>MOL_PROPERTY
VConf Rank
SciTegic.value.IntegerValue
556

@<SCITEGIC>MOL_PROPERTY
Conf_Id
SciTegic.value.IntegerValue
89

@<SCITEGIC>MOL_PROPERTY
Delta U+W
SciTegic.value.DoubleValue
2.903

@<SCITEGIC>MOL_PROPERTY
U+W
SciTegic.value.DoubleValue
-48.726

@<SCITEGIC>MOL_PROPERTY
Grad RMS
SciTegic.value.DoubleValue
0.000000

@<SCITEGIC>MOL_PROPERTY
U
SciTegic.value.DoubleValue
10.996

@<SCITEGIC>MOL_PROPERTY
W
SciTegic.value.DoubleValue
-59.723

@<SCITEGIC>MOL_PROPERTY
W(PB)
SciTegic.value.DoubleValue
-62.151

@<SCITEGIC>MOL_PROPERTY
W(SA)
SciTegic.value.DoubleValue
2.428

@<SCITEGIC>MOL_PROPERTY
Valence
SciTegic.value.DoubleValue
10.985

@<SCITEGIC>MOL_PROPERTY
Coulomb
SciTegic.value.DoubleValue
-0.995

@<SCITEGIC>MOL_PROPERTY
VdW
SciTegic.value.DoubleValue
1.006

@<SCITEGIC>MOL_PROPERTY
VdW6
SciTegic.value.DoubleValue
-10.062

@<SCITEGIC>MOL_PROPERTY
VdW12
SciTegic.value.DoubleValue
11.069

@<SCITEGIC>MOL_PROPERTY
Bond
SciTegic.value.DoubleValue
0.238

@<SCITEGIC>MOL_PROPERTY
Angle
SciTegic.value.DoubleValue
3.202

@<SCITEGIC>MOL_PROPERTY
Pdih
SciTegic.value.DoubleValue
7.544

@<SCITEGIC>MOL_PROPERTY
Idih
SciTegic.value.DoubleValue
0.001

@<SCITEGIC>MOL_PROPERTY
Tether
SciTegic.value.DoubleValue
0.000

@<TRIPOS>MOLECULE
guest-8_confgen4.mol2 : confsearch ligand conformer 557
          25          24           1
SMALL
USER_CHARGES
 
@<TRIPOS>ATOM
       1    C1      18.390395   16.972245   25.696556 C.2        1 MOL1         0.6168
       2    O1      17.727576   16.341132   24.896788 O.co2      1 MOL1        -0.6703
       3    O2      19.247505   16.472916   26.399151 O.co2      1 MOL1        -0.6703
       4    C2      18.083695   18.458317   25.871982 C.3        1 MOL1        -0.1963
       5    H1      17.712875   18.576542   26.896674 H          1 MOL1         0.0750
       6    H2      17.257063   18.733293   25.205771 H          1 MOL1         0.0750
       7    C3      19.290318   19.415247   25.657683 C.3        1 MOL1        -0.1860
       8    H3      19.065924   20.361126   26.168960 H          1 MOL1         0.0752
       9    H4      20.183636   19.009680   26.152731 H          1 MOL1         0.0752
      10    C4      19.606810   19.744948   24.177458 C.3        1 MOL1        -0.1858
      11    H5      20.352837   20.549240   24.168631 H          1 MOL1         0.0752
      12    H6      18.710008   20.150009   23.689376 H          1 MOL1         0.0752
      13    C5      20.142498   18.541349   23.364581 C.3        1 MOL1        -0.1858
      14    H7      21.003130   18.094867   23.881045 H          1 MOL1         0.0752
      15    H8      19.369684   17.764570   23.317564 H          1 MOL1         0.0752
      16    C6      20.536624   18.902622   21.912161 C.3        1 MOL1        -0.1858
      17    H9      19.685193   19.378691   21.406939 H          1 MOL1         0.0752
      18    H10     20.738585   17.970431   21.367061 H          1 MOL1         0.0752
      19    C7      21.780367   19.815362   21.814954 C.3        1 MOL1        -0.1834
      20    H11     21.575990   20.787748   22.281244 H          1 MOL1         0.0752
      21    H12     22.615421   19.363619   22.367945 H          1 MOL1         0.0752
      22    C8      22.201115   20.042758   20.348885 C.3        1 MOL1        -0.2849
      23    H13     21.393035   20.518774   19.778112 H          1 MOL1         0.0764
      24    H14     23.082834   20.694561   20.296192 H          1 MOL1         0.0764
      25    H15     22.452779   19.092542   19.859910 H          1 MOL1         0.0764
@<TRIPOS>BOND
    1     1     2    1
    2     1     3    2
    3     1     4    1
    4     4     5    1
    5     4     6    1
    6     4     7    1
    7     7     8    1
    8     7     9    1
    9     7    10    1
   10    10    11    1
   11    10    12    1
   12    10    13    1
   13    13    14    1
   14    13    15    1
   15    13    16    1
   16    16    17    1
   17    16    18    1
   18    16    19    1
   19    19    20    1
   20    19    21    1
   21    19    22    1
   22    22    23    1
   23    22    24    1
   24    22    25    1
@<TRIPOS>SUBSTRUCTURE
       1 MOL1            1 RESIDUE      1      MOL     
@<SCITEGIC>MOL_PROPERTY
VConf Rank
SciTegic.value.IntegerValue
557

@<SCITEGIC>MOL_PROPERTY
Conf_Id
SciTegic.value.IntegerValue
114

@<SCITEGIC>MOL_PROPERTY
Delta U+W
SciTegic.value.DoubleValue
2.758

@<SCITEGIC>MOL_PROPERTY
U+W
SciTegic.value.DoubleValue
-48.871

@<SCITEGIC>MOL_PROPERTY
Grad RMS
SciTegic.value.DoubleValue
0.000000

@<SCITEGIC>MOL_PROPERTY
U
SciTegic.value.DoubleValue
11.422

@<SCITEGIC>MOL_PROPERTY
W
SciTegic.value.DoubleValue
-60.293

@<SCITEGIC>MOL_PROPERTY
W(PB)
SciTegic.value.DoubleValue
-62.719

@<SCITEGIC>MOL_PROPERTY
W(SA)
SciTegic.value.DoubleValue
2.425

@<SCITEGIC>MOL_PROPERTY
Valence
SciTegic.value.DoubleValue
10.135

@<SCITEGIC>MOL_PROPERTY
Coulomb
SciTegic.value.DoubleValue
0.369

@<SCITEGIC>MOL_PROPERTY
VdW
SciTegic.value.DoubleValue
0.918

@<SCITEGIC>MOL_PROPERTY
VdW6
SciTegic.value.DoubleValue
-10.482

@<SCITEGIC>MOL_PROPERTY
VdW12
SciTegic.value.DoubleValue
11.400

@<SCITEGIC>MOL_PROPERTY
Bond
SciTegic.value.DoubleValue
0.245

@<SCITEGIC>MOL_PROPERTY
Angle
SciTegic.value.DoubleValue
3.539

@<SCITEGIC>MOL_PROPERTY
Pdih
SciTegic.value.DoubleValue
6.346

@<SCITEGIC>MOL_PROPERTY
Idih
SciTegic.value.DoubleValue
0.006

@<SCITEGIC>MOL_PROPERTY
Tether
SciTegic.value.DoubleValue
0.000

@<TRIPOS>MOLECULE
guest-8_confgen4.mol2 : confsearch ligand conformer 558
          25          24           1
SMALL
USER_CHARGES
 
@<TRIPOS>ATOM
       1    C1      19.303960   18.517398   19.720617 C.2        1 MOL1         0.6168
       2    O1      20.333497   18.160455   19.182370 O.co2      1 MOL1        -0.6703
       3    O2      18.302601   17.831164   19.779439 O.co2      1 MOL1        -0.6703
       4    C2      19.257124   19.911672   20.339288 C.3        1 MOL1        -0.1963
       5    H1      18.313140   20.376213   20.030948 H          1 MOL1         0.0750
       6    H2      20.064048   20.514411   19.905291 H          1 MOL1         0.0750
       7    C3      19.356048   19.916877   21.886920 C.3        1 MOL1        -0.1860
       8    H3      19.184440   20.938472   22.251810 H          1 MOL1         0.0752
       9    H4      18.550121   19.293511   22.295850 H          1 MOL1         0.0752
      10    C4      20.730491   19.417355   22.393516 C.3        1 MOL1        -0.1858
      11    H5      21.523086   19.994662   21.898185 H          1 MOL1         0.0752
      12    H6      20.880185   18.370030   22.096864 H          1 MOL1         0.0752
      13    C5      20.911818   19.550419   23.924561 C.3        1 MOL1        -0.1858
      14    H7      21.956112   19.312844   24.163709 H          1 MOL1         0.0752
      15    H8      20.753409   20.595078   24.224755 H          1 MOL1         0.0752
      16    C6      19.975013   18.624288   24.738945 C.3        1 MOL1        -0.1858
      17    H9      20.131305   17.580104   24.435739 H          1 MOL1         0.0752
      18    H10     18.930202   18.863712   24.504188 H          1 MOL1         0.0752
      19    C7      20.162493   18.752443   26.268934 C.3        1 MOL1        -0.1834
      20    H11     20.018271   19.798029   26.574282 H          1 MOL1         0.0752
      21    H12     19.374800   18.172215   26.769050 H          1 MOL1         0.0752
      22    C8      21.536457   18.250294   26.763883 C.3        1 MOL1        -0.2849
      23    H13     21.580653   18.273118   27.860437 H          1 MOL1         0.0764
      24    H14     21.717158   17.217029   26.440116 H          1 MOL1         0.0764
      25    H15     22.353381   18.877725   26.386562 H          1 MOL1         0.0764
@<TRIPOS>BOND
    1     1     2    1
    2     1     3    2
    3     1     4    1
    4     4     5    1
    5     4     6    1
    6     4     7    1
    7     7     8    1
    8     7     9    1
    9     7    10    1
   10    10    11    1
   11    10    12    1
   12    10    13    1
   13    13    14    1
   14    13    15    1
   15    13    16    1
   16    16    17    1
   17    16    18    1
   18    16    19    1
   19    19    20    1
   20    19    21    1
   21    19    22    1
   22    22    23    1
   23    22    24    1
   24    22    25    1
@<TRIPOS>SUBSTRUCTURE
       1 MOL1            1 RESIDUE      1      MOL     
@<SCITEGIC>MOL_PROPERTY
VConf Rank
SciTegic.value.IntegerValue
558

@<SCITEGIC>MOL_PROPERTY
Conf_Id
SciTegic.value.IntegerValue
87

@<SCITEGIC>MOL_PROPERTY
Delta U+W
SciTegic.value.DoubleValue
1.453

@<SCITEGIC>MOL_PROPERTY
U+W
SciTegic.value.DoubleValue
-50.176

@<SCITEGIC>MOL_PROPERTY
Grad RMS
SciTegic.value.DoubleValue
0.000000

@<SCITEGIC>MOL_PROPERTY
U
SciTegic.value.DoubleValue
9.763

@<SCITEGIC>MOL_PROPERTY
W
SciTegic.value.DoubleValue
-59.940

@<SCITEGIC>MOL_PROPERTY
W(PB)
SciTegic.value.DoubleValue
-62.392

@<SCITEGIC>MOL_PROPERTY
W(SA)
SciTegic.value.DoubleValue
2.452

@<SCITEGIC>MOL_PROPERTY
Valence
SciTegic.value.DoubleValue
8.883

@<SCITEGIC>MOL_PROPERTY
Coulomb
SciTegic.value.DoubleValue
-0.122

@<SCITEGIC>MOL_PROPERTY
VdW
SciTegic.value.DoubleValue
1.003

@<SCITEGIC>MOL_PROPERTY
VdW6
SciTegic.value.DoubleValue
-9.782

@<SCITEGIC>MOL_PROPERTY
VdW12
SciTegic.value.DoubleValue
10.785

@<SCITEGIC>MOL_PROPERTY
Bond
SciTegic.value.DoubleValue
0.212

@<SCITEGIC>MOL_PROPERTY
Angle
SciTegic.value.DoubleValue
2.940

@<SCITEGIC>MOL_PROPERTY
Pdih
SciTegic.value.DoubleValue
5.730

@<SCITEGIC>MOL_PROPERTY
Idih
SciTegic.value.DoubleValue
0.001

@<SCITEGIC>MOL_PROPERTY
Tether
SciTegic.value.DoubleValue
0.000

@<TRIPOS>MOLECULE
guest-8_confgen4.mol2 : confsearch ligand conformer 559
          25          24           1
SMALL
USER_CHARGES
 
@<TRIPOS>ATOM
       1    C1      21.199979   22.857685   22.800472 C.2        1 MOL1         0.6168
       2    O1      20.267144   23.313617   22.169102 O.co2      1 MOL1        -0.6703
       3    O2      21.865289   23.507555   23.582632 O.co2      1 MOL1        -0.6703
       4    C2      21.543211   21.383954   22.614799 C.3        1 MOL1        -0.1963
       5    H1      22.626587   21.268318   22.738925 H          1 MOL1         0.0750
       6    H2      21.303293   21.105764   21.581540 H          1 MOL1         0.0750
       7    C3      20.789463   20.461715   23.604388 C.3        1 MOL1        -0.1860
       8    H3      21.032627   20.757351   24.634248 H          1 MOL1         0.0752
       9    H4      19.709119   20.609684   23.474973 H          1 MOL1         0.0752
      10    C4      21.150106   18.973575   23.389904 C.3        1 MOL1        -0.1858
      11    H5      22.240506   18.857304   23.454166 H          1 MOL1         0.0752
      12    H6      20.870609   18.666125   22.373655 H          1 MOL1         0.0752
      13    C5      20.496590   18.025217   24.426182 C.3        1 MOL1        -0.1858
      14    H7      20.848596   17.001795   24.241578 H          1 MOL1         0.0752
      15    H8      20.862799   18.288767   25.427632 H          1 MOL1         0.0752
      16    C6      18.945067   18.035720   24.448273 C.3        1 MOL1        -0.1858
      17    H9      18.593176   19.016658   24.793523 H          1 MOL1         0.0752
      18    H10     18.601241   17.315435   25.202901 H          1 MOL1         0.0752
      19    C7      18.264055   17.705287   23.097285 C.3        1 MOL1        -0.1834
      20    H11     17.175226   17.767784   23.229385 H          1 MOL1         0.0752
      21    H12     18.523081   18.464946   22.347847 H          1 MOL1         0.0752
      22    C8      18.620087   16.301554   22.561735 C.3        1 MOL1        -0.2849
      23    H13     18.384061   15.526974   23.302850 H          1 MOL1         0.0764
      24    H14     18.050562   16.082382   21.649413 H          1 MOL1         0.0764
      25    H15     19.686536   16.228208   22.314240 H          1 MOL1         0.0764
@<TRIPOS>BOND
    1     1     2    1
    2     1     3    2
    3     1     4    1
    4     4     5    1
    5     4     6    1
    6     4     7    1
    7     7     8    1
    8     7     9    1
    9     7    10    1
   10    10    11    1
   11    10    12    1
   12    10    13    1
   13    13    14    1
   14    13    15    1
   15    13    16    1
   16    16    17    1
   17    16    18    1
   18    16    19    1
   19    19    20    1
   20    19    21    1
   21    19    22    1
   22    22    23    1
   23    22    24    1
   24    22    25    1
@<TRIPOS>SUBSTRUCTURE
       1 MOL1            1 RESIDUE      1      MOL     
@<SCITEGIC>MOL_PROPERTY
VConf Rank
SciTegic.value.IntegerValue
559

@<SCITEGIC>MOL_PROPERTY
Conf_Id
SciTegic.value.IntegerValue
29

@<SCITEGIC>MOL_PROPERTY
Delta U+W
SciTegic.value.DoubleValue
0.850

@<SCITEGIC>MOL_PROPERTY
U+W
SciTegic.value.DoubleValue
-50.780

@<SCITEGIC>MOL_PROPERTY
Grad RMS
SciTegic.value.DoubleValue
0.000000

@<SCITEGIC>MOL_PROPERTY
U
SciTegic.value.DoubleValue
8.646

@<SCITEGIC>MOL_PROPERTY
W
SciTegic.value.DoubleValue
-59.426

@<SCITEGIC>MOL_PROPERTY
W(PB)
SciTegic.value.DoubleValue
-61.868

@<SCITEGIC>MOL_PROPERTY
W(SA)
SciTegic.value.DoubleValue
2.442

@<SCITEGIC>MOL_PROPERTY
Valence
SciTegic.value.DoubleValue
8.924

@<SCITEGIC>MOL_PROPERTY
Coulomb
SciTegic.value.DoubleValue
-1.171

@<SCITEGIC>MOL_PROPERTY
VdW
SciTegic.value.DoubleValue
0.894

@<SCITEGIC>MOL_PROPERTY
VdW6
SciTegic.value.DoubleValue
-10.223

@<SCITEGIC>MOL_PROPERTY
VdW12
SciTegic.value.DoubleValue
11.117

@<SCITEGIC>MOL_PROPERTY
Bond
SciTegic.value.DoubleValue
0.231

@<SCITEGIC>MOL_PROPERTY
Angle
SciTegic.value.DoubleValue
3.232

@<SCITEGIC>MOL_PROPERTY
Pdih
SciTegic.value.DoubleValue
5.461

@<SCITEGIC>MOL_PROPERTY
Idih
SciTegic.value.DoubleValue
0.001

@<SCITEGIC>MOL_PROPERTY
Tether
SciTegic.value.DoubleValue
0.000

@<TRIPOS>MOLECULE
guest-8_confgen4.mol2 : confsearch ligand conformer 560
          25          24           1
SMALL
USER_CHARGES
 
@<TRIPOS>ATOM
       1    C1      19.215046   20.373423   19.642570 C.2        1 MOL1         0.6168
       2    O1      18.144376   20.931512   19.780003 O.co2      1 MOL1        -0.6703
       3    O2      19.542112   19.783870   18.631533 O.co2      1 MOL1        -0.6703
       4    C2      20.194893   20.398055   20.810245 C.3        1 MOL1        -0.1963
       5    H1      20.056420   21.341747   21.351395 H          1 MOL1         0.0750
       6    H2      21.212245   20.404733   20.401059 H          1 MOL1         0.0750
       7    C3      20.012989   19.199118   21.773271 C.3        1 MOL1        -0.1860
       8    H3      18.982912   19.202422   22.153687 H          1 MOL1         0.0752
       9    H4      20.146157   18.261595   21.216083 H          1 MOL1         0.0752
      10    C4      21.013208   19.252534   22.951126 C.3        1 MOL1        -0.1858
      11    H5      20.854198   20.170249   23.532437 H          1 MOL1         0.0752
      12    H6      22.033848   19.318862   22.550482 H          1 MOL1         0.0752
      13    C5      20.934506   18.017609   23.883383 C.3        1 MOL1        -0.1858
      14    H7      21.189908   17.119941   23.304216 H          1 MOL1         0.0752
      15    H8      21.712068   18.104740   24.653569 H          1 MOL1         0.0752
      16    C6      19.560571   17.790334   24.567832 C.3        1 MOL1        -0.1858
      17    H9      19.633779   16.904696   25.213415 H          1 MOL1         0.0752
      18    H10     18.811732   17.539523   23.805205 H          1 MOL1         0.0752
      19    C7      19.039059   18.979926   25.411057 C.3        1 MOL1        -0.1834
      20    H11     18.872875   19.854556   24.768218 H          1 MOL1         0.0752
      21    H12     18.055567   18.713571   25.821790 H          1 MOL1         0.0752
      22    C8      19.978091   19.359924   26.576328 C.3        1 MOL1        -0.2849
      23    H13     20.940588   19.734964   26.206340 H          1 MOL1         0.0764
      24    H14     19.527272   20.149241   27.191526 H          1 MOL1         0.0764
      25    H15     20.171001   18.494504   27.223452 H          1 MOL1         0.0764
@<TRIPOS>BOND
    1     1     2    1
    2     1     3    2
    3     1     4    1
    4     4     5    1
    5     4     6    1
    6     4     7    1
    7     7     8    1
    8     7     9    1
    9     7    10    1
   10    10    11    1
   11    10    12    1
   12    10    13    1
   13    13    14    1
   14    13    15    1
   15    13    16    1
   16    16    17    1
   17    16    18    1
   18    16    19    1
   19    19    20    1
   20    19    21    1
   21    19    22    1
   22    22    23    1
   23    22    24    1
   24    22    25    1
@<TRIPOS>SUBSTRUCTURE
       1 MOL1            1 RESIDUE      1      MOL     
@<SCITEGIC>MOL_PROPERTY
VConf Rank
SciTegic.value.IntegerValue
560

@<SCITEGIC>MOL_PROPERTY
Conf_Id
SciTegic.value.IntegerValue
30

@<SCITEGIC>MOL_PROPERTY
Delta U+W
SciTegic.value.DoubleValue
0.843

@<SCITEGIC>MOL_PROPERTY
U+W
SciTegic.value.DoubleValue
-50.787

@<SCITEGIC>MOL_PROPERTY
Grad RMS
SciTegic.value.DoubleValue
0.000000

@<SCITEGIC>MOL_PROPERTY
U
SciTegic.value.DoubleValue
8.647

@<SCITEGIC>MOL_PROPERTY
W
SciTegic.value.DoubleValue
-59.434

@<SCITEGIC>MOL_PROPERTY
W(PB)
SciTegic.value.DoubleValue
-61.861

@<SCITEGIC>MOL_PROPERTY
W(SA)
SciTegic.value.DoubleValue
2.428

@<SCITEGIC>MOL_PROPERTY
Valence
SciTegic.value.DoubleValue
8.924

@<SCITEGIC>MOL_PROPERTY
Coulomb
SciTegic.value.DoubleValue
-1.170

@<SCITEGIC>MOL_PROPERTY
VdW
SciTegic.value.DoubleValue
0.894

@<SCITEGIC>MOL_PROPERTY
VdW6
SciTegic.value.DoubleValue
-10.224

@<SCITEGIC>MOL_PROPERTY
VdW12
SciTegic.value.DoubleValue
11.118

@<SCITEGIC>MOL_PROPERTY
Bond
SciTegic.value.DoubleValue
0.231

@<SCITEGIC>MOL_PROPERTY
Angle
SciTegic.value.DoubleValue
3.232

@<SCITEGIC>MOL_PROPERTY
Pdih
SciTegic.value.DoubleValue
5.460

@<SCITEGIC>MOL_PROPERTY
Idih
SciTegic.value.DoubleValue
0.000

@<SCITEGIC>MOL_PROPERTY
Tether
SciTegic.value.DoubleValue
0.000

@<TRIPOS>MOLECULE
guest-8_confgen4.mol2 : confsearch ligand conformer 561
          25          24           1
SMALL
USER_CHARGES
 
@<TRIPOS>ATOM
       1    C1      21.748398   22.605836   20.381829 C.2        1 MOL1         0.6168
       2    O1      20.706928   22.726913   19.765971 O.co2      1 MOL1        -0.6703
       3    O2      22.735460   23.277000   20.155189 O.co2      1 MOL1        -0.6703
       4    C2      21.851956   21.567835   21.500411 C.3        1 MOL1        -0.1963
       5    H1      22.133999   22.100927   22.415929 H          1 MOL1         0.0750
       6    H2      22.683354   20.898719   21.249477 H          1 MOL1         0.0750
       7    C3      20.566520   20.735707   21.752669 C.3        1 MOL1        -0.1860
       8    H3      19.736220   21.412689   21.997219 H          1 MOL1         0.0752
       9    H4      20.286093   20.209343   20.829735 H          1 MOL1         0.0752
      10    C4      20.758209   19.714746   22.895271 C.3        1 MOL1        -0.1858
      11    H5      21.038539   20.243196   23.816841 H          1 MOL1         0.0752
      12    H6      21.588740   19.039086   22.648617 H          1 MOL1         0.0752
      13    C5      19.478336   18.888127   23.144501 C.3        1 MOL1        -0.1858
      14    H7      18.647632   19.563530   23.391212 H          1 MOL1         0.0752
      15    H8      19.197785   18.359522   22.223105 H          1 MOL1         0.0752
      16    C6      19.669315   17.867106   24.286849 C.3        1 MOL1        -0.1858
      17    H9      19.949824   18.395508   25.208369 H          1 MOL1         0.0752
      18    H10     20.499914   17.191525   24.040297 H          1 MOL1         0.0752
      19    C7      18.390058   17.040824   24.536087 C.3        1 MOL1        -0.1834
      20    H11     17.557320   17.713234   24.784887 H          1 MOL1         0.0752
      21    H12     18.107406   16.509255   23.616831 H          1 MOL1         0.0752
      22    C8      18.584800   16.022500   25.677444 C.3        1 MOL1        -0.2849
      23    H13     18.837692   16.529864   26.617670 H          1 MOL1         0.0764
      24    H14     17.666149   15.444191   25.840927 H          1 MOL1         0.0764
      25    H15     19.391900   15.316812   25.440818 H          1 MOL1         0.0764
@<TRIPOS>BOND
    1     1     2    1
    2     1     3    2
    3     1     4    1
    4     4     5    1
    5     4     6    1
    6     4     7    1
    7     7     8    1
    8     7     9    1
    9     7    10    1
   10    10    11    1
   11    10    12    1
   12    10    13    1
   13    13    14    1
   14    13    15    1
   15    13    16    1
   16    16    17    1
   17    16    18    1
   18    16    19    1
   19    19    20    1
   20    19    21    1
   21    19    22    1
   22    22    23    1
   23    22    24    1
   24    22    25    1
@<TRIPOS>SUBSTRUCTURE
       1 MOL1            1 RESIDUE      1      MOL     
@<SCITEGIC>MOL_PROPERTY
VConf Rank
SciTegic.value.IntegerValue
561

@<SCITEGIC>MOL_PROPERTY
Conf_Id
SciTegic.value.IntegerValue
0

@<SCITEGIC>MOL_PROPERTY
Delta U+W
SciTegic.value.DoubleValue
0.000

@<SCITEGIC>MOL_PROPERTY
U+W
SciTegic.value.DoubleValue
-51.629

@<SCITEGIC>MOL_PROPERTY
Grad RMS
SciTegic.value.DoubleValue
0.000000

@<SCITEGIC>MOL_PROPERTY
U
SciTegic.value.DoubleValue
6.586

@<SCITEGIC>MOL_PROPERTY
W
SciTegic.value.DoubleValue
-58.216

@<SCITEGIC>MOL_PROPERTY
W(PB)
SciTegic.value.DoubleValue
-60.757

@<SCITEGIC>MOL_PROPERTY
W(SA)
SciTegic.value.DoubleValue
2.541

@<SCITEGIC>MOL_PROPERTY
Valence
SciTegic.value.DoubleValue
8.027

@<SCITEGIC>MOL_PROPERTY
Coulomb
SciTegic.value.DoubleValue
-2.892

@<SCITEGIC>MOL_PROPERTY
VdW
SciTegic.value.DoubleValue
1.451

@<SCITEGIC>MOL_PROPERTY
VdW6
SciTegic.value.DoubleValue
-7.931

@<SCITEGIC>MOL_PROPERTY
VdW12
SciTegic.value.DoubleValue
9.383

@<SCITEGIC>MOL_PROPERTY
Bond
SciTegic.value.DoubleValue
0.149

@<SCITEGIC>MOL_PROPERTY
Angle
SciTegic.value.DoubleValue
2.726

@<SCITEGIC>MOL_PROPERTY
Pdih
SciTegic.value.DoubleValue
5.152

@<SCITEGIC>MOL_PROPERTY
Idih
SciTegic.value.DoubleValue
0.000

@<SCITEGIC>MOL_PROPERTY
Tether
SciTegic.value.DoubleValue
0.000

@<TRIPOS>MOLECULE
guest-8_confgen4.mol2 : confsearch ligand conformer 562
          25          24           1
SMALL
USER_CHARGES
 
@<TRIPOS>ATOM
       1    C1      23.343629   21.633675   25.435032 C.2        1 MOL1         0.6168
       2    O1      23.289976   21.530055   26.644579 O.co2      1 MOL1        -0.6703
       3    O2      24.376624   21.807653   24.819180 O.co2      1 MOL1        -0.6703
       4    C2      22.045529   21.515861   24.644376 C.3        1 MOL1        -0.1963
       5    H1      22.129568   22.151748   23.754887 H          1 MOL1         0.0750
       6    H2      21.234095   21.923654   25.259100 H          1 MOL1         0.0750
       7    C3      21.723099   20.058617   24.231457 C.3        1 MOL1        -0.1860
       8    H3      22.550861   19.660833   23.627992 H          1 MOL1         0.0752
       9    H4      21.655569   19.432723   25.132173 H          1 MOL1         0.0752
      10    C4      20.404952   19.965622   23.432794 C.3        1 MOL1        -0.1858
      11    H5      20.475307   20.593207   22.533702 H          1 MOL1         0.0752
      12    H6      19.579790   20.365267   24.038246 H          1 MOL1         0.0752
      13    C5      20.086053   18.511788   23.022744 C.3        1 MOL1        -0.1858
      14    H7      20.911033   18.111960   22.417229 H          1 MOL1         0.0752
      15    H8      20.015639   17.884047   23.921681 H          1 MOL1         0.0752
      16    C6      18.768008   18.418006   22.224095 C.3        1 MOL1        -0.1858
      17    H9      18.838138   19.045571   21.325018 H          1 MOL1         0.0752
      18    H10     17.942814   18.817756   22.829363 H          1 MOL1         0.0752
      19    C7      18.449048   16.964866   21.814206 C.3        1 MOL1        -0.1834
      20    H11     19.271576   16.562193   21.206925 H          1 MOL1         0.0752
      21    H12     18.376230   16.334390   22.711250 H          1 MOL1         0.0752
      22    C8      17.132251   16.875443   21.016928 C.3        1 MOL1        -0.2849
      23    H13     16.921145   15.836019   20.733876 H          1 MOL1         0.0764
      24    H14     16.286499   17.242851   21.612840 H          1 MOL1         0.0764
      25    H15     17.188591   17.472369   20.097198 H          1 MOL1         0.0764
@<TRIPOS>BOND
    1     1     2    1
    2     1     3    2
    3     1     4    1
    4     4     5    1
    5     4     6    1
    6     4     7    1
    7     7     8    1
    8     7     9    1
    9     7    10    1
   10    10    11    1
   11    10    12    1
   12    10    13    1
   13    13    14    1
   14    13    15    1
   15    13    16    1
   16    16    17    1
   17    16    18    1
   18    16    19    1
   19    19    20    1
   20    19    21    1
   21    19    22    1
   22    22    23    1
   23    22    24    1
   24    22    25    1
@<TRIPOS>SUBSTRUCTURE
       1 MOL1            1 RESIDUE      1      MOL     
@<SCITEGIC>MOL_PROPERTY
VConf Rank
SciTegic.value.IntegerValue
562

@<SCITEGIC>MOL_PROPERTY
Conf_Id
SciTegic.value.IntegerValue
27

@<SCITEGIC>MOL_PROPERTY
Delta U+W
SciTegic.value.DoubleValue
-1.297

@<SCITEGIC>MOL_PROPERTY
U+W
SciTegic.value.DoubleValue
-52.926

@<SCITEGIC>MOL_PROPERTY
Grad RMS
SciTegic.value.DoubleValue
0.000000

@<SCITEGIC>MOL_PROPERTY
U
SciTegic.value.DoubleValue
5.617

@<SCITEGIC>MOL_PROPERTY
W
SciTegic.value.DoubleValue
-58.543

@<SCITEGIC>MOL_PROPERTY
W(PB)
SciTegic.value.DoubleValue
-61.065

@<SCITEGIC>MOL_PROPERTY
W(SA)
SciTegic.value.DoubleValue
2.522

@<SCITEGIC>MOL_PROPERTY
Valence
SciTegic.value.DoubleValue
7.531

@<SCITEGIC>MOL_PROPERTY
Coulomb
SciTegic.value.DoubleValue
-2.818

@<SCITEGIC>MOL_PROPERTY
VdW
SciTegic.value.DoubleValue
0.904

@<SCITEGIC>MOL_PROPERTY
VdW6
SciTegic.value.DoubleValue
-7.640

@<SCITEGIC>MOL_PROPERTY
VdW12
SciTegic.value.DoubleValue
8.544

@<SCITEGIC>MOL_PROPERTY
Bond
SciTegic.value.DoubleValue
0.115

@<SCITEGIC>MOL_PROPERTY
Angle
SciTegic.value.DoubleValue
2.271

@<SCITEGIC>MOL_PROPERTY
Pdih
SciTegic.value.DoubleValue
5.144

@<SCITEGIC>MOL_PROPERTY
Idih
SciTegic.value.DoubleValue
0.001

@<SCITEGIC>MOL_PROPERTY
Tether
SciTegic.value.DoubleValue
0.000

@<TRIPOS>MOLECULE
guest-8_confgen4.mol2 : confsearch ligand conformer 563
          25          24           1
SMALL
USER_CHARGES
 
@<TRIPOS>ATOM
       1    C1      17.732873   18.450308   26.438772 C.2        1 MOL1         0.6168
       2    O1      17.249737   17.335200   26.452461 O.co2      1 MOL1        -0.6703
       3    O2      18.512021   18.856285   27.278459 O.co2      1 MOL1        -0.6703
       4    C2      17.324165   19.396841   25.313607 C.3        1 MOL1        -0.1963
       5    H1      17.553090   20.424654   25.620268 H          1 MOL1         0.0750
       6    H2      16.234676   19.331708   25.209892 H          1 MOL1         0.0750
       7    C3      17.994213   19.082477   23.950833 C.3        1 MOL1        -0.1860
       8    H3      17.778939   18.041819   23.670903 H          1 MOL1         0.0752
       9    H4      17.542888   19.717850   23.176782 H          1 MOL1         0.0752
      10    C4      19.521963   19.313303   23.972497 C.3        1 MOL1        -0.1858
      11    H5      19.983171   18.667923   24.732888 H          1 MOL1         0.0752
      12    H6      19.732246   20.350953   24.265903 H          1 MOL1         0.0752
      13    C5      20.163303   19.025275   22.597959 C.3        1 MOL1        -0.1858
      14    H7      19.952509   17.987451   22.305429 H          1 MOL1         0.0752
      15    H8      19.705744   19.671685   21.836492 H          1 MOL1         0.0752
      16    C6      21.689963   19.254892   22.619089 C.3        1 MOL1        -0.1858
      17    H9      22.147676   18.608570   23.380598 H          1 MOL1         0.0752
      18    H10     21.900992   20.292573   22.911948 H          1 MOL1         0.0752
      19    C7      22.331542   18.966620   21.245537 C.3        1 MOL1        -0.1834
      20    H11     22.123986   17.928741   20.950225 H          1 MOL1         0.0752
      21    H12     21.877377   19.612814   20.481569 H          1 MOL1         0.0752
      22    C8      23.855984   19.196919   21.270966 C.3        1 MOL1        -0.2849
      23    H13     24.340306   18.539899   22.005238 H          1 MOL1         0.0764
      24    H14     24.295411   18.987466   20.287038 H          1 MOL1         0.0764
      25    H15     24.091866   20.236648   21.533104 H          1 MOL1         0.0764
@<TRIPOS>BOND
    1     1     2    1
    2     1     3    2
    3     1     4    1
    4     4     5    1
    5     4     6    1
    6     4     7    1
    7     7     8    1
    8     7     9    1
    9     7    10    1
   10    10    11    1
   11    10    12    1
   12    10    13    1
   13    13    14    1
   14    13    15    1
   15    13    16    1
   16    16    17    1
   17    16    18    1
   18    16    19    1
   19    19    20    1
   20    19    21    1
   21    19    22    1
   22    22    23    1
   23    22    24    1
   24    22    25    1
@<TRIPOS>SUBSTRUCTURE
       1 MOL1            1 RESIDUE      1      MOL     
@<SCITEGIC>MOL_PROPERTY
VConf Rank
SciTegic.value.IntegerValue
563

@<SCITEGIC>MOL_PROPERTY
Conf_Id
SciTegic.value.IntegerValue
37

@<SCITEGIC>MOL_PROPERTY
Delta U+W
SciTegic.value.DoubleValue
-0.230

@<SCITEGIC>MOL_PROPERTY
U+W
SciTegic.value.DoubleValue
-51.860

@<SCITEGIC>MOL_PROPERTY
Grad RMS
SciTegic.value.DoubleValue
0.000000

@<SCITEGIC>MOL_PROPERTY
U
SciTegic.value.DoubleValue
7.816

@<SCITEGIC>MOL_PROPERTY
W
SciTegic.value.DoubleValue
-59.675

@<SCITEGIC>MOL_PROPERTY
W(PB)
SciTegic.value.DoubleValue
-62.180

@<SCITEGIC>MOL_PROPERTY
W(SA)
SciTegic.value.DoubleValue
2.505

@<SCITEGIC>MOL_PROPERTY
Valence
SciTegic.value.DoubleValue
7.785

@<SCITEGIC>MOL_PROPERTY
Coulomb
SciTegic.value.DoubleValue
-0.713

@<SCITEGIC>MOL_PROPERTY
VdW
SciTegic.value.DoubleValue
0.744

@<SCITEGIC>MOL_PROPERTY
VdW6
SciTegic.value.DoubleValue
-8.514

@<SCITEGIC>MOL_PROPERTY
VdW12
SciTegic.value.DoubleValue
9.259

@<SCITEGIC>MOL_PROPERTY
Bond
SciTegic.value.DoubleValue
0.136

@<SCITEGIC>MOL_PROPERTY
Angle
SciTegic.value.DoubleValue
2.433

@<SCITEGIC>MOL_PROPERTY
Pdih
SciTegic.value.DoubleValue
5.216

@<SCITEGIC>MOL_PROPERTY
Idih
SciTegic.value.DoubleValue
0.000

@<SCITEGIC>MOL_PROPERTY
Tether
SciTegic.value.DoubleValue
0.000

@<TRIPOS>MOLECULE
guest-8_confgen4.mol2 : confsearch ligand conformer 564
          25          24           1
SMALL
USER_CHARGES
 
@<TRIPOS>ATOM
       1    C1      23.177917   18.857429   20.920479 C.2        1 MOL1         0.6168
       2    O1      23.856752   19.859077   20.806647 O.co2      1 MOL1        -0.6703
       3    O2      22.539416   18.370197   20.008402 O.co2      1 MOL1        -0.6703
       4    C2      23.139641   18.165915   22.280374 C.3        1 MOL1        -0.1963
       5    H1      24.171357   18.104600   22.646141 H          1 MOL1         0.0750
       6    H2      22.790885   17.135682   22.139538 H          1 MOL1         0.0750
       7    C3      22.259339   18.890608   23.331484 C.3        1 MOL1        -0.1860
       8    H3      22.398867   18.406826   24.307720 H          1 MOL1         0.0752
       9    H4      22.603318   19.928579   23.440872 H          1 MOL1         0.0752
      10    C4      20.758586   18.872570   22.963811 C.3        1 MOL1        -0.1858
      11    H5      20.422894   17.833521   22.842515 H          1 MOL1         0.0752
      12    H6      20.608522   19.370503   21.995841 H          1 MOL1         0.0752
      13    C5      19.898132   19.571082   24.038673 C.3        1 MOL1        -0.1858
      14    H7      20.044343   19.072993   25.006953 H          1 MOL1         0.0752
      15    H8      20.234480   20.610043   24.159159 H          1 MOL1         0.0752
      16    C6      18.398519   19.554065   23.671622 C.3        1 MOL1        -0.1858
      17    H9      18.062032   18.515191   23.550803 H          1 MOL1         0.0752
      18    H10     18.252148   20.052026   22.703254 H          1 MOL1         0.0752
      19    C7      17.538116   20.252687   24.745401 C.3        1 MOL1        -0.1834
      20    H11     17.680654   19.756002   25.715177 H          1 MOL1         0.0752
      21    H12     17.870714   21.292854   24.867524 H          1 MOL1         0.0752
      22    C8      16.041422   20.233531   24.375073 C.3        1 MOL1        -0.2849
      23    H13     15.674075   19.203522   24.277433 H          1 MOL1         0.0764
      24    H14     15.444936   20.734121   25.148828 H          1 MOL1         0.0764
      25    H15     15.865593   20.751892   23.423346 H          1 MOL1         0.0764
@<TRIPOS>BOND
    1     1     2    1
    2     1     3    2
    3     1     4    1
    4     4     5    1
    5     4     6    1
    6     4     7    1
    7     7     8    1
    8     7     9    1
    9     7    10    1
   10    10    11    1
   11    10    12    1
   12    10    13    1
   13    13    14    1
   14    13    15    1
   15    13    16    1
   16    16    17    1
   17    16    18    1
   18    16    19    1
   19    19    20    1
   20    19    21    1
   21    19    22    1
   22    22    23    1
   23    22    24    1
   24    22    25    1
@<TRIPOS>SUBSTRUCTURE
       1 MOL1            1 RESIDUE      1      MOL     
@<SCITEGIC>MOL_PROPERTY
VConf Rank
SciTegic.value.IntegerValue
564

@<SCITEGIC>MOL_PROPERTY
Conf_Id
SciTegic.value.IntegerValue
54

@<SCITEGIC>MOL_PROPERTY
Delta U+W
SciTegic.value.DoubleValue
-0.224

@<SCITEGIC>MOL_PROPERTY
U+W
SciTegic.value.DoubleValue
-51.854

@<SCITEGIC>MOL_PROPERTY
Grad RMS
SciTegic.value.DoubleValue
0.000000

@<SCITEGIC>MOL_PROPERTY
U
SciTegic.value.DoubleValue
7.816

@<SCITEGIC>MOL_PROPERTY
W
SciTegic.value.DoubleValue
-59.670

@<SCITEGIC>MOL_PROPERTY
W(PB)
SciTegic.value.DoubleValue
-62.157

@<SCITEGIC>MOL_PROPERTY
W(SA)
SciTegic.value.DoubleValue
2.487

@<SCITEGIC>MOL_PROPERTY
Valence
SciTegic.value.DoubleValue
7.785

@<SCITEGIC>MOL_PROPERTY
Coulomb
SciTegic.value.DoubleValue
-0.713

@<SCITEGIC>MOL_PROPERTY
VdW
SciTegic.value.DoubleValue
0.744

@<SCITEGIC>MOL_PROPERTY
VdW6
SciTegic.value.DoubleValue
-8.515

@<SCITEGIC>MOL_PROPERTY
VdW12
SciTegic.value.DoubleValue
9.259

@<SCITEGIC>MOL_PROPERTY
Bond
SciTegic.value.DoubleValue
0.136

@<SCITEGIC>MOL_PROPERTY
Angle
SciTegic.value.DoubleValue
2.433

@<SCITEGIC>MOL_PROPERTY
Pdih
SciTegic.value.DoubleValue
5.215

@<SCITEGIC>MOL_PROPERTY
Idih
SciTegic.value.DoubleValue
0.000

@<SCITEGIC>MOL_PROPERTY
Tether
SciTegic.value.DoubleValue
0.000

@<TRIPOS>MOLECULE
guest-8_confgen4.mol2 : confsearch ligand conformer 565
          25          24           1
SMALL
USER_CHARGES
 
@<TRIPOS>ATOM
       1    C1      18.327042   20.668589   20.030206 C.2        1 MOL1         0.6168
       2    O1      19.229663   21.156355   19.378738 O.co2      1 MOL1        -0.6703
       3    O2      17.498114   19.909404   19.568009 O.co2      1 MOL1        -0.6703
       4    C2      18.215505   21.043148   21.505486 C.3        1 MOL1        -0.1963
       5    H1      17.164555   21.285291   21.702566 H          1 MOL1         0.0750
       6    H2      18.790575   21.960830   21.678647 H          1 MOL1         0.0750
       7    C3      18.680801   19.928088   22.478010 C.3        1 MOL1        -0.1860
       8    H3      18.417547   20.227821   23.500097 H          1 MOL1         0.0752
       9    H4      18.125172   19.004409   22.264720 H          1 MOL1         0.0752
      10    C4      20.202283   19.658179   22.387496 C.3        1 MOL1        -0.1858
      11    H5      20.757364   20.570364   22.645527 H          1 MOL1         0.0752
      12    H6      20.463698   19.421932   21.346905 H          1 MOL1         0.0752
      13    C5      20.678911   18.489905   23.283553 C.3        1 MOL1        -0.1858
      14    H7      20.110359   17.582665   23.038117 H          1 MOL1         0.0752
      15    H8      21.726107   18.277718   23.033495 H          1 MOL1         0.0752
      16    C6      20.563565   18.785916   24.799437 C.3        1 MOL1        -0.1858
      17    H9      19.516081   18.991199   25.053426 H          1 MOL1         0.0752
      18    H10     21.128124   19.696073   25.043370 H          1 MOL1         0.0752
      19    C7      21.051167   17.620330   25.691703 C.3        1 MOL1        -0.1834
      20    H11     20.808505   17.853528   26.737637 H          1 MOL1         0.0752
      21    H12     20.497298   16.704827   25.441936 H          1 MOL1         0.0752
      22    C8      22.568932   17.356575   25.583250 C.3        1 MOL1        -0.2849
      23    H13     22.844517   17.000454   24.582932 H          1 MOL1         0.0764
      24    H14     23.142408   18.268377   25.795039 H          1 MOL1         0.0764
      25    H15     22.877075   16.588759   26.304645 H          1 MOL1         0.0764
@<TRIPOS>BOND
    1     1     2    1
    2     1     3    2
    3     1     4    1
    4     4     5    1
    5     4     6    1
    6     4     7    1
    7     7     8    1
    8     7     9    1
    9     7    10    1
   10    10    11    1
   11    10    12    1
   12    10    13    1
   13    13    14    1
   14    13    15    1
   15    13    16    1
   16    16    17    1
   17    16    18    1
   18    16    19    1
   19    19    20    1
   20    19    21    1
   21    19    22    1
   22    22    23    1
   23    22    24    1
   24    22    25    1
@<TRIPOS>SUBSTRUCTURE
       1 MOL1            1 RESIDUE      1      MOL     
@<SCITEGIC>MOL_PROPERTY
VConf Rank
SciTegic.value.IntegerValue
565

@<SCITEGIC>MOL_PROPERTY
Conf_Id
SciTegic.value.IntegerValue
101

@<SCITEGIC>MOL_PROPERTY
Delta U+W
SciTegic.value.DoubleValue
1.534

@<SCITEGIC>MOL_PROPERTY
U+W
SciTegic.value.DoubleValue
-50.095

@<SCITEGIC>MOL_PROPERTY
Grad RMS
SciTegic.value.DoubleValue
0.000000

@<SCITEGIC>MOL_PROPERTY
U
SciTegic.value.DoubleValue
9.416

@<SCITEGIC>MOL_PROPERTY
W
SciTegic.value.DoubleValue
-59.512

@<SCITEGIC>MOL_PROPERTY
W(PB)
SciTegic.value.DoubleValue
-61.988

@<SCITEGIC>MOL_PROPERTY
W(SA)
SciTegic.value.DoubleValue
2.476

@<SCITEGIC>MOL_PROPERTY
Valence
SciTegic.value.DoubleValue
8.939

@<SCITEGIC>MOL_PROPERTY
Coulomb
SciTegic.value.DoubleValue
-0.615

@<SCITEGIC>MOL_PROPERTY
VdW
SciTegic.value.DoubleValue
1.092

@<SCITEGIC>MOL_PROPERTY
VdW6
SciTegic.value.DoubleValue
-9.710

@<SCITEGIC>MOL_PROPERTY
VdW12
SciTegic.value.DoubleValue
10.802

@<SCITEGIC>MOL_PROPERTY
Bond
SciTegic.value.DoubleValue
0.216

@<SCITEGIC>MOL_PROPERTY
Angle
SciTegic.value.DoubleValue
2.979

@<SCITEGIC>MOL_PROPERTY
Pdih
SciTegic.value.DoubleValue
5.743

@<SCITEGIC>MOL_PROPERTY
Idih
SciTegic.value.DoubleValue
0.000

@<SCITEGIC>MOL_PROPERTY
Tether
SciTegic.value.DoubleValue
0.000

@<TRIPOS>MOLECULE
guest-8_confgen4.mol2 : confsearch ligand conformer 566
          25          24           1
SMALL
USER_CHARGES
 
@<TRIPOS>ATOM
       1    C1      23.769942   19.963392   21.415134 C.2        1 MOL1         0.6168
       2    O1      23.829529   21.158967   21.205886 O.co2      1 MOL1        -0.6703
       3    O2      24.744306   19.238536   21.459587 O.co2      1 MOL1        -0.6703
       4    C2      22.399036   19.342155   21.657723 C.3        1 MOL1        -0.1963
       5    H1      22.421071   18.312513   21.281304 H          1 MOL1         0.0750
       6    H2      21.672014   19.894820   21.052445 H          1 MOL1         0.0750
       7    C3      21.991134   19.356358   23.154042 C.3        1 MOL1        -0.1860
       8    H3      22.789797   18.880708   23.739978 H          1 MOL1         0.0752
       9    H4      21.924391   20.394668   23.507254 H          1 MOL1         0.0752
      10    C4      20.661326   18.619378   23.442450 C.3        1 MOL1        -0.1858
      11    H5      20.535776   18.561455   24.531198 H          1 MOL1         0.0752
      12    H6      20.726908   17.584614   23.079778 H          1 MOL1         0.0752
      13    C5      19.424970   19.314483   22.821037 C.3        1 MOL1        -0.1858
      14    H7      19.358949   20.348346   23.184057 H          1 MOL1         0.0752
      15    H8      19.551828   19.381328   21.733306 H          1 MOL1         0.0752
      16    C6      18.093417   18.570675   23.096849 C.3        1 MOL1        -0.1858
      17    H9      18.147089   17.568530   22.650193 H          1 MOL1         0.0752
      18    H10     17.284211   19.093774   22.569381 H          1 MOL1         0.0752
      19    C7      17.704450   18.430849   24.589703 C.3        1 MOL1        -0.1834
      20    H11     16.752003   17.886836   24.652457 H          1 MOL1         0.0752
      21    H12     18.441081   17.811387   25.117893 H          1 MOL1         0.0752
      22    C8      17.549745   19.786615   25.312134 C.3        1 MOL1        -0.2849
      23    H13     16.834545   20.432596   24.786610 H          1 MOL1         0.0764
      24    H14     17.182601   19.637003   26.335651 H          1 MOL1         0.0764
      25    H15     18.509182   20.315138   25.377112 H          1 MOL1         0.0764
@<TRIPOS>BOND
    1     1     2    1
    2     1     3    2
    3     1     4    1
    4     4     5    1
    5     4     6    1
    6     4     7    1
    7     7     8    1
    8     7     9    1
    9     7    10    1
   10    10    11    1
   11    10    12    1
   12    10    13    1
   13    13    14    1
   14    13    15    1
   15    13    16    1
   16    16    17    1
   17    16    18    1
   18    16    19    1
   19    19    20    1
   20    19    21    1
   21    19    22    1
   22    22    23    1
   23    22    24    1
   24    22    25    1
@<TRIPOS>SUBSTRUCTURE
       1 MOL1            1 RESIDUE      1      MOL     
@<SCITEGIC>MOL_PROPERTY
VConf Rank
SciTegic.value.IntegerValue
566

@<SCITEGIC>MOL_PROPERTY
Conf_Id
SciTegic.value.IntegerValue
75

@<SCITEGIC>MOL_PROPERTY
Delta U+W
SciTegic.value.DoubleValue
1.014

@<SCITEGIC>MOL_PROPERTY
U+W
SciTegic.value.DoubleValue
-50.615

@<SCITEGIC>MOL_PROPERTY
Grad RMS
SciTegic.value.DoubleValue
0.000000

@<SCITEGIC>MOL_PROPERTY
U
SciTegic.value.DoubleValue
8.474

@<SCITEGIC>MOL_PROPERTY
W
SciTegic.value.DoubleValue
-59.089

@<SCITEGIC>MOL_PROPERTY
W(PB)
SciTegic.value.DoubleValue
-61.530

@<SCITEGIC>MOL_PROPERTY
W(SA)
SciTegic.value.DoubleValue
2.441

@<SCITEGIC>MOL_PROPERTY
Valence
SciTegic.value.DoubleValue
9.080

@<SCITEGIC>MOL_PROPERTY
Coulomb
SciTegic.value.DoubleValue
-1.772

@<SCITEGIC>MOL_PROPERTY
VdW
SciTegic.value.DoubleValue
1.165

@<SCITEGIC>MOL_PROPERTY
VdW6
SciTegic.value.DoubleValue
-9.830

@<SCITEGIC>MOL_PROPERTY
VdW12
SciTegic.value.DoubleValue
10.996

@<SCITEGIC>MOL_PROPERTY
Bond
SciTegic.value.DoubleValue
0.240

@<SCITEGIC>MOL_PROPERTY
Angle
SciTegic.value.DoubleValue
3.225

@<SCITEGIC>MOL_PROPERTY
Pdih
SciTegic.value.DoubleValue
5.615

@<SCITEGIC>MOL_PROPERTY
Idih
SciTegic.value.DoubleValue
0.001

@<SCITEGIC>MOL_PROPERTY
Tether
SciTegic.value.DoubleValue
0.000

@<TRIPOS>MOLECULE
guest-8_confgen4.mol2 : confsearch ligand conformer 567
          25          24           1
SMALL
USER_CHARGES
 
@<TRIPOS>ATOM
       1    C1      18.159897   20.464321   19.739553 C.2        1 MOL1         0.6168
       2    O1      17.736479   19.484272   19.159144 O.co2      1 MOL1        -0.6703
       3    O2      17.683449   21.575806   19.620107 O.co2      1 MOL1        -0.6703
       4    C2      19.341083   20.285580   20.686618 C.3        1 MOL1        -0.1963
       5    H1      19.934333   21.207703   20.669201 H          1 MOL1         0.0750
       6    H2      19.976255   19.483734   20.291389 H          1 MOL1         0.0750
       7    C3      18.905663   19.957241   22.135992 C.3        1 MOL1        -0.1860
       8    H3      18.260166   20.762869   22.512545 H          1 MOL1         0.0752
       9    H4      18.301970   19.039044   22.134129 H          1 MOL1         0.0752
      10    C4      20.118840   19.779471   23.074475 C.3        1 MOL1        -0.1858
      11    H5      20.719452   20.699294   23.072796 H          1 MOL1         0.0752
      12    H6      20.763695   18.982211   22.686206 H          1 MOL1         0.0752
      13    C5      19.678587   19.457647   24.522005 C.3        1 MOL1        -0.1858
      14    H7      19.062729   20.291650   24.885427 H          1 MOL1         0.0752
      15    H8      19.031349   18.570131   24.536684 H          1 MOL1         0.0752
      16    C6      20.867738   19.264020   25.497123 C.3        1 MOL1        -0.1858
      17    H9      20.579078   19.676606   26.473502 H          1 MOL1         0.0752
      18    H10     21.731922   19.856408   25.166823 H          1 MOL1         0.0752
      19    C7      21.287401   17.789952   25.720531 C.3        1 MOL1        -0.1834
      20    H11     22.076622   17.764302   26.484496 H          1 MOL1         0.0752
      21    H12     20.440876   17.224942   26.134531 H          1 MOL1         0.0752
      22    C8      21.804646   17.080376   24.451937 C.3        1 MOL1        -0.2849
      23    H13     22.608969   17.657487   23.977627 H          1 MOL1         0.0764
      24    H14     22.201562   16.088067   24.702007 H          1 MOL1         0.0764
      25    H15     20.998419   16.938915   23.721450 H          1 MOL1         0.0764
@<TRIPOS>BOND
    1     1     2    1
    2     1     3    2
    3     1     4    1
    4     4     5    1
    5     4     6    1
    6     4     7    1
    7     7     8    1
    8     7     9    1
    9     7    10    1
   10    10    11    1
   11    10    12    1
   12    10    13    1
   13    13    14    1
   14    13    15    1
   15    13    16    1
   16    16    17    1
   17    16    18    1
   18    16    19    1
   19    19    20    1
   20    19    21    1
   21    19    22    1
   22    22    23    1
   23    22    24    1
   24    22    25    1
@<TRIPOS>SUBSTRUCTURE
       1 MOL1            1 RESIDUE      1      MOL     
@<SCITEGIC>MOL_PROPERTY
VConf Rank
SciTegic.value.IntegerValue
567

@<SCITEGIC>MOL_PROPERTY
Conf_Id
SciTegic.value.IntegerValue
125

@<SCITEGIC>MOL_PROPERTY
Delta U+W
SciTegic.value.DoubleValue
2.314

@<SCITEGIC>MOL_PROPERTY
U+W
SciTegic.value.DoubleValue
-49.315

@<SCITEGIC>MOL_PROPERTY
Grad RMS
SciTegic.value.DoubleValue
0.000000

@<SCITEGIC>MOL_PROPERTY
U
SciTegic.value.DoubleValue
9.740

@<SCITEGIC>MOL_PROPERTY
W
SciTegic.value.DoubleValue
-59.054

@<SCITEGIC>MOL_PROPERTY
W(PB)
SciTegic.value.DoubleValue
-61.488

@<SCITEGIC>MOL_PROPERTY
W(SA)
SciTegic.value.DoubleValue
2.433

@<SCITEGIC>MOL_PROPERTY
Valence
SciTegic.value.DoubleValue
10.506

@<SCITEGIC>MOL_PROPERTY
Coulomb
SciTegic.value.DoubleValue
-1.761

@<SCITEGIC>MOL_PROPERTY
VdW
SciTegic.value.DoubleValue
0.994

@<SCITEGIC>MOL_PROPERTY
VdW6
SciTegic.value.DoubleValue
-9.209

@<SCITEGIC>MOL_PROPERTY
VdW12
SciTegic.value.DoubleValue
10.203

@<SCITEGIC>MOL_PROPERTY
Bond
SciTegic.value.DoubleValue
0.193

@<SCITEGIC>MOL_PROPERTY
Angle
SciTegic.value.DoubleValue
2.979

@<SCITEGIC>MOL_PROPERTY
Pdih
SciTegic.value.DoubleValue
7.334

@<SCITEGIC>MOL_PROPERTY
Idih
SciTegic.value.DoubleValue
0.001

@<SCITEGIC>MOL_PROPERTY
Tether
SciTegic.value.DoubleValue
0.000

@<TRIPOS>MOLECULE
guest-8_confgen4.mol2 : confsearch ligand conformer 568
          25          24           1
SMALL
USER_CHARGES
 
@<TRIPOS>ATOM
       1    C1      18.094520   18.942922   26.854197 C.2        1 MOL1         0.6168
       2    O1      18.156095   20.062837   27.321843 O.co2      1 MOL1        -0.6703
       3    O2      17.645750   17.986477   27.454664 O.co2      1 MOL1        -0.6703
       4    C2      18.632135   18.720361   25.445136 C.3        1 MOL1        -0.1963
       5    H1      18.447357   19.634690   24.870176 H          1 MOL1         0.0750
       6    H2      18.045904   17.918828   24.980126 H          1 MOL1         0.0750
       7    C3      20.140257   18.359045   25.428995 C.3        1 MOL1        -0.1860
       8    H3      20.720957   19.189204   25.854378 H          1 MOL1         0.0752
       9    H4      20.303080   17.496294   26.089749 H          1 MOL1         0.0752
      10    C4      20.678122   18.012596   24.020156 C.3        1 MOL1        -0.1858
      11    H5      20.101864   17.176100   23.601620 H          1 MOL1         0.0752
      12    H6      21.712973   17.657722   24.120444 H          1 MOL1         0.0752
      13    C5      20.648294   19.207667   23.039284 C.3        1 MOL1        -0.1858
      14    H7      19.611100   19.526038   22.879609 H          1 MOL1         0.0752
      15    H8      21.183029   20.059032   23.481777 H          1 MOL1         0.0752
      16    C6      21.290497   18.844932   21.680165 C.3        1 MOL1        -0.1858
      17    H9      20.729022   18.024284   21.213078 H          1 MOL1         0.0752
      18    H10     22.307117   18.466744   21.854234 H          1 MOL1         0.0752
      19    C7      21.372785   20.038721   20.700412 C.3        1 MOL1        -0.1834
      20    H11     21.938528   20.859569   21.162419 H          1 MOL1         0.0752
      21    H12     21.943971   19.728596   19.814526 H          1 MOL1         0.0752
      22    C8      19.989852   20.552966   20.244745 C.3        1 MOL1        -0.2849
      23    H13     19.426211   20.982923   21.082082 H          1 MOL1         0.0764
      24    H14     20.103261   21.336273   19.484177 H          1 MOL1         0.0764
      25    H15     19.393273   19.741589   19.807860 H          1 MOL1         0.0764
@<TRIPOS>BOND
    1     1     2    1
    2     1     3    2
    3     1     4    1
    4     4     5    1
    5     4     6    1
    6     4     7    1
    7     7     8    1
    8     7     9    1
    9     7    10    1
   10    10    11    1
   11    10    12    1
   12    10    13    1
   13    13    14    1
   14    13    15    1
   15    13    16    1
   16    16    17    1
   17    16    18    1
   18    16    19    1
   19    19    20    1
   20    19    21    1
   21    19    22    1
   22    22    23    1
   23    22    24    1
   24    22    25    1
@<TRIPOS>SUBSTRUCTURE
       1 MOL1            1 RESIDUE      1      MOL     
@<SCITEGIC>MOL_PROPERTY
VConf Rank
SciTegic.value.IntegerValue
568

@<SCITEGIC>MOL_PROPERTY
Conf_Id
SciTegic.value.IntegerValue
4

@<SCITEGIC>MOL_PROPERTY
Delta U+W
SciTegic.value.DoubleValue
0.189

@<SCITEGIC>MOL_PROPERTY
U+W
SciTegic.value.DoubleValue
-51.441

@<SCITEGIC>MOL_PROPERTY
Grad RMS
SciTegic.value.DoubleValue
0.000000

@<SCITEGIC>MOL_PROPERTY
U
SciTegic.value.DoubleValue
7.701

@<SCITEGIC>MOL_PROPERTY
W
SciTegic.value.DoubleValue
-59.141

@<SCITEGIC>MOL_PROPERTY
W(PB)
SciTegic.value.DoubleValue
-61.609

@<SCITEGIC>MOL_PROPERTY
W(SA)
SciTegic.value.DoubleValue
2.467

@<SCITEGIC>MOL_PROPERTY
Valence
SciTegic.value.DoubleValue
8.550

@<SCITEGIC>MOL_PROPERTY
Coulomb
SciTegic.value.DoubleValue
-1.988

@<SCITEGIC>MOL_PROPERTY
VdW
SciTegic.value.DoubleValue
1.139

@<SCITEGIC>MOL_PROPERTY
VdW6
SciTegic.value.DoubleValue
-8.988

@<SCITEGIC>MOL_PROPERTY
VdW12
SciTegic.value.DoubleValue
10.127

@<SCITEGIC>MOL_PROPERTY
Bond
SciTegic.value.DoubleValue
0.191

@<SCITEGIC>MOL_PROPERTY
Angle
SciTegic.value.DoubleValue
2.738

@<SCITEGIC>MOL_PROPERTY
Pdih
SciTegic.value.DoubleValue
5.621

@<SCITEGIC>MOL_PROPERTY
Idih
SciTegic.value.DoubleValue
0.001

@<SCITEGIC>MOL_PROPERTY
Tether
SciTegic.value.DoubleValue
0.000

@<TRIPOS>MOLECULE
guest-8_confgen4.mol2 : confsearch ligand conformer 569
          25          24           1
SMALL
USER_CHARGES
 
@<TRIPOS>ATOM
       1    C1      16.068174   19.643143   24.185747 C.2        1 MOL1         0.6168
       2    O1      15.771477   20.757619   23.802852 O.co2      1 MOL1        -0.6703
       3    O2      15.258738   18.834123   24.594454 O.co2      1 MOL1        -0.6703
       4    C2      17.534024   19.228416   24.128233 C.3        1 MOL1        -0.1963
       5    H1      17.721809   18.527942   24.950686 H          1 MOL1         0.0750
       6    H2      18.140216   20.121660   24.316295 H          1 MOL1         0.0750
       7    C3      17.920824   18.579688   22.773694 C.3        1 MOL1        -0.1860
       8    H3      17.232789   17.746869   22.572528 H          1 MOL1         0.0752
       9    H4      17.772819   19.306703   21.963216 H          1 MOL1         0.0752
      10    C4      19.371816   18.043580   22.736734 C.3        1 MOL1        -0.1858
      11    H5      19.518362   17.501279   21.792623 H          1 MOL1         0.0752
      12    H6      19.513690   17.309765   23.541941 H          1 MOL1         0.0752
      13    C5      20.441239   19.154688   22.850614 C.3        1 MOL1        -0.1858
      14    H7      20.266782   19.912817   22.075135 H          1 MOL1         0.0752
      15    H8      20.346486   19.657699   23.820474 H          1 MOL1         0.0752
      16    C6      21.871502   18.585584   22.703403 C.3        1 MOL1        -0.1858
      17    H9      21.939822   18.029148   21.758652 H          1 MOL1         0.0752
      18    H10     22.065654   17.860958   23.505967 H          1 MOL1         0.0752
      19    C7      22.970525   19.673652   22.711895 C.3        1 MOL1        -0.1834
      20    H11     23.935938   19.200928   22.484437 H          1 MOL1         0.0752
      21    H12     22.782334   20.397406   21.906866 H          1 MOL1         0.0752
      22    C8      23.086553   20.415839   24.061074 C.3        1 MOL1        -0.2849
      23    H13     23.243476   19.708993   24.886213 H          1 MOL1         0.0764
      24    H14     23.936284   21.110529   24.045033 H          1 MOL1         0.0764
      25    H15     22.183731   21.001154   24.275563 H          1 MOL1         0.0764
@<TRIPOS>BOND
    1     1     2    1
    2     1     3    2
    3     1     4    1
    4     4     5    1
    5     4     6    1
    6     4     7    1
    7     7     8    1
    8     7     9    1
    9     7    10    1
   10    10    11    1
   11    10    12    1
   12    10    13    1
   13    13    14    1
   14    13    15    1
   15    13    16    1
   16    16    17    1
   17    16    18    1
   18    16    19    1
   19    19    20    1
   20    19    21    1
   21    19    22    1
   22    22    23    1
   23    22    24    1
   24    22    25    1
@<TRIPOS>SUBSTRUCTURE
       1 MOL1            1 RESIDUE      1      MOL     
@<SCITEGIC>MOL_PROPERTY
VConf Rank
SciTegic.value.IntegerValue
569

@<SCITEGIC>MOL_PROPERTY
Conf_Id
SciTegic.value.IntegerValue
17

@<SCITEGIC>MOL_PROPERTY
Delta U+W
SciTegic.value.DoubleValue
0.219

@<SCITEGIC>MOL_PROPERTY
U+W
SciTegic.value.DoubleValue
-51.411

@<SCITEGIC>MOL_PROPERTY
Grad RMS
SciTegic.value.DoubleValue
0.000000

@<SCITEGIC>MOL_PROPERTY
U
SciTegic.value.DoubleValue
7.701

@<SCITEGIC>MOL_PROPERTY
W
SciTegic.value.DoubleValue
-59.111

@<SCITEGIC>MOL_PROPERTY
W(PB)
SciTegic.value.DoubleValue
-61.599

@<SCITEGIC>MOL_PROPERTY
W(SA)
SciTegic.value.DoubleValue
2.488

@<SCITEGIC>MOL_PROPERTY
Valence
SciTegic.value.DoubleValue
8.550

@<SCITEGIC>MOL_PROPERTY
Coulomb
SciTegic.value.DoubleValue
-1.988

@<SCITEGIC>MOL_PROPERTY
VdW
SciTegic.value.DoubleValue
1.139

@<SCITEGIC>MOL_PROPERTY
VdW6
SciTegic.value.DoubleValue
-8.988

@<SCITEGIC>MOL_PROPERTY
VdW12
SciTegic.value.DoubleValue
10.127

@<SCITEGIC>MOL_PROPERTY
Bond
SciTegic.value.DoubleValue
0.191

@<SCITEGIC>MOL_PROPERTY
Angle
SciTegic.value.DoubleValue
2.738

@<SCITEGIC>MOL_PROPERTY
Pdih
SciTegic.value.DoubleValue
5.621

@<SCITEGIC>MOL_PROPERTY
Idih
SciTegic.value.DoubleValue
0.001

@<SCITEGIC>MOL_PROPERTY
Tether
SciTegic.value.DoubleValue
0.000

@<TRIPOS>MOLECULE
guest-8_confgen4.mol2 : confsearch ligand conformer 570
          25          24           1
SMALL
USER_CHARGES
 
@<TRIPOS>ATOM
       1    C1      19.227213   15.629967   23.099730 C.2        1 MOL1         0.6168
       2    O1      20.186754   14.972027   23.451094 O.co2      1 MOL1        -0.6703
       3    O2      18.789868   15.629373   21.965797 O.co2      1 MOL1        -0.6703
       4    C2      18.519143   16.490071   24.142701 C.3        1 MOL1        -0.1963
       5    H1      18.783682   16.119131   25.140297 H          1 MOL1         0.0750
       6    H2      17.441002   16.332470   24.021219 H          1 MOL1         0.0750
       7    C3      18.837449   18.003710   24.031004 C.3        1 MOL1        -0.1860
       8    H3      18.582616   18.346726   23.019536 H          1 MOL1         0.0752
       9    H4      18.191588   18.556433   24.726436 H          1 MOL1         0.0752
      10    C4      20.318616   18.321909   24.346668 C.3        1 MOL1        -0.1858
      11    H5      20.970846   17.829679   23.612075 H          1 MOL1         0.0752
      12    H6      20.575415   17.892349   25.324615 H          1 MOL1         0.0752
      13    C5      20.630029   19.837076   24.378496 C.3        1 MOL1        -0.1858
      14    H7      19.985134   20.330053   25.118721 H          1 MOL1         0.0752
      15    H8      21.662949   19.972355   24.727261 H          1 MOL1         0.0752
      16    C6      20.469438   20.527820   23.004409 C.3        1 MOL1        -0.1858
      17    H9      19.424128   20.468028   22.674741 H          1 MOL1         0.0752
      18    H10     21.073243   19.998413   22.254715 H          1 MOL1         0.0752
      19    C7      20.897424   22.009628   23.057505 C.3        1 MOL1        -0.1834
      20    H11     20.296433   22.541693   23.807955 H          1 MOL1         0.0752
      21    H12     21.945866   22.081661   23.378449 H          1 MOL1         0.0752
      22    C8      20.733204   22.697998   21.687504 C.3        1 MOL1        -0.2849
      23    H13     19.686819   22.669289   21.356388 H          1 MOL1         0.0764
      24    H14     21.042218   23.749870   21.743458 H          1 MOL1         0.0764
      25    H15     21.348125   22.204202   20.923687 H          1 MOL1         0.0764
@<TRIPOS>BOND
    1     1     2    1
    2     1     3    2
    3     1     4    1
    4     4     5    1
    5     4     6    1
    6     4     7    1
    7     7     8    1
    8     7     9    1
    9     7    10    1
   10    10    11    1
   11    10    12    1
   12    10    13    1
   13    13    14    1
   14    13    15    1
   15    13    16    1
   16    16    17    1
   17    16    18    1
   18    16    19    1
   19    19    20    1
   20    19    21    1
   21    19    22    1
   22    22    23    1
   23    22    24    1
   24    22    25    1
@<TRIPOS>SUBSTRUCTURE
       1 MOL1            1 RESIDUE      1      MOL     
@<SCITEGIC>MOL_PROPERTY
VConf Rank
SciTegic.value.IntegerValue
570

@<SCITEGIC>MOL_PROPERTY
Conf_Id
SciTegic.value.IntegerValue
142

@<SCITEGIC>MOL_PROPERTY
Delta U+W
SciTegic.value.DoubleValue
0.593

@<SCITEGIC>MOL_PROPERTY
U+W
SciTegic.value.DoubleValue
-51.037

@<SCITEGIC>MOL_PROPERTY
Grad RMS
SciTegic.value.DoubleValue
0.000000

@<SCITEGIC>MOL_PROPERTY
U
SciTegic.value.DoubleValue
8.903

@<SCITEGIC>MOL_PROPERTY
W
SciTegic.value.DoubleValue
-59.940

@<SCITEGIC>MOL_PROPERTY
W(PB)
SciTegic.value.DoubleValue
-62.418

@<SCITEGIC>MOL_PROPERTY
W(SA)
SciTegic.value.DoubleValue
2.478

@<SCITEGIC>MOL_PROPERTY
Valence
SciTegic.value.DoubleValue
8.305

@<SCITEGIC>MOL_PROPERTY
Coulomb
SciTegic.value.DoubleValue
-0.223

@<SCITEGIC>MOL_PROPERTY
VdW
SciTegic.value.DoubleValue
0.821

@<SCITEGIC>MOL_PROPERTY
VdW6
SciTegic.value.DoubleValue
-9.236

@<SCITEGIC>MOL_PROPERTY
VdW12
SciTegic.value.DoubleValue
10.057

@<SCITEGIC>MOL_PROPERTY
Bond
SciTegic.value.DoubleValue
0.173

@<SCITEGIC>MOL_PROPERTY
Angle
SciTegic.value.DoubleValue
2.663

@<SCITEGIC>MOL_PROPERTY
Pdih
SciTegic.value.DoubleValue
5.469

@<SCITEGIC>MOL_PROPERTY
Idih
SciTegic.value.DoubleValue
0.001

@<SCITEGIC>MOL_PROPERTY
Tether
SciTegic.value.DoubleValue
0.000

@<TRIPOS>MOLECULE
guest-8_confgen4.mol2 : confsearch ligand conformer 571
          25          24           1
SMALL
USER_CHARGES
 
@<TRIPOS>ATOM
       1    C1      22.408472   18.012643   20.892427 C.2        1 MOL1         0.6168
       2    O1      23.556722   17.633890   20.767419 O.co2      1 MOL1        -0.6703
       3    O2      21.460168   17.470057   20.360096 O.co2      1 MOL1        -0.6703
       4    C2      22.149767   19.253550   21.742225 C.3        1 MOL1        -0.1963
       5    H1      21.138268   19.619233   21.531407 H          1 MOL1         0.0750
       6    H2      22.839617   20.033390   21.399478 H          1 MOL1         0.0750
       7    C3      22.343265   19.029441   23.266845 C.3        1 MOL1        -0.1860
       8    H3      23.384727   18.730625   23.449171 H          1 MOL1         0.0752
       9    H4      22.208129   19.983454   23.792626 H          1 MOL1         0.0752
      10    C4      21.405755   17.957705   23.880929 C.3        1 MOL1        -0.1858
      11    H5      21.624689   17.870773   24.953825 H          1 MOL1         0.0752
      12    H6      21.647071   16.978988   23.443932 H          1 MOL1         0.0752
      13    C5      19.889995   18.220982   23.697944 C.3        1 MOL1        -0.1858
      14    H7      19.633443   18.199324   22.630298 H          1 MOL1         0.0752
      15    H8      19.337633   17.390868   24.158747 H          1 MOL1         0.0752
      16    C6      19.413417   19.551372   24.325322 C.3        1 MOL1        -0.1858
      17    H9      19.903379   20.396647   23.824771 H          1 MOL1         0.0752
      18    H10     19.711382   19.586477   25.382043 H          1 MOL1         0.0752
      19    C7      17.883268   19.718230   24.214686 C.3        1 MOL1        -0.1834
      20    H11     17.582770   19.680733   23.158385 H          1 MOL1         0.0752
      21    H12     17.381430   18.881106   24.719419 H          1 MOL1         0.0752
      22    C8      17.410280   21.048185   24.835327 C.3        1 MOL1        -0.2849
      23    H13     17.872584   21.904847   24.327614 H          1 MOL1         0.0764
      24    H14     16.320766   21.150045   24.748054 H          1 MOL1         0.0764
      25    H15     17.671345   21.099199   25.900501 H          1 MOL1         0.0764
@<TRIPOS>BOND
    1     1     2    1
    2     1     3    2
    3     1     4    1
    4     4     5    1
    5     4     6    1
    6     4     7    1
    7     7     8    1
    8     7     9    1
    9     7    10    1
   10    10    11    1
   11    10    12    1
   12    10    13    1
   13    13    14    1
   14    13    15    1
   15    13    16    1
   16    16    17    1
   17    16    18    1
   18    16    19    1
   19    19    20    1
   20    19    21    1
   21    19    22    1
   22    22    23    1
   23    22    24    1
   24    22    25    1
@<TRIPOS>SUBSTRUCTURE
       1 MOL1            1 RESIDUE      1      MOL     
@<SCITEGIC>MOL_PROPERTY
VConf Rank
SciTegic.value.IntegerValue
571

@<SCITEGIC>MOL_PROPERTY
Conf_Id
SciTegic.value.IntegerValue
135

@<SCITEGIC>MOL_PROPERTY
Delta U+W
SciTegic.value.DoubleValue
1.314

@<SCITEGIC>MOL_PROPERTY
U+W
SciTegic.value.DoubleValue
-50.316

@<SCITEGIC>MOL_PROPERTY
Grad RMS
SciTegic.value.DoubleValue
0.000000

@<SCITEGIC>MOL_PROPERTY
U
SciTegic.value.DoubleValue
9.773

@<SCITEGIC>MOL_PROPERTY
W
SciTegic.value.DoubleValue
-60.088

@<SCITEGIC>MOL_PROPERTY
W(PB)
SciTegic.value.DoubleValue
-62.535

@<SCITEGIC>MOL_PROPERTY
W(SA)
SciTegic.value.DoubleValue
2.447

@<SCITEGIC>MOL_PROPERTY
Valence
SciTegic.value.DoubleValue
8.741

@<SCITEGIC>MOL_PROPERTY
Coulomb
SciTegic.value.DoubleValue
0.479

@<SCITEGIC>MOL_PROPERTY
VdW
SciTegic.value.DoubleValue
0.552

@<SCITEGIC>MOL_PROPERTY
VdW6
SciTegic.value.DoubleValue
-10.627

@<SCITEGIC>MOL_PROPERTY
VdW12
SciTegic.value.DoubleValue
11.179

@<SCITEGIC>MOL_PROPERTY
Bond
SciTegic.value.DoubleValue
0.227

@<SCITEGIC>MOL_PROPERTY
Angle
SciTegic.value.DoubleValue
3.155

@<SCITEGIC>MOL_PROPERTY
Pdih
SciTegic.value.DoubleValue
5.358

@<SCITEGIC>MOL_PROPERTY
Idih
SciTegic.value.DoubleValue
0.001

@<SCITEGIC>MOL_PROPERTY
Tether
SciTegic.value.DoubleValue
0.000

@<TRIPOS>MOLECULE
guest-8_confgen4.mol2 : confsearch ligand conformer 572
          25          24           1
SMALL
USER_CHARGES
 
@<TRIPOS>ATOM
       1    C1      18.763864   18.550307   27.204037 C.2        1 MOL1         0.6168
       2    O1      19.451675   17.764323   27.825235 O.co2      1 MOL1        -0.6703
       3    O2      18.014450   19.350004   27.729045 O.co2      1 MOL1        -0.6703
       4    C2      18.863478   18.548581   25.682769 C.3        1 MOL1        -0.1963
       5    H1      17.886575   18.838791   25.278065 H          1 MOL1         0.0750
       6    H2      19.054913   17.518176   25.363723 H          1 MOL1         0.0750
       7    C3      19.966500   19.502085   25.153618 C.3        1 MOL1        -0.1860
       8    H3      19.794850   20.502896   25.573569 H          1 MOL1         0.0752
       9    H4      20.946848   19.174119   25.525958 H          1 MOL1         0.0752
      10    C4      20.002887   19.614575   23.610583 C.3        1 MOL1        -0.1858
      11    H5      20.700726   20.419728   23.348405 H          1 MOL1         0.0752
      12    H6      19.014925   19.918150   23.238625 H          1 MOL1         0.0752
      13    C5      20.451376   18.311055   22.907622 C.3        1 MOL1        -0.1858
      14    H7      21.464115   18.047149   23.241250 H          1 MOL1         0.0752
      15    H8      19.799767   17.484359   23.216579 H          1 MOL1         0.0752
      16    C6      20.421987   18.381914   21.359855 C.3        1 MOL1        -0.1858
      17    H9      19.394434   18.552649   21.010725 H          1 MOL1         0.0752
      18    H10     20.704983   17.391149   20.978842 H          1 MOL1         0.0752
      19    C7      21.380767   19.428424   20.738759 C.3        1 MOL1        -0.1834
      20    H11     22.231077   19.612438   21.409837 H          1 MOL1         0.0752
      21    H12     21.805843   19.011531   19.815280 H          1 MOL1         0.0752
      22    C8      20.680109   20.758945   20.383710 C.3        1 MOL1        -0.2849
      23    H13     20.238570   21.235959   21.266103 H          1 MOL1         0.0764
      24    H14     21.396384   21.464753   19.943719 H          1 MOL1         0.0764
      25    H15     19.878611   20.594318   19.651877 H          1 MOL1         0.0764
@<TRIPOS>BOND
    1     1     2    1
    2     1     3    2
    3     1     4    1
    4     4     5    1
    5     4     6    1
    6     4     7    1
    7     7     8    1
    8     7     9    1
    9     7    10    1
   10    10    11    1
   11    10    12    1
   12    10    13    1
   13    13    14    1
   14    13    15    1
   15    13    16    1
   16    16    17    1
   17    16    18    1
   18    16    19    1
   19    19    20    1
   20    19    21    1
   21    19    22    1
   22    22    23    1
   23    22    24    1
   24    22    25    1
@<TRIPOS>SUBSTRUCTURE
       1 MOL1            1 RESIDUE      1      MOL     
@<SCITEGIC>MOL_PROPERTY
VConf Rank
SciTegic.value.IntegerValue
572

@<SCITEGIC>MOL_PROPERTY
Conf_Id
SciTegic.value.IntegerValue
19

@<SCITEGIC>MOL_PROPERTY
Delta U+W
SciTegic.value.DoubleValue
3.222

@<SCITEGIC>MOL_PROPERTY
U+W
SciTegic.value.DoubleValue
-48.407

@<SCITEGIC>MOL_PROPERTY
Grad RMS
SciTegic.value.DoubleValue
0.000000

@<SCITEGIC>MOL_PROPERTY
U
SciTegic.value.DoubleValue
10.617

@<SCITEGIC>MOL_PROPERTY
W
SciTegic.value.DoubleValue
-59.025

@<SCITEGIC>MOL_PROPERTY
W(PB)
SciTegic.value.DoubleValue
-61.462

@<SCITEGIC>MOL_PROPERTY
W(SA)
SciTegic.value.DoubleValue
2.437

@<SCITEGIC>MOL_PROPERTY
Valence
SciTegic.value.DoubleValue
11.188

@<SCITEGIC>MOL_PROPERTY
Coulomb
SciTegic.value.DoubleValue
-1.778

@<SCITEGIC>MOL_PROPERTY
VdW
SciTegic.value.DoubleValue
1.208

@<SCITEGIC>MOL_PROPERTY
VdW6
SciTegic.value.DoubleValue
-9.786

@<SCITEGIC>MOL_PROPERTY
VdW12
SciTegic.value.DoubleValue
10.993

@<SCITEGIC>MOL_PROPERTY
Bond
SciTegic.value.DoubleValue
0.241

@<SCITEGIC>MOL_PROPERTY
Angle
SciTegic.value.DoubleValue
3.294

@<SCITEGIC>MOL_PROPERTY
Pdih
SciTegic.value.DoubleValue
7.653

@<SCITEGIC>MOL_PROPERTY
Idih
SciTegic.value.DoubleValue
0.001

@<SCITEGIC>MOL_PROPERTY
Tether
SciTegic.value.DoubleValue
0.000

@<TRIPOS>MOLECULE
guest-8_confgen4.mol2 : confsearch ligand conformer 573
          25          24           1
SMALL
USER_CHARGES
 
@<TRIPOS>ATOM
       1    C1      22.961256   21.790827   24.933994 C.2        1 MOL1         0.6168
       2    O1      23.805458   22.159125   24.141265 O.co2      1 MOL1        -0.6703
       3    O2      23.105742   21.834394   26.139812 O.co2      1 MOL1        -0.6703
       4    C2      21.658034   21.220941   24.385338 C.3        1 MOL1        -0.1963
       5    H1      21.432028   21.748120   23.451970 H          1 MOL1         0.0750
       6    H2      20.857517   21.458799   25.095932 H          1 MOL1         0.0750
       7    C3      21.726340   19.689453   24.149314 C.3        1 MOL1        -0.1860
       8    H3      22.498557   19.466094   23.400265 H          1 MOL1         0.0752
       9    H4      22.050106   19.205867   25.081390 H          1 MOL1         0.0752
      10    C4      20.378089   19.067099   23.713618 C.3        1 MOL1        -0.1858
      11    H5      19.601971   19.312889   24.451050 H          1 MOL1         0.0752
      12    H6      20.491814   17.975812   23.725825 H          1 MOL1         0.0752
      13    C5      19.921736   19.509825   22.302873 C.3        1 MOL1        -0.1858
      14    H7      19.870110   20.604820   22.260453 H          1 MOL1         0.0752
      15    H8      20.676504   19.207511   21.564275 H          1 MOL1         0.0752
      16    C6      18.537712   18.955476   21.880207 C.3        1 MOL1        -0.1858
      17    H9      18.300118   19.378106   20.894406 H          1 MOL1         0.0752
      18    H10     17.759530   19.329248   22.559643 H          1 MOL1         0.0752
      19    C7      18.460795   17.411815   21.773449 C.3        1 MOL1        -0.1834
      20    H11     17.825167   17.149797   20.916346 H          1 MOL1         0.0752
      21    H12     19.453593   16.994532   21.555591 H          1 MOL1         0.0752
      22    C8      17.863275   16.744852   23.032574 C.3        1 MOL1        -0.2849
      23    H13     16.839668   17.098336   23.212460 H          1 MOL1         0.0764
      24    H14     17.824863   15.654945   22.908349 H          1 MOL1         0.0764
      25    H15     18.456663   16.959291   23.928690 H          1 MOL1         0.0764
@<TRIPOS>BOND
    1     1     2    1
    2     1     3    2
    3     1     4    1
    4     4     5    1
    5     4     6    1
    6     4     7    1
    7     7     8    1
    8     7     9    1
    9     7    10    1
   10    10    11    1
   11    10    12    1
   12    10    13    1
   13    13    14    1
   14    13    15    1
   15    13    16    1
   16    16    17    1
   17    16    18    1
   18    16    19    1
   19    19    20    1
   20    19    21    1
   21    19    22    1
   22    22    23    1
   23    22    24    1
   24    22    25    1
@<TRIPOS>SUBSTRUCTURE
       1 MOL1            1 RESIDUE      1      MOL     
@<SCITEGIC>MOL_PROPERTY
VConf Rank
SciTegic.value.IntegerValue
573

@<SCITEGIC>MOL_PROPERTY
Conf_Id
SciTegic.value.IntegerValue
20

@<SCITEGIC>MOL_PROPERTY
Delta U+W
SciTegic.value.DoubleValue
3.224

@<SCITEGIC>MOL_PROPERTY
U+W
SciTegic.value.DoubleValue
-48.406

@<SCITEGIC>MOL_PROPERTY
Grad RMS
SciTegic.value.DoubleValue
0.000000

@<SCITEGIC>MOL_PROPERTY
U
SciTegic.value.DoubleValue
10.617

@<SCITEGIC>MOL_PROPERTY
W
SciTegic.value.DoubleValue
-59.023

@<SCITEGIC>MOL_PROPERTY
W(PB)
SciTegic.value.DoubleValue
-61.467

@<SCITEGIC>MOL_PROPERTY
W(SA)
SciTegic.value.DoubleValue
2.444

@<SCITEGIC>MOL_PROPERTY
Valence
SciTegic.value.DoubleValue
11.188

@<SCITEGIC>MOL_PROPERTY
Coulomb
SciTegic.value.DoubleValue
-1.778

@<SCITEGIC>MOL_PROPERTY
VdW
SciTegic.value.DoubleValue
1.208

@<SCITEGIC>MOL_PROPERTY
VdW6
SciTegic.value.DoubleValue
-9.786

@<SCITEGIC>MOL_PROPERTY
VdW12
SciTegic.value.DoubleValue
10.993

@<SCITEGIC>MOL_PROPERTY
Bond
SciTegic.value.DoubleValue
0.241

@<SCITEGIC>MOL_PROPERTY
Angle
SciTegic.value.DoubleValue
3.294

@<SCITEGIC>MOL_PROPERTY
Pdih
SciTegic.value.DoubleValue
7.653

@<SCITEGIC>MOL_PROPERTY
Idih
SciTegic.value.DoubleValue
0.001

@<SCITEGIC>MOL_PROPERTY
Tether
SciTegic.value.DoubleValue
0.000

@<TRIPOS>MOLECULE
guest-8_confgen4.mol2 : confsearch ligand conformer 574
          25          24           1
SMALL
USER_CHARGES
 
@<TRIPOS>ATOM
       1    C1      16.936106   18.045127   23.799145 C.2        1 MOL1         0.6168
       2    O1      16.998208   17.171229   24.641815 O.co2      1 MOL1        -0.6703
       3    O2      16.909678   17.823956   22.604322 O.co2      1 MOL1        -0.6703
       4    C2      16.818363   19.494959   24.265529 C.3        1 MOL1        -0.1963
       5    H1      15.872044   19.566139   24.814055 H          1 MOL1         0.0750
       6    H2      16.721872   20.145143   23.387611 H          1 MOL1         0.0750
       7    C3      17.972232   19.993244   25.180628 C.3        1 MOL1        -0.1860
       8    H3      17.611844   20.871746   25.732701 H          1 MOL1         0.0752
       9    H4      18.202833   19.233180   25.940048 H          1 MOL1         0.0752
      10    C4      19.264101   20.404385   24.431546 C.3        1 MOL1        -0.1858
      11    H5      19.942947   20.876817   25.154705 H          1 MOL1         0.0752
      12    H6      19.028504   21.172471   23.682298 H          1 MOL1         0.0752
      13    C5      20.001588   19.227161   23.754135 C.3        1 MOL1        -0.1858
      14    H7      20.144336   18.414695   24.479785 H          1 MOL1         0.0752
      15    H8      19.389735   18.824760   22.936998 H          1 MOL1         0.0752
      16    C6      21.370754   19.661249   23.187107 C.3        1 MOL1        -0.1858
      17    H9      21.995872   20.058543   23.998495 H          1 MOL1         0.0752
      18    H10     21.226450   20.476919   22.465379 H          1 MOL1         0.0752
      19    C7      22.102947   18.489168   22.500452 C.3        1 MOL1        -0.1834
      20    H11     22.249557   17.671786   23.220070 H          1 MOL1         0.0752
      21    H12     21.481226   18.090123   21.686921 H          1 MOL1         0.0752
      22    C8      23.469393   18.925663   21.934797 C.3        1 MOL1        -0.2849
      23    H13     24.123472   19.300146   22.733116 H          1 MOL1         0.0764
      24    H14     23.975495   18.080440   21.450523 H          1 MOL1         0.0764
      25    H15     23.349254   19.721673   21.188266 H          1 MOL1         0.0764
@<TRIPOS>BOND
    1     1     2    1
    2     1     3    2
    3     1     4    1
    4     4     5    1
    5     4     6    1
    6     4     7    1
    7     7     8    1
    8     7     9    1
    9     7    10    1
   10    10    11    1
   11    10    12    1
   12    10    13    1
   13    13    14    1
   14    13    15    1
   15    13    16    1
   16    16    17    1
   17    16    18    1
   18    16    19    1
   19    19    20    1
   20    19    21    1
   21    19    22    1
   22    22    23    1
   23    22    24    1
   24    22    25    1
@<TRIPOS>SUBSTRUCTURE
       1 MOL1            1 RESIDUE      1      MOL     
@<SCITEGIC>MOL_PROPERTY
VConf Rank
SciTegic.value.IntegerValue
574

@<SCITEGIC>MOL_PROPERTY
Conf_Id
SciTegic.value.IntegerValue
24

@<SCITEGIC>MOL_PROPERTY
Delta U+W
SciTegic.value.DoubleValue
1.784

@<SCITEGIC>MOL_PROPERTY
U+W
SciTegic.value.DoubleValue
-49.846

@<SCITEGIC>MOL_PROPERTY
Grad RMS
SciTegic.value.DoubleValue
0.000000

@<SCITEGIC>MOL_PROPERTY
U
SciTegic.value.DoubleValue
10.904

@<SCITEGIC>MOL_PROPERTY
W
SciTegic.value.DoubleValue
-60.749

@<SCITEGIC>MOL_PROPERTY
W(PB)
SciTegic.value.DoubleValue
-63.220

@<SCITEGIC>MOL_PROPERTY
W(SA)
SciTegic.value.DoubleValue
2.471

@<SCITEGIC>MOL_PROPERTY
Valence
SciTegic.value.DoubleValue
9.445

@<SCITEGIC>MOL_PROPERTY
Coulomb
SciTegic.value.DoubleValue
0.780

@<SCITEGIC>MOL_PROPERTY
VdW
SciTegic.value.DoubleValue
0.679

@<SCITEGIC>MOL_PROPERTY
VdW6
SciTegic.value.DoubleValue
-10.008

@<SCITEGIC>MOL_PROPERTY
VdW12
SciTegic.value.DoubleValue
10.687

@<SCITEGIC>MOL_PROPERTY
Bond
SciTegic.value.DoubleValue
0.201

@<SCITEGIC>MOL_PROPERTY
Angle
SciTegic.value.DoubleValue
3.198

@<SCITEGIC>MOL_PROPERTY
Pdih
SciTegic.value.DoubleValue
6.039

@<SCITEGIC>MOL_PROPERTY
Idih
SciTegic.value.DoubleValue
0.006

@<SCITEGIC>MOL_PROPERTY
Tether
SciTegic.value.DoubleValue
0.000

@<TRIPOS>MOLECULE
guest-8_confgen4.mol2 : confsearch ligand conformer 575
          25          24           1
SMALL
USER_CHARGES
 
@<TRIPOS>ATOM
       1    C1      18.496534   20.926557   21.624790 C.2        1 MOL1         0.6168
       2    O1      19.159962   21.938380   21.507651 O.co2      1 MOL1        -0.6703
       3    O2      18.441159   20.058875   20.775509 O.co2      1 MOL1        -0.6703
       4    C2      17.633991   20.765882   22.875227 C.3        1 MOL1        -0.1963
       5    H1      17.065861   19.830917   22.798711 H          1 MOL1         0.0750
       6    H2      16.901453   21.580905   22.850881 H          1 MOL1         0.0750
       7    C3      18.405018   20.818808   24.224233 C.3        1 MOL1        -0.1860
       8    H3      19.128765   21.645594   24.209774 H          1 MOL1         0.0752
       9    H4      17.684830   21.062072   25.017064 H          1 MOL1         0.0752
      10    C4      19.113815   19.499573   24.619595 C.3        1 MOL1        -0.1858
      11    H5      18.382738   18.679955   24.643841 H          1 MOL1         0.0752
      12    H6      19.489943   19.607922   25.646128 H          1 MOL1         0.0752
      13    C5      20.292860   19.116505   23.696699 C.3        1 MOL1        -0.1858
      14    H7      19.918147   18.875193   22.694019 H          1 MOL1         0.0752
      15    H8      20.971016   19.974182   23.589270 H          1 MOL1         0.0752
      16    C6      21.075631   17.903037   24.243815 C.3        1 MOL1        -0.1858
      17    H9      20.394907   17.047908   24.355165 H          1 MOL1         0.0752
      18    H10     21.463247   18.136180   25.244996 H          1 MOL1         0.0752
      19    C7      22.246168   17.512580   23.317122 C.3        1 MOL1        -0.1834
      20    H11     21.861996   17.276879   22.314894 H          1 MOL1         0.0752
      21    H12     22.929399   18.365753   23.204212 H          1 MOL1         0.0752
      22    C8      23.025641   16.300491   23.865692 C.3        1 MOL1        -0.2849
      23    H13     22.372427   15.422997   23.958911 H          1 MOL1         0.0764
      24    H14     23.853475   16.036982   23.194634 H          1 MOL1         0.0764
      25    H15     23.448025   16.520178   24.854985 H          1 MOL1         0.0764
@<TRIPOS>BOND
    1     1     2    1
    2     1     3    2
    3     1     4    1
    4     4     5    1
    5     4     6    1
    6     4     7    1
    7     7     8    1
    8     7     9    1
    9     7    10    1
   10    10    11    1
   11    10    12    1
   12    10    13    1
   13    13    14    1
   14    13    15    1
   15    13    16    1
   16    16    17    1
   17    16    18    1
   18    16    19    1
   19    19    20    1
   20    19    21    1
   21    19    22    1
   22    22    23    1
   23    22    24    1
   24    22    25    1
@<TRIPOS>SUBSTRUCTURE
       1 MOL1            1 RESIDUE      1      MOL     
@<SCITEGIC>MOL_PROPERTY
VConf Rank
SciTegic.value.IntegerValue
575

@<SCITEGIC>MOL_PROPERTY
Conf_Id
SciTegic.value.IntegerValue
9

@<SCITEGIC>MOL_PROPERTY
Delta U+W
SciTegic.value.DoubleValue
1.764

@<SCITEGIC>MOL_PROPERTY
U+W
SciTegic.value.DoubleValue
-49.865

@<SCITEGIC>MOL_PROPERTY
Grad RMS
SciTegic.value.DoubleValue
0.000000

@<SCITEGIC>MOL_PROPERTY
U
SciTegic.value.DoubleValue
10.902

@<SCITEGIC>MOL_PROPERTY
W
SciTegic.value.DoubleValue
-60.768

@<SCITEGIC>MOL_PROPERTY
W(PB)
SciTegic.value.DoubleValue
-63.223

@<SCITEGIC>MOL_PROPERTY
W(SA)
SciTegic.value.DoubleValue
2.456

@<SCITEGIC>MOL_PROPERTY
Valence
SciTegic.value.DoubleValue
9.445

@<SCITEGIC>MOL_PROPERTY
Coulomb
SciTegic.value.DoubleValue
0.778

@<SCITEGIC>MOL_PROPERTY
VdW
SciTegic.value.DoubleValue
0.679

@<SCITEGIC>MOL_PROPERTY
VdW6
SciTegic.value.DoubleValue
-10.007

@<SCITEGIC>MOL_PROPERTY
VdW12
SciTegic.value.DoubleValue
10.687

@<SCITEGIC>MOL_PROPERTY
Bond
SciTegic.value.DoubleValue
0.201

@<SCITEGIC>MOL_PROPERTY
Angle
SciTegic.value.DoubleValue
3.198

@<SCITEGIC>MOL_PROPERTY
Pdih
SciTegic.value.DoubleValue
6.040

@<SCITEGIC>MOL_PROPERTY
Idih
SciTegic.value.DoubleValue
0.006

@<SCITEGIC>MOL_PROPERTY
Tether
SciTegic.value.DoubleValue
0.000

@<TRIPOS>MOLECULE
guest-8_confgen4.mol2 : confsearch ligand conformer 576
          25          24           1
SMALL
USER_CHARGES
 
@<TRIPOS>ATOM
       1    C1      18.567617   22.498020   22.699396 C.2        1 MOL1         0.6168
       2    O1      19.465508   22.756174   21.922381 O.co2      1 MOL1        -0.6703
       3    O2      17.529460   23.126681   22.761544 O.co2      1 MOL1        -0.6703
       4    C2      18.744412   21.307004   23.634244 C.3        1 MOL1        -0.1963
       5    H1      18.223430   21.533376   24.572109 H          1 MOL1         0.0750
       6    H2      19.809145   21.224223   23.872896 H          1 MOL1         0.0750
       7    C3      18.201470   19.984929   23.030108 C.3        1 MOL1        -0.1860
       8    H3      17.132311   20.124673   22.818429 H          1 MOL1         0.0752
       9    H4      18.681043   19.786423   22.061594 H          1 MOL1         0.0752
      10    C4      18.364525   18.763211   23.969846 C.3        1 MOL1        -0.1858
      11    H5      17.495139   18.106408   23.829502 H          1 MOL1         0.0752
      12    H6      18.330253   19.082705   25.020364 H          1 MOL1         0.0752
      13    C5      19.634687   17.914158   23.711854 C.3        1 MOL1        -0.1858
      14    H7      19.602870   17.036761   24.371939 H          1 MOL1         0.0752
      15    H8      19.605257   17.529115   22.684089 H          1 MOL1         0.0752
      16    C6      20.963257   18.670938   23.947132 C.3        1 MOL1        -0.1858
      17    H9      20.919082   19.181385   24.918672 H          1 MOL1         0.0752
      18    H10     21.087192   19.449568   23.183179 H          1 MOL1         0.0752
      19    C7      22.204056   17.748067   23.930969 C.3        1 MOL1        -0.1834
      20    H11     23.088468   18.341064   24.201770 H          1 MOL1         0.0752
      21    H12     22.101147   16.973965   24.703892 H          1 MOL1         0.0752
      22    C8      22.450864   17.082845   22.559513 C.3        1 MOL1        -0.2849
      23    H13     22.531984   17.837257   21.766150 H          1 MOL1         0.0764
      24    H14     23.384704   16.506161   22.574700 H          1 MOL1         0.0764
      25    H15     21.638469   16.393498   22.297430 H          1 MOL1         0.0764
@<TRIPOS>BOND
    1     1     2    1
    2     1     3    2
    3     1     4    1
    4     4     5    1
    5     4     6    1
    6     4     7    1
    7     7     8    1
    8     7     9    1
    9     7    10    1
   10    10    11    1
   11    10    12    1
   12    10    13    1
   13    13    14    1
   14    13    15    1
   15    13    16    1
   16    16    17    1
   17    16    18    1
   18    16    19    1
   19    19    20    1
   20    19    21    1
   21    19    22    1
   22    22    23    1
   23    22    24    1
   24    22    25    1
@<TRIPOS>SUBSTRUCTURE
       1 MOL1            1 RESIDUE      1      MOL     
@<SCITEGIC>MOL_PROPERTY
VConf Rank
SciTegic.value.IntegerValue
576

@<SCITEGIC>MOL_PROPERTY
Conf_Id
SciTegic.value.IntegerValue
89

@<SCITEGIC>MOL_PROPERTY
Delta U+W
SciTegic.value.DoubleValue
2.903

@<SCITEGIC>MOL_PROPERTY
U+W
SciTegic.value.DoubleValue
-48.726

@<SCITEGIC>MOL_PROPERTY
Grad RMS
SciTegic.value.DoubleValue
0.000000

@<SCITEGIC>MOL_PROPERTY
U
SciTegic.value.DoubleValue
10.996

@<SCITEGIC>MOL_PROPERTY
W
SciTegic.value.DoubleValue
-59.723

@<SCITEGIC>MOL_PROPERTY
W(PB)
SciTegic.value.DoubleValue
-62.151

@<SCITEGIC>MOL_PROPERTY
W(SA)
SciTegic.value.DoubleValue
2.428

@<SCITEGIC>MOL_PROPERTY
Valence
SciTegic.value.DoubleValue
10.985

@<SCITEGIC>MOL_PROPERTY
Coulomb
SciTegic.value.DoubleValue
-0.995

@<SCITEGIC>MOL_PROPERTY
VdW
SciTegic.value.DoubleValue
1.006

@<SCITEGIC>MOL_PROPERTY
VdW6
SciTegic.value.DoubleValue
-10.062

@<SCITEGIC>MOL_PROPERTY
VdW12
SciTegic.value.DoubleValue
11.069

@<SCITEGIC>MOL_PROPERTY
Bond
SciTegic.value.DoubleValue
0.238

@<SCITEGIC>MOL_PROPERTY
Angle
SciTegic.value.DoubleValue
3.202

@<SCITEGIC>MOL_PROPERTY
Pdih
SciTegic.value.DoubleValue
7.544

@<SCITEGIC>MOL_PROPERTY
Idih
SciTegic.value.DoubleValue
0.001

@<SCITEGIC>MOL_PROPERTY
Tether
SciTegic.value.DoubleValue
0.000

@<TRIPOS>MOLECULE
guest-8_confgen4.mol2 : confsearch ligand conformer 577
          25          24           1
SMALL
USER_CHARGES
 
@<TRIPOS>ATOM
       1    C1      20.682932   20.281383   20.298719 C.2        1 MOL1         0.6168
       2    O1      20.107791   21.346756   20.405737 O.co2      1 MOL1        -0.6703
       3    O2      21.882290   20.181104   20.128149 O.co2      1 MOL1        -0.6703
       4    C2      19.843479   19.005337   20.315224 C.3        1 MOL1        -0.1963
       5    H1      19.950559   18.554363   19.321929 H          1 MOL1         0.0750
       6    H2      18.786102   19.275026   20.424732 H          1 MOL1         0.0750
       7    C3      20.247412   17.958573   21.391655 C.3        1 MOL1        -0.1860
       8    H3      19.865337   16.979991   21.070969 H          1 MOL1         0.0752
       9    H4      21.341195   17.858441   21.426102 H          1 MOL1         0.0752
      10    C4      19.694397   18.236345   22.811849 C.3        1 MOL1        -0.1858
      11    H5      19.901140   17.352153   23.427463 H          1 MOL1         0.0752
      12    H6      18.601193   18.334792   22.769804 H          1 MOL1         0.0752
      13    C5      20.303344   19.486745   23.491605 C.3        1 MOL1        -0.1858
      14    H7      21.399862   19.421082   23.481271 H          1 MOL1         0.0752
      15    H8      20.038855   20.378572   22.910635 H          1 MOL1         0.0752
      16    C6      19.808214   19.704891   24.941651 C.3        1 MOL1        -0.1858
      17    H9      18.710231   19.737767   24.955029 H          1 MOL1         0.0752
      18    H10     20.151863   20.692286   25.279082 H          1 MOL1         0.0752
      19    C7      20.312309   18.635481   25.937487 C.3        1 MOL1        -0.1834
      20    H11     19.913953   17.648419   25.669622 H          1 MOL1         0.0752
      21    H12     21.407398   18.565140   25.882519 H          1 MOL1         0.0752
      22    C8      19.892966   18.967909   27.383771 C.3        1 MOL1        -0.2849
      23    H13     18.799909   19.018026   27.473665 H          1 MOL1         0.0764
      24    H14     20.255264   18.198634   28.078038 H          1 MOL1         0.0764
      25    H15     20.307903   19.933376   27.701644 H          1 MOL1         0.0764
@<TRIPOS>BOND
    1     1     2    1
    2     1     3    2
    3     1     4    1
    4     4     5    1
    5     4     6    1
    6     4     7    1
    7     7     8    1
    8     7     9    1
    9     7    10    1
   10    10    11    1
   11    10    12    1
   12    10    13    1
   13    13    14    1
   14    13    15    1
   15    13    16    1
   16    16    17    1
   17    16    18    1
   18    16    19    1
   19    19    20    1
   20    19    21    1
   21    19    22    1
   22    22    23    1
   23    22    24    1
   24    22    25    1
@<TRIPOS>SUBSTRUCTURE
       1 MOL1            1 RESIDUE      1      MOL     
@<SCITEGIC>MOL_PROPERTY
VConf Rank
SciTegic.value.IntegerValue
577

@<SCITEGIC>MOL_PROPERTY
Conf_Id
SciTegic.value.IntegerValue
114

@<SCITEGIC>MOL_PROPERTY
Delta U+W
SciTegic.value.DoubleValue
2.758

@<SCITEGIC>MOL_PROPERTY
U+W
SciTegic.value.DoubleValue
-48.871

@<SCITEGIC>MOL_PROPERTY
Grad RMS
SciTegic.value.DoubleValue
0.000000

@<SCITEGIC>MOL_PROPERTY
U
SciTegic.value.DoubleValue
11.422

@<SCITEGIC>MOL_PROPERTY
W
SciTegic.value.DoubleValue
-60.293

@<SCITEGIC>MOL_PROPERTY
W(PB)
SciTegic.value.DoubleValue
-62.719

@<SCITEGIC>MOL_PROPERTY
W(SA)
SciTegic.value.DoubleValue
2.425

@<SCITEGIC>MOL_PROPERTY
Valence
SciTegic.value.DoubleValue
10.135

@<SCITEGIC>MOL_PROPERTY
Coulomb
SciTegic.value.DoubleValue
0.369

@<SCITEGIC>MOL_PROPERTY
VdW
SciTegic.value.DoubleValue
0.918

@<SCITEGIC>MOL_PROPERTY
VdW6
SciTegic.value.DoubleValue
-10.482

@<SCITEGIC>MOL_PROPERTY
VdW12
SciTegic.value.DoubleValue
11.400

@<SCITEGIC>MOL_PROPERTY
Bond
SciTegic.value.DoubleValue
0.245

@<SCITEGIC>MOL_PROPERTY
Angle
SciTegic.value.DoubleValue
3.539

@<SCITEGIC>MOL_PROPERTY
Pdih
SciTegic.value.DoubleValue
6.346

@<SCITEGIC>MOL_PROPERTY
Idih
SciTegic.value.DoubleValue
0.006

@<SCITEGIC>MOL_PROPERTY
Tether
SciTegic.value.DoubleValue
0.000

@<TRIPOS>MOLECULE
guest-8_confgen4.mol2 : confsearch ligand conformer 578
          25          24           1
SMALL
USER_CHARGES
 
@<TRIPOS>ATOM
       1    C1      20.191087   22.298680   25.466237 C.2        1 MOL1         0.6168
       2    O1      19.848358   23.178645   24.701214 O.co2      1 MOL1        -0.6703
       3    O2      19.564128   21.989692   26.460494 O.co2      1 MOL1        -0.6703
       4    C2      21.490638   21.553297   25.175511 C.3        1 MOL1        -0.1963
       5    H1      22.047659   21.484769   26.117323 H          1 MOL1         0.0750
       6    H2      22.096659   22.160004   24.491830 H          1 MOL1         0.0750
       7    C3      21.283393   20.131741   24.591383 C.3        1 MOL1        -0.1860
       8    H3      22.255573   19.623768   24.535876 H          1 MOL1         0.0752
       9    H4      20.660252   19.551105   25.284119 H          1 MOL1         0.0752
      10    C4      20.639627   20.158466   23.184220 C.3        1 MOL1        -0.1858
      11    H5      21.229528   20.820809   22.536020 H          1 MOL1         0.0752
      12    H6      19.634197   20.597953   23.241344 H          1 MOL1         0.0752
      13    C5      20.556165   18.765733   22.514884 C.3        1 MOL1        -0.1858
      14    H7      20.226917   18.907735   21.477764 H          1 MOL1         0.0752
      15    H8      21.559005   18.320359   22.465124 H          1 MOL1         0.0752
      16    C6      19.587222   17.793974   23.232782 C.3        1 MOL1        -0.1858
      17    H9      18.585380   18.241434   23.285444 H          1 MOL1         0.0752
      18    H10     19.917743   17.647483   24.268813 H          1 MOL1         0.0752
      19    C7      19.498676   16.404768   22.558465 C.3        1 MOL1        -0.1834
      20    H11     20.500899   15.959089   22.493598 H          1 MOL1         0.0752
      21    H12     18.904956   15.739845   23.200816 H          1 MOL1         0.0752
      22    C8      18.853894   16.442553   21.155705 C.3        1 MOL1        -0.2849
      23    H13     18.727530   15.424823   20.764348 H          1 MOL1         0.0764
      24    H14     17.864141   16.916129   21.190770 H          1 MOL1         0.0764
      25    H15     19.476184   16.996665   20.442176 H          1 MOL1         0.0764
@<TRIPOS>BOND
    1     1     2    1
    2     1     3    2
    3     1     4    1
    4     4     5    1
    5     4     6    1
    6     4     7    1
    7     7     8    1
    8     7     9    1
    9     7    10    1
   10    10    11    1
   11    10    12    1
   12    10    13    1
   13    13    14    1
   14    13    15    1
   15    13    16    1
   16    16    17    1
   17    16    18    1
   18    16    19    1
   19    19    20    1
   20    19    21    1
   21    19    22    1
   22    22    23    1
   23    22    24    1
   24    22    25    1
@<TRIPOS>SUBSTRUCTURE
       1 MOL1            1 RESIDUE      1      MOL     
@<SCITEGIC>MOL_PROPERTY
VConf Rank
SciTegic.value.IntegerValue
578

@<SCITEGIC>MOL_PROPERTY
Conf_Id
SciTegic.value.IntegerValue
87

@<SCITEGIC>MOL_PROPERTY
Delta U+W
SciTegic.value.DoubleValue
1.453

@<SCITEGIC>MOL_PROPERTY
U+W
SciTegic.value.DoubleValue
-50.176

@<SCITEGIC>MOL_PROPERTY
Grad RMS
SciTegic.value.DoubleValue
0.000000

@<SCITEGIC>MOL_PROPERTY
U
SciTegic.value.DoubleValue
9.763

@<SCITEGIC>MOL_PROPERTY
W
SciTegic.value.DoubleValue
-59.940

@<SCITEGIC>MOL_PROPERTY
W(PB)
SciTegic.value.DoubleValue
-62.392

@<SCITEGIC>MOL_PROPERTY
W(SA)
SciTegic.value.DoubleValue
2.452

@<SCITEGIC>MOL_PROPERTY
Valence
SciTegic.value.DoubleValue
8.883

@<SCITEGIC>MOL_PROPERTY
Coulomb
SciTegic.value.DoubleValue
-0.122

@<SCITEGIC>MOL_PROPERTY
VdW
SciTegic.value.DoubleValue
1.003

@<SCITEGIC>MOL_PROPERTY
VdW6
SciTegic.value.DoubleValue
-9.782

@<SCITEGIC>MOL_PROPERTY
VdW12
SciTegic.value.DoubleValue
10.785

@<SCITEGIC>MOL_PROPERTY
Bond
SciTegic.value.DoubleValue
0.212

@<SCITEGIC>MOL_PROPERTY
Angle
SciTegic.value.DoubleValue
2.940

@<SCITEGIC>MOL_PROPERTY
Pdih
SciTegic.value.DoubleValue
5.730

@<SCITEGIC>MOL_PROPERTY
Idih
SciTegic.value.DoubleValue
0.001

@<SCITEGIC>MOL_PROPERTY
Tether
SciTegic.value.DoubleValue
0.000

@<TRIPOS>MOLECULE
guest-8_confgen4.mol2 : confsearch ligand conformer 579
          25          24           1
SMALL
USER_CHARGES
 
@<TRIPOS>ATOM
       1    C1      22.185322   19.622296   26.643778 C.2        1 MOL1         0.6168
       2    O1      21.391777   20.196556   27.362942 O.co2      1 MOL1        -0.6703
       3    O2      23.039526   18.862329   27.055518 O.co2      1 MOL1        -0.6703
       4    C2      22.092386   19.853853   25.139814 C.3        1 MOL1        -0.1963
       5    H1      23.103958   19.787078   24.721790 H          1 MOL1         0.0750
       6    H2      21.739600   20.878856   24.974022 H          1 MOL1         0.0750
       7    C3      21.153375   18.845519   24.433082 C.3        1 MOL1        -0.1860
       8    H3      21.514026   17.823734   24.614818 H          1 MOL1         0.0752
       9    H4      20.153564   18.917098   24.881458 H          1 MOL1         0.0752
      10    C4      21.071839   19.107008   22.911372 C.3        1 MOL1        -0.1858
      11    H5      22.087384   19.100377   22.492747 H          1 MOL1         0.0752
      12    H6      20.673622   20.113591   22.728013 H          1 MOL1         0.0752
      13    C5      20.223605   18.057645   22.150009 C.3        1 MOL1        -0.1858
      14    H7      20.265627   18.279790   21.075642 H          1 MOL1         0.0752
      15    H8      20.691987   17.071090   22.267482 H          1 MOL1         0.0752
      16    C6      18.739972   17.956742   22.593259 C.3        1 MOL1        -0.1858
      17    H9      18.693062   17.575022   23.621536 H          1 MOL1         0.0752
      18    H10     18.240566   17.199858   21.973411 H          1 MOL1         0.0752
      19    C7      17.935890   19.277667   22.511165 C.3        1 MOL1        -0.1834
      20    H11     16.915224   19.089355   22.871282 H          1 MOL1         0.0752
      21    H12     18.365277   20.024302   23.192337 H          1 MOL1         0.0752
      22    C8      17.859782   19.857868   21.082313 C.3        1 MOL1        -0.2849
      23    H13     17.447894   19.121000   20.380666 H          1 MOL1         0.0764
      24    H14     17.212783   20.744254   21.061345 H          1 MOL1         0.0764
      25    H15     18.850960   20.160482   20.721846 H          1 MOL1         0.0764
@<TRIPOS>BOND
    1     1     2    1
    2     1     3    2
    3     1     4    1
    4     4     5    1
    5     4     6    1
    6     4     7    1
    7     7     8    1
    8     7     9    1
    9     7    10    1
   10    10    11    1
   11    10    12    1
   12    10    13    1
   13    13    14    1
   14    13    15    1
   15    13    16    1
   16    16    17    1
   17    16    18    1
   18    16    19    1
   19    19    20    1
   20    19    21    1
   21    19    22    1
   22    22    23    1
   23    22    24    1
   24    22    25    1
@<TRIPOS>SUBSTRUCTURE
       1 MOL1            1 RESIDUE      1      MOL     
@<SCITEGIC>MOL_PROPERTY
VConf Rank
SciTegic.value.IntegerValue
579

@<SCITEGIC>MOL_PROPERTY
Conf_Id
SciTegic.value.IntegerValue
29

@<SCITEGIC>MOL_PROPERTY
Delta U+W
SciTegic.value.DoubleValue
0.850

@<SCITEGIC>MOL_PROPERTY
U+W
SciTegic.value.DoubleValue
-50.780

@<SCITEGIC>MOL_PROPERTY
Grad RMS
SciTegic.value.DoubleValue
0.000000

@<SCITEGIC>MOL_PROPERTY
U
SciTegic.value.DoubleValue
8.646

@<SCITEGIC>MOL_PROPERTY
W
SciTegic.value.DoubleValue
-59.426

@<SCITEGIC>MOL_PROPERTY
W(PB)
SciTegic.value.DoubleValue
-61.868

@<SCITEGIC>MOL_PROPERTY
W(SA)
SciTegic.value.DoubleValue
2.442

@<SCITEGIC>MOL_PROPERTY
Valence
SciTegic.value.DoubleValue
8.924

@<SCITEGIC>MOL_PROPERTY
Coulomb
SciTegic.value.DoubleValue
-1.171

@<SCITEGIC>MOL_PROPERTY
VdW
SciTegic.value.DoubleValue
0.894

@<SCITEGIC>MOL_PROPERTY
VdW6
SciTegic.value.DoubleValue
-10.223

@<SCITEGIC>MOL_PROPERTY
VdW12
SciTegic.value.DoubleValue
11.117

@<SCITEGIC>MOL_PROPERTY
Bond
SciTegic.value.DoubleValue
0.231

@<SCITEGIC>MOL_PROPERTY
Angle
SciTegic.value.DoubleValue
3.232

@<SCITEGIC>MOL_PROPERTY
Pdih
SciTegic.value.DoubleValue
5.461

@<SCITEGIC>MOL_PROPERTY
Idih
SciTegic.value.DoubleValue
0.001

@<SCITEGIC>MOL_PROPERTY
Tether
SciTegic.value.DoubleValue
0.000

@<TRIPOS>MOLECULE
guest-8_confgen4.mol2 : confsearch ligand conformer 580
          25          24           1
SMALL
USER_CHARGES
 
@<TRIPOS>ATOM
       1    C1      21.561186   21.051197   20.220254 C.2        1 MOL1         0.6168
       2    O1      21.464954   20.211129   19.347494 O.co2      1 MOL1        -0.6703
       3    O2      22.460149   21.867166   20.273161 O.co2      1 MOL1        -0.6703
       4    C2      20.506009   21.070497   21.320438 C.3        1 MOL1        -0.1963
       5    H1      19.555263   20.738220   20.886563 H          1 MOL1         0.0750
       6    H2      20.369869   22.109501   21.643577 H          1 MOL1         0.0750
       7    C3      20.881417   20.178609   22.529387 C.3        1 MOL1        -0.1860
       8    H3      21.031712   19.149176   22.178011 H          1 MOL1         0.0752
       9    H4      21.838964   20.517666   22.948059 H          1 MOL1         0.0752
      10    C4      19.791987   20.210627   23.626088 C.3        1 MOL1        -0.1858
      11    H5      18.844157   19.834142   23.219537 H          1 MOL1         0.0752
      12    H6      19.606340   21.254029   23.914999 H          1 MOL1         0.0752
      13    C5      20.173956   19.412914   24.898130 C.3        1 MOL1        -0.1858
      14    H7      21.070924   19.864436   25.343156 H          1 MOL1         0.0752
      15    H8      19.378752   19.534968   25.645214 H          1 MOL1         0.0752
      16    C6      20.439463   17.900157   24.677006 C.3        1 MOL1        -0.1858
      17    H9      20.679661   17.442016   25.645975 H          1 MOL1         0.0752
      18    H10     21.338710   17.775470   24.059694 H          1 MOL1         0.0752
      19    C7      19.273204   17.113682   24.029371 C.3        1 MOL1        -0.1834
      20    H11     19.073209   17.497428   23.020125 H          1 MOL1         0.0752
      21    H12     19.584759   16.068098   23.900569 H          1 MOL1         0.0752
      22    C8      17.976134   17.146406   24.866374 C.3        1 MOL1        -0.2849
      23    H13     17.569502   18.163440   24.931467 H          1 MOL1         0.0764
      24    H14     17.207916   16.509094   24.409862 H          1 MOL1         0.0764
      25    H15     18.157223   16.781584   25.885711 H          1 MOL1         0.0764
@<TRIPOS>BOND
    1     1     2    1
    2     1     3    2
    3     1     4    1
    4     4     5    1
    5     4     6    1
    6     4     7    1
    7     7     8    1
    8     7     9    1
    9     7    10    1
   10    10    11    1
   11    10    12    1
   12    10    13    1
   13    13    14    1
   14    13    15    1
   15    13    16    1
   16    16    17    1
   17    16    18    1
   18    16    19    1
   19    19    20    1
   20    19    21    1
   21    19    22    1
   22    22    23    1
   23    22    24    1
   24    22    25    1
@<TRIPOS>SUBSTRUCTURE
       1 MOL1            1 RESIDUE      1      MOL     
@<SCITEGIC>MOL_PROPERTY
VConf Rank
SciTegic.value.IntegerValue
580

@<SCITEGIC>MOL_PROPERTY
Conf_Id
SciTegic.value.IntegerValue
30

@<SCITEGIC>MOL_PROPERTY
Delta U+W
SciTegic.value.DoubleValue
0.843

@<SCITEGIC>MOL_PROPERTY
U+W
SciTegic.value.DoubleValue
-50.787

@<SCITEGIC>MOL_PROPERTY
Grad RMS
SciTegic.value.DoubleValue
0.000000

@<SCITEGIC>MOL_PROPERTY
U
SciTegic.value.DoubleValue
8.647

@<SCITEGIC>MOL_PROPERTY
W
SciTegic.value.DoubleValue
-59.434

@<SCITEGIC>MOL_PROPERTY
W(PB)
SciTegic.value.DoubleValue
-61.861

@<SCITEGIC>MOL_PROPERTY
W(SA)
SciTegic.value.DoubleValue
2.428

@<SCITEGIC>MOL_PROPERTY
Valence
SciTegic.value.DoubleValue
8.924

@<SCITEGIC>MOL_PROPERTY
Coulomb
SciTegic.value.DoubleValue
-1.170

@<SCITEGIC>MOL_PROPERTY
VdW
SciTegic.value.DoubleValue
0.894

@<SCITEGIC>MOL_PROPERTY
VdW6
SciTegic.value.DoubleValue
-10.224

@<SCITEGIC>MOL_PROPERTY
VdW12
SciTegic.value.DoubleValue
11.118

@<SCITEGIC>MOL_PROPERTY
Bond
SciTegic.value.DoubleValue
0.231

@<SCITEGIC>MOL_PROPERTY
Angle
SciTegic.value.DoubleValue
3.232

@<SCITEGIC>MOL_PROPERTY
Pdih
SciTegic.value.DoubleValue
5.460

@<SCITEGIC>MOL_PROPERTY
Idih
SciTegic.value.DoubleValue
0.000

@<SCITEGIC>MOL_PROPERTY
Tether
SciTegic.value.DoubleValue
0.000

@<TRIPOS>MOLECULE
guest-8_confgen4.mol2 : confsearch ligand conformer 581
          25          24           1
SMALL
USER_CHARGES
 
@<TRIPOS>ATOM
       1    C1      20.335562   14.509324   22.592417 C.2        1 MOL1         0.6168
       2    O1      20.114538   14.284346   23.766783 O.co2      1 MOL1        -0.6703
       3    O2      20.525017   13.632690   21.772821 O.co2      1 MOL1        -0.6703
       4    C2      20.383961   15.954140   22.092855 C.3        1 MOL1        -0.1963
       5    H1      19.637725   16.049426   21.295384 H          1 MOL1         0.0750
       6    H2      21.367030   16.108124   21.632669 H          1 MOL1         0.0750
       7    C3      20.135972   17.037839   23.175682 C.3        1 MOL1        -0.1860
       8    H3      19.152215   16.873749   23.636987 H          1 MOL1         0.0752
       9    H4      20.883114   16.932548   23.974555 H          1 MOL1         0.0752
      10    C4      20.202358   18.463878   22.586911 C.3        1 MOL1        -0.1858
      11    H5      19.454648   18.566782   21.788489 H          1 MOL1         0.0752
      12    H6      21.186635   18.625624   22.126289 H          1 MOL1         0.0752
      13    C5      19.955376   19.540260   23.665747 C.3        1 MOL1        -0.1858
      14    H7      18.971144   19.378784   24.126526 H          1 MOL1         0.0752
      15    H8      20.702972   19.437631   24.464290 H          1 MOL1         0.0752
      16    C6      20.021602   20.966355   23.077714 C.3        1 MOL1        -0.1858
      17    H9      19.274041   21.069223   22.279176 H          1 MOL1         0.0752
      18    H10     21.005803   21.128088   22.616969 H          1 MOL1         0.0752
      19    C7      19.774702   22.042344   24.155976 C.3        1 MOL1        -0.1834
      20    H11     18.790143   21.884883   24.617861 H          1 MOL1         0.0752
      21    H12     20.521891   21.943756   24.955649 H          1 MOL1         0.0752
      22    C8      19.841639   23.464914   23.564860 C.3        1 MOL1        -0.2849
      23    H13     19.082871   23.601613   22.783207 H          1 MOL1         0.0764
      24    H14     19.663938   24.216734   24.344781 H          1 MOL1         0.0764
      25    H15     20.827652   23.660940   23.123556 H          1 MOL1         0.0764
@<TRIPOS>BOND
    1     1     2    1
    2     1     3    2
    3     1     4    1
    4     4     5    1
    5     4     6    1
    6     4     7    1
    7     7     8    1
    8     7     9    1
    9     7    10    1
   10    10    11    1
   11    10    12    1
   12    10    13    1
   13    13    14    1
   14    13    15    1
   15    13    16    1
   16    16    17    1
   17    16    18    1
   18    16    19    1
   19    19    20    1
   20    19    21    1
   21    19    22    1
   22    22    23    1
   23    22    24    1
   24    22    25    1
@<TRIPOS>SUBSTRUCTURE
       1 MOL1            1 RESIDUE      1      MOL     
@<SCITEGIC>MOL_PROPERTY
VConf Rank
SciTegic.value.IntegerValue
581

@<SCITEGIC>MOL_PROPERTY
Conf_Id
SciTegic.value.IntegerValue
0

@<SCITEGIC>MOL_PROPERTY
Delta U+W
SciTegic.value.DoubleValue
0.000

@<SCITEGIC>MOL_PROPERTY
U+W
SciTegic.value.DoubleValue
-51.629

@<SCITEGIC>MOL_PROPERTY
Grad RMS
SciTegic.value.DoubleValue
0.000000

@<SCITEGIC>MOL_PROPERTY
U
SciTegic.value.DoubleValue
6.586

@<SCITEGIC>MOL_PROPERTY
W
SciTegic.value.DoubleValue
-58.216

@<SCITEGIC>MOL_PROPERTY
W(PB)
SciTegic.value.DoubleValue
-60.757

@<SCITEGIC>MOL_PROPERTY
W(SA)
SciTegic.value.DoubleValue
2.541

@<SCITEGIC>MOL_PROPERTY
Valence
SciTegic.value.DoubleValue
8.027

@<SCITEGIC>MOL_PROPERTY
Coulomb
SciTegic.value.DoubleValue
-2.892

@<SCITEGIC>MOL_PROPERTY
VdW
SciTegic.value.DoubleValue
1.451

@<SCITEGIC>MOL_PROPERTY
VdW6
SciTegic.value.DoubleValue
-7.931

@<SCITEGIC>MOL_PROPERTY
VdW12
SciTegic.value.DoubleValue
9.383

@<SCITEGIC>MOL_PROPERTY
Bond
SciTegic.value.DoubleValue
0.149

@<SCITEGIC>MOL_PROPERTY
Angle
SciTegic.value.DoubleValue
2.726

@<SCITEGIC>MOL_PROPERTY
Pdih
SciTegic.value.DoubleValue
5.152

@<SCITEGIC>MOL_PROPERTY
Idih
SciTegic.value.DoubleValue
0.000

@<SCITEGIC>MOL_PROPERTY
Tether
SciTegic.value.DoubleValue
0.000

@<TRIPOS>MOLECULE
guest-8_confgen4.mol2 : confsearch ligand conformer 582
          25          24           1
SMALL
USER_CHARGES
 
@<TRIPOS>ATOM
       1    C1      21.950688   20.450128   27.237267 C.2        1 MOL1         0.6168
       2    O1      21.133503   20.816962   28.058400 O.co2      1 MOL1        -0.6703
       3    O2      22.989005   19.888230   27.525000 O.co2      1 MOL1        -0.6703
       4    C2      21.645568   20.687499   25.762601 C.3        1 MOL1        -0.1963
       5    H1      22.595903   20.849674   25.239945 H          1 MOL1         0.0750
       6    H2      21.067252   21.615537   25.679534 H          1 MOL1         0.0750
       7    C3      20.871035   19.514718   25.112444 C.3        1 MOL1        -0.1860
       8    H3      21.457349   18.591055   25.215771 H          1 MOL1         0.0752
       9    H4      19.928807   19.356810   25.655460 H          1 MOL1         0.0752
      10    C4      20.574138   19.778789   23.620418 C.3        1 MOL1        -0.1858
      11    H5      21.517921   19.937307   23.080671 H          1 MOL1         0.0752
      12    H6      19.989137   20.703433   23.520480 H          1 MOL1         0.0752
      13    C5      19.801797   18.608116   22.975065 C.3        1 MOL1        -0.1858
      14    H7      20.386630   17.683387   23.074815 H          1 MOL1         0.0752
      15    H8      18.857985   18.449445   23.514646 H          1 MOL1         0.0752
      16    C6      19.504491   18.871507   21.483049 C.3        1 MOL1        -0.1858
      17    H9      20.448129   19.030121   20.943155 H          1 MOL1         0.0752
      18    H10     18.919643   19.796187   21.382966 H          1 MOL1         0.0752
      19    C7      18.732422   17.701480   20.837831 C.3        1 MOL1        -0.1834
      20    H11     19.315321   16.774983   20.934365 H          1 MOL1         0.0752
      21    H12     17.786842   17.541061   21.374147 H          1 MOL1         0.0752
      22    C8      18.437508   17.968295   19.348053 C.3        1 MOL1        -0.2849
      23    H13     17.888504   17.126927   18.905582 H          1 MOL1         0.0764
      24    H14     17.828230   18.873184   19.224143 H          1 MOL1         0.0764
      25    H15     19.368214   18.101338   18.781059 H          1 MOL1         0.0764
@<TRIPOS>BOND
    1     1     2    1
    2     1     3    2
    3     1     4    1
    4     4     5    1
    5     4     6    1
    6     4     7    1
    7     7     8    1
    8     7     9    1
    9     7    10    1
   10    10    11    1
   11    10    12    1
   12    10    13    1
   13    13    14    1
   14    13    15    1
   15    13    16    1
   16    16    17    1
   17    16    18    1
   18    16    19    1
   19    19    20    1
   20    19    21    1
   21    19    22    1
   22    22    23    1
   23    22    24    1
   24    22    25    1
@<TRIPOS>SUBSTRUCTURE
       1 MOL1            1 RESIDUE      1      MOL     
@<SCITEGIC>MOL_PROPERTY
VConf Rank
SciTegic.value.IntegerValue
582

@<SCITEGIC>MOL_PROPERTY
Conf_Id
SciTegic.value.IntegerValue
27

@<SCITEGIC>MOL_PROPERTY
Delta U+W
SciTegic.value.DoubleValue
-1.297

@<SCITEGIC>MOL_PROPERTY
U+W
SciTegic.value.DoubleValue
-52.926

@<SCITEGIC>MOL_PROPERTY
Grad RMS
SciTegic.value.DoubleValue
0.000000

@<SCITEGIC>MOL_PROPERTY
U
SciTegic.value.DoubleValue
5.617

@<SCITEGIC>MOL_PROPERTY
W
SciTegic.value.DoubleValue
-58.543

@<SCITEGIC>MOL_PROPERTY
W(PB)
SciTegic.value.DoubleValue
-61.065

@<SCITEGIC>MOL_PROPERTY
W(SA)
SciTegic.value.DoubleValue
2.522

@<SCITEGIC>MOL_PROPERTY
Valence
SciTegic.value.DoubleValue
7.531

@<SCITEGIC>MOL_PROPERTY
Coulomb
SciTegic.value.DoubleValue
-2.818

@<SCITEGIC>MOL_PROPERTY
VdW
SciTegic.value.DoubleValue
0.904

@<SCITEGIC>MOL_PROPERTY
VdW6
SciTegic.value.DoubleValue
-7.640

@<SCITEGIC>MOL_PROPERTY
VdW12
SciTegic.value.DoubleValue
8.544

@<SCITEGIC>MOL_PROPERTY
Bond
SciTegic.value.DoubleValue
0.115

@<SCITEGIC>MOL_PROPERTY
Angle
SciTegic.value.DoubleValue
2.271

@<SCITEGIC>MOL_PROPERTY
Pdih
SciTegic.value.DoubleValue
5.144

@<SCITEGIC>MOL_PROPERTY
Idih
SciTegic.value.DoubleValue
0.001

@<SCITEGIC>MOL_PROPERTY
Tether
SciTegic.value.DoubleValue
0.000

@<TRIPOS>MOLECULE
guest-8_confgen4.mol2 : confsearch ligand conformer 583
          25          24           1
SMALL
USER_CHARGES
 
@<TRIPOS>ATOM
       1    C1      22.946140   21.401779   25.206602 C.2        1 MOL1         0.6168
       2    O1      22.646753   21.678328   26.351575 O.co2      1 MOL1        -0.6703
       3    O2      23.892791   20.699952   24.909526 O.co2      1 MOL1        -0.6703
       4    C2      22.095057   21.982687   24.080916 C.3        1 MOL1        -0.1963
       5    H1      22.670331   21.937841   23.148234 H          1 MOL1         0.0750
       6    H2      21.935513   23.044016   24.304770 H          1 MOL1         0.0750
       7    C3      20.724763   21.279585   23.899572 C.3        1 MOL1        -0.1860
       8    H3      20.172403   21.308469   24.849170 H          1 MOL1         0.0752
       9    H4      20.128481   21.843829   23.169760 H          1 MOL1         0.0752
      10    C4      20.865932   19.817289   23.420477 C.3        1 MOL1        -0.1858
      11    H5      21.446795   19.241660   24.154420 H          1 MOL1         0.0752
      12    H6      21.430295   19.792659   22.478187 H          1 MOL1         0.0752
      13    C5      19.490119   19.147235   23.216031 C.3        1 MOL1        -0.1858
      14    H7      18.926535   19.172329   24.158809 H          1 MOL1         0.0752
      15    H8      18.908632   19.719466   22.480191 H          1 MOL1         0.0752
      16    C6      19.630413   17.685801   22.738132 C.3        1 MOL1        -0.1858
      17    H9      20.211969   17.113432   23.473873 H          1 MOL1         0.0752
      18    H10     20.194286   17.660446   21.795536 H          1 MOL1         0.0752
      19    C7      18.255496   17.015458   22.534138 C.3        1 MOL1        -0.1834
      20    H11     17.689341   17.037381   23.475664 H          1 MOL1         0.0752
      21    H12     17.671673   17.584334   21.797246 H          1 MOL1         0.0752
      22    C8      18.400026   15.556289   22.057122 C.3        1 MOL1        -0.2849
      23    H13     18.953547   14.956077   22.791123 H          1 MOL1         0.0764
      24    H14     17.413558   15.095409   21.917303 H          1 MOL1         0.0764
      25    H15     18.935794   15.507122   21.100080 H          1 MOL1         0.0764
@<TRIPOS>BOND
    1     1     2    1
    2     1     3    2
    3     1     4    1
    4     4     5    1
    5     4     6    1
    6     4     7    1
    7     7     8    1
    8     7     9    1
    9     7    10    1
   10    10    11    1
   11    10    12    1
   12    10    13    1
   13    13    14    1
   14    13    15    1
   15    13    16    1
   16    16    17    1
   17    16    18    1
   18    16    19    1
   19    19    20    1
   20    19    21    1
   21    19    22    1
   22    22    23    1
   23    22    24    1
   24    22    25    1
@<TRIPOS>SUBSTRUCTURE
       1 MOL1            1 RESIDUE      1      MOL     
@<SCITEGIC>MOL_PROPERTY
VConf Rank
SciTegic.value.IntegerValue
583

@<SCITEGIC>MOL_PROPERTY
Conf_Id
SciTegic.value.IntegerValue
37

@<SCITEGIC>MOL_PROPERTY
Delta U+W
SciTegic.value.DoubleValue
-0.230

@<SCITEGIC>MOL_PROPERTY
U+W
SciTegic.value.DoubleValue
-51.860

@<SCITEGIC>MOL_PROPERTY
Grad RMS
SciTegic.value.DoubleValue
0.000000

@<SCITEGIC>MOL_PROPERTY
U
SciTegic.value.DoubleValue
7.816

@<SCITEGIC>MOL_PROPERTY
W
SciTegic.value.DoubleValue
-59.675

@<SCITEGIC>MOL_PROPERTY
W(PB)
SciTegic.value.DoubleValue
-62.180

@<SCITEGIC>MOL_PROPERTY
W(SA)
SciTegic.value.DoubleValue
2.505

@<SCITEGIC>MOL_PROPERTY
Valence
SciTegic.value.DoubleValue
7.785

@<SCITEGIC>MOL_PROPERTY
Coulomb
SciTegic.value.DoubleValue
-0.713

@<SCITEGIC>MOL_PROPERTY
VdW
SciTegic.value.DoubleValue
0.744

@<SCITEGIC>MOL_PROPERTY
VdW6
SciTegic.value.DoubleValue
-8.514

@<SCITEGIC>MOL_PROPERTY
VdW12
SciTegic.value.DoubleValue
9.259

@<SCITEGIC>MOL_PROPERTY
Bond
SciTegic.value.DoubleValue
0.136

@<SCITEGIC>MOL_PROPERTY
Angle
SciTegic.value.DoubleValue
2.433

@<SCITEGIC>MOL_PROPERTY
Pdih
SciTegic.value.DoubleValue
5.216

@<SCITEGIC>MOL_PROPERTY
Idih
SciTegic.value.DoubleValue
0.000

@<SCITEGIC>MOL_PROPERTY
Tether
SciTegic.value.DoubleValue
0.000

@<TRIPOS>MOLECULE
guest-8_confgen4.mol2 : confsearch ligand conformer 584
          25          24           1
SMALL
USER_CHARGES
 
@<TRIPOS>ATOM
       1    C1      17.850890   17.327973   20.574212 C.2        1 MOL1         0.6168
       2    O1      17.192707   16.416920   21.036652 O.co2      1 MOL1        -0.6703
       3    O2      18.790392   17.164327   19.820874 O.co2      1 MOL1        -0.6703
       4    C2      17.464319   18.756022   20.948655 C.3        1 MOL1        -0.1963
       5    H1      16.375392   18.837310   20.850603 H          1 MOL1         0.0750
       6    H2      17.901500   19.441489   20.212548 H          1 MOL1         0.0750
       7    C3      17.887790   19.168337   22.382396 C.3        1 MOL1        -0.1860
       8    H3      17.452860   20.150032   22.614045 H          1 MOL1         0.0752
       9    H4      17.465355   18.456717   23.105458 H          1 MOL1         0.0752
      10    C4      19.422117   19.238054   22.551946 C.3        1 MOL1        -0.1858
      11    H5      19.840906   19.940434   21.818256 H          1 MOL1         0.0752
      12    H6      19.863257   18.254523   22.338673 H          1 MOL1         0.0752
      13    C5      19.820439   19.680769   23.976366 C.3        1 MOL1        -0.1858
      14    H7      19.382817   20.665423   24.190792 H          1 MOL1         0.0752
      15    H8      19.401316   18.977750   24.709298 H          1 MOL1         0.0752
      16    C6      21.353423   19.749976   24.146732 C.3        1 MOL1        -0.1858
      17    H9      21.772785   20.452731   23.413690 H          1 MOL1         0.0752
      18    H10     21.791233   18.765381   23.932203 H          1 MOL1         0.0752
      19    C7      21.752060   20.191852   25.570529 C.3        1 MOL1        -0.1834
      20    H11     21.317289   21.177341   25.787935 H          1 MOL1         0.0752
      21    H12     21.335824   19.489918   26.306409 H          1 MOL1         0.0752
      22    C8      23.283554   20.259655   25.736464 C.3        1 MOL1        -0.2849
      23    H13     23.723419   20.978793   25.033076 H          1 MOL1         0.0764
      24    H14     23.548922   20.575127   26.753882 H          1 MOL1         0.0764
      25    H15     23.742090   19.278661   25.555375 H          1 MOL1         0.0764
@<TRIPOS>BOND
    1     1     2    1
    2     1     3    2
    3     1     4    1
    4     4     5    1
    5     4     6    1
    6     4     7    1
    7     7     8    1
    8     7     9    1
    9     7    10    1
   10    10    11    1
   11    10    12    1
   12    10    13    1
   13    13    14    1
   14    13    15    1
   15    13    16    1
   16    16    17    1
   17    16    18    1
   18    16    19    1
   19    19    20    1
   20    19    21    1
   21    19    22    1
   22    22    23    1
   23    22    24    1
   24    22    25    1
@<TRIPOS>SUBSTRUCTURE
       1 MOL1            1 RESIDUE      1      MOL     
@<SCITEGIC>MOL_PROPERTY
VConf Rank
SciTegic.value.IntegerValue
584

@<SCITEGIC>MOL_PROPERTY
Conf_Id
SciTegic.value.IntegerValue
54

@<SCITEGIC>MOL_PROPERTY
Delta U+W
SciTegic.value.DoubleValue
-0.224

@<SCITEGIC>MOL_PROPERTY
U+W
SciTegic.value.DoubleValue
-51.854

@<SCITEGIC>MOL_PROPERTY
Grad RMS
SciTegic.value.DoubleValue
0.000000

@<SCITEGIC>MOL_PROPERTY
U
SciTegic.value.DoubleValue
7.816

@<SCITEGIC>MOL_PROPERTY
W
SciTegic.value.DoubleValue
-59.670

@<SCITEGIC>MOL_PROPERTY
W(PB)
SciTegic.value.DoubleValue
-62.157

@<SCITEGIC>MOL_PROPERTY
W(SA)
SciTegic.value.DoubleValue
2.487

@<SCITEGIC>MOL_PROPERTY
Valence
SciTegic.value.DoubleValue
7.785

@<SCITEGIC>MOL_PROPERTY
Coulomb
SciTegic.value.DoubleValue
-0.713

@<SCITEGIC>MOL_PROPERTY
VdW
SciTegic.value.DoubleValue
0.744

@<SCITEGIC>MOL_PROPERTY
VdW6
SciTegic.value.DoubleValue
-8.515

@<SCITEGIC>MOL_PROPERTY
VdW12
SciTegic.value.DoubleValue
9.259

@<SCITEGIC>MOL_PROPERTY
Bond
SciTegic.value.DoubleValue
0.136

@<SCITEGIC>MOL_PROPERTY
Angle
SciTegic.value.DoubleValue
2.433

@<SCITEGIC>MOL_PROPERTY
Pdih
SciTegic.value.DoubleValue
5.215

@<SCITEGIC>MOL_PROPERTY
Idih
SciTegic.value.DoubleValue
0.000

@<SCITEGIC>MOL_PROPERTY
Tether
SciTegic.value.DoubleValue
0.000

@<TRIPOS>MOLECULE
guest-8_confgen4.mol2 : confsearch ligand conformer 585
          25          24           1
SMALL
USER_CHARGES
 
@<TRIPOS>ATOM
       1    C1      17.731983   18.931803   26.576784 C.2        1 MOL1         0.6168
       2    O1      16.814501   19.690290   26.331887 O.co2      1 MOL1        -0.6703
       3    O2      17.575896   17.789111   26.960190 O.co2      1 MOL1        -0.6703
       4    C2      19.159366   19.446300   26.412297 C.3        1 MOL1        -0.1963
       5    H1      19.719265   19.148053   27.306463 H          1 MOL1         0.0750
       6    H2      19.137831   20.542779   26.402282 H          1 MOL1         0.0750
       7    C3      19.881931   18.913326   25.147583 C.3        1 MOL1        -0.1860
       8    H3      20.937232   19.208742   25.201178 H          1 MOL1         0.0752
       9    H4      19.858943   17.814756   25.151460 H          1 MOL1         0.0752
      10    C4      19.255291   19.446825   23.836609 C.3        1 MOL1        -0.1858
      11    H5      19.320092   20.543197   23.813210 H          1 MOL1         0.0752
      12    H6      18.184653   19.200733   23.824346 H          1 MOL1         0.0752
      13    C5      19.901210   18.861549   22.557861 C.3        1 MOL1        -0.1858
      14    H7      19.853046   17.764652   22.590616 H          1 MOL1         0.0752
      15    H8      19.293695   19.173919   21.699070 H          1 MOL1         0.0752
      16    C6      21.366283   19.314988   22.341564 C.3        1 MOL1        -0.1858
      17    H9      21.977433   18.997338   23.195653 H          1 MOL1         0.0752
      18    H10     21.414509   20.412043   22.313974 H          1 MOL1         0.0752
      19    C7      22.004842   18.736918   21.056821 C.3        1 MOL1        -0.1834
      20    H11     23.073806   18.990941   21.051090 H          1 MOL1         0.0752
      21    H12     21.947278   17.639805   21.074940 H          1 MOL1         0.0752
      22    C8      21.362858   19.270593   19.757595 C.3        1 MOL1        -0.2849
      23    H13     20.322399   18.937753   19.657259 H          1 MOL1         0.0764
      24    H14     21.377903   20.368007   19.733783 H          1 MOL1         0.0764
      25    H15     21.913123   18.906314   18.880432 H          1 MOL1         0.0764
@<TRIPOS>BOND
    1     1     2    1
    2     1     3    2
    3     1     4    1
    4     4     5    1
    5     4     6    1
    6     4     7    1
    7     7     8    1
    8     7     9    1
    9     7    10    1
   10    10    11    1
   11    10    12    1
   12    10    13    1
   13    13    14    1
   14    13    15    1
   15    13    16    1
   16    16    17    1
   17    16    18    1
   18    16    19    1
   19    19    20    1
   20    19    21    1
   21    19    22    1
   22    22    23    1
   23    22    24    1
   24    22    25    1
@<TRIPOS>SUBSTRUCTURE
       1 MOL1            1 RESIDUE      1      MOL     
@<SCITEGIC>MOL_PROPERTY
VConf Rank
SciTegic.value.IntegerValue
585

@<SCITEGIC>MOL_PROPERTY
Conf_Id
SciTegic.value.IntegerValue
101

@<SCITEGIC>MOL_PROPERTY
Delta U+W
SciTegic.value.DoubleValue
1.534

@<SCITEGIC>MOL_PROPERTY
U+W
SciTegic.value.DoubleValue
-50.095

@<SCITEGIC>MOL_PROPERTY
Grad RMS
SciTegic.value.DoubleValue
0.000000

@<SCITEGIC>MOL_PROPERTY
U
SciTegic.value.DoubleValue
9.416

@<SCITEGIC>MOL_PROPERTY
W
SciTegic.value.DoubleValue
-59.512

@<SCITEGIC>MOL_PROPERTY
W(PB)
SciTegic.value.DoubleValue
-61.988

@<SCITEGIC>MOL_PROPERTY
W(SA)
SciTegic.value.DoubleValue
2.476

@<SCITEGIC>MOL_PROPERTY
Valence
SciTegic.value.DoubleValue
8.939

@<SCITEGIC>MOL_PROPERTY
Coulomb
SciTegic.value.DoubleValue
-0.615

@<SCITEGIC>MOL_PROPERTY
VdW
SciTegic.value.DoubleValue
1.092

@<SCITEGIC>MOL_PROPERTY
VdW6
SciTegic.value.DoubleValue
-9.710

@<SCITEGIC>MOL_PROPERTY
VdW12
SciTegic.value.DoubleValue
10.802

@<SCITEGIC>MOL_PROPERTY
Bond
SciTegic.value.DoubleValue
0.216

@<SCITEGIC>MOL_PROPERTY
Angle
SciTegic.value.DoubleValue
2.979

@<SCITEGIC>MOL_PROPERTY
Pdih
SciTegic.value.DoubleValue
5.743

@<SCITEGIC>MOL_PROPERTY
Idih
SciTegic.value.DoubleValue
0.000

@<SCITEGIC>MOL_PROPERTY
Tether
SciTegic.value.DoubleValue
0.000

@<TRIPOS>MOLECULE
guest-8_confgen4.mol2 : confsearch ligand conformer 586
          25          24           1
SMALL
USER_CHARGES
 
@<TRIPOS>ATOM
       1    C1      18.165672   20.335699   19.727901 C.2        1 MOL1         0.6168
       2    O1      19.026981   20.550438   18.897979 O.co2      1 MOL1        -0.6703
       3    O2      17.007437   20.095682   19.449227 O.co2      1 MOL1        -0.6703
       4    C2      18.564791   20.345615   21.199218 C.3        1 MOL1        -0.1963
       5    H1      17.703907   20.693369   21.782556 H          1 MOL1         0.0750
       6    H2      19.362368   21.086645   21.322125 H          1 MOL1         0.0750
       7    C3      19.026357   18.953660   21.704169 C.3        1 MOL1        -0.1860
       8    H3      18.241542   18.219420   21.475296 H          1 MOL1         0.0752
       9    H4      19.918538   18.637280   21.146300 H          1 MOL1         0.0752
      10    C4      19.316486   18.908841   23.223552 C.3        1 MOL1        -0.1858
      11    H5      19.493530   17.862533   23.503527 H          1 MOL1         0.0752
      12    H6      18.426517   19.234789   23.778782 H          1 MOL1         0.0752
      13    C5      20.537326   19.764303   23.642641 C.3        1 MOL1        -0.1858
      14    H7      21.426916   19.438080   23.088364 H          1 MOL1         0.0752
      15    H8      20.366517   20.809518   23.356165 H          1 MOL1         0.0752
      16    C6      20.821579   19.732064   25.165965 C.3        1 MOL1        -0.1858
      17    H9      19.953112   20.143282   25.698265 H          1 MOL1         0.0752
      18    H10     21.657408   20.411701   25.380798 H          1 MOL1         0.0752
      19    C7      21.151686   18.337292   25.753418 C.3        1 MOL1        -0.1834
      20    H11     21.327914   18.446118   26.832373 H          1 MOL1         0.0752
      21    H12     20.286223   17.668991   25.654977 H          1 MOL1         0.0752
      22    C8      22.393043   17.680442   25.111919 C.3        1 MOL1        -0.2849
      23    H13     23.266139   18.342535   25.177605 H          1 MOL1         0.0764
      24    H14     22.639897   16.742212   25.625293 H          1 MOL1         0.0764
      25    H15     22.217417   17.444612   24.054744 H          1 MOL1         0.0764
@<TRIPOS>BOND
    1     1     2    1
    2     1     3    2
    3     1     4    1
    4     4     5    1
    5     4     6    1
    6     4     7    1
    7     7     8    1
    8     7     9    1
    9     7    10    1
   10    10    11    1
   11    10    12    1
   12    10    13    1
   13    13    14    1
   14    13    15    1
   15    13    16    1
   16    16    17    1
   17    16    18    1
   18    16    19    1
   19    19    20    1
   20    19    21    1
   21    19    22    1
   22    22    23    1
   23    22    24    1
   24    22    25    1
@<TRIPOS>SUBSTRUCTURE
       1 MOL1            1 RESIDUE      1      MOL     
@<SCITEGIC>MOL_PROPERTY
VConf Rank
SciTegic.value.IntegerValue
586

@<SCITEGIC>MOL_PROPERTY
Conf_Id
SciTegic.value.IntegerValue
75

@<SCITEGIC>MOL_PROPERTY
Delta U+W
SciTegic.value.DoubleValue
1.014

@<SCITEGIC>MOL_PROPERTY
U+W
SciTegic.value.DoubleValue
-50.615

@<SCITEGIC>MOL_PROPERTY
Grad RMS
SciTegic.value.DoubleValue
0.000000

@<SCITEGIC>MOL_PROPERTY
U
SciTegic.value.DoubleValue
8.474

@<SCITEGIC>MOL_PROPERTY
W
SciTegic.value.DoubleValue
-59.089

@<SCITEGIC>MOL_PROPERTY
W(PB)
SciTegic.value.DoubleValue
-61.530

@<SCITEGIC>MOL_PROPERTY
W(SA)
SciTegic.value.DoubleValue
2.441

@<SCITEGIC>MOL_PROPERTY
Valence
SciTegic.value.DoubleValue
9.080

@<SCITEGIC>MOL_PROPERTY
Coulomb
SciTegic.value.DoubleValue
-1.772

@<SCITEGIC>MOL_PROPERTY
VdW
SciTegic.value.DoubleValue
1.165

@<SCITEGIC>MOL_PROPERTY
VdW6
SciTegic.value.DoubleValue
-9.830

@<SCITEGIC>MOL_PROPERTY
VdW12
SciTegic.value.DoubleValue
10.996

@<SCITEGIC>MOL_PROPERTY
Bond
SciTegic.value.DoubleValue
0.240

@<SCITEGIC>MOL_PROPERTY
Angle
SciTegic.value.DoubleValue
3.225

@<SCITEGIC>MOL_PROPERTY
Pdih
SciTegic.value.DoubleValue
5.615

@<SCITEGIC>MOL_PROPERTY
Idih
SciTegic.value.DoubleValue
0.001

@<SCITEGIC>MOL_PROPERTY
Tether
SciTegic.value.DoubleValue
0.000

@<TRIPOS>MOLECULE
guest-8_confgen4.mol2 : confsearch ligand conformer 587
          25          24           1
SMALL
USER_CHARGES
 
@<TRIPOS>ATOM
       1    C1      16.324934   20.074815   24.999706 C.2        1 MOL1         0.6168
       2    O1      15.773437   19.027954   25.276444 O.co2      1 MOL1        -0.6703
       3    O2      16.096668   21.126084   25.564857 O.co2      1 MOL1        -0.6703
       4    C2      17.377123   20.064393   23.896588 C.3        1 MOL1        -0.1963
       5    H1      17.351956   21.037964   23.392517 H          1 MOL1         0.0750
       6    H2      17.087509   19.308498   23.156755 H          1 MOL1         0.0750
       7    C3      18.802512   19.773936   24.427608 C.3        1 MOL1        -0.1860
       8    H3      19.072451   20.531565   25.176358 H          1 MOL1         0.0752
       9    H4      18.807384   18.802198   24.940673 H          1 MOL1         0.0752
      10    C4      19.848792   19.767153   23.292088 C.3        1 MOL1        -0.1858
      11    H5      19.840037   20.740013   22.781912 H          1 MOL1         0.0752
      12    H6      19.566625   19.017142   22.543704 H          1 MOL1         0.0752
      13    C5      21.271534   19.482596   23.828342 C.3        1 MOL1        -0.1858
      14    H7      21.529127   20.270617   24.549164 H          1 MOL1         0.0752
      15    H8      21.287283   18.537969   24.388922 H          1 MOL1         0.0752
      16    C6      22.353220   19.459684   22.718452 C.3        1 MOL1        -0.1858
      17    H9      23.274214   19.894254   23.130505 H          1 MOL1         0.0752
      18    H10     22.060244   20.115223   21.887027 H          1 MOL1         0.0752
      19    C7      22.702778   18.048178   22.185194 C.3        1 MOL1        -0.1834
      20    H11     23.530400   18.141509   21.468603 H          1 MOL1         0.0752
      21    H12     23.078765   17.426110   23.009150 H          1 MOL1         0.0752
      22    C8      21.528928   17.325081   21.492677 C.3        1 MOL1        -0.2849
      23    H13     21.088663   17.951765   20.706295 H          1 MOL1         0.0764
      24    H14     21.872975   16.391512   21.029175 H          1 MOL1         0.0764
      25    H15     20.743620   17.065837   22.213585 H          1 MOL1         0.0764
@<TRIPOS>BOND
    1     1     2    1
    2     1     3    2
    3     1     4    1
    4     4     5    1
    5     4     6    1
    6     4     7    1
    7     7     8    1
    8     7     9    1
    9     7    10    1
   10    10    11    1
   11    10    12    1
   12    10    13    1
   13    13    14    1
   14    13    15    1
   15    13    16    1
   16    16    17    1
   17    16    18    1
   18    16    19    1
   19    19    20    1
   20    19    21    1
   21    19    22    1
   22    22    23    1
   23    22    24    1
   24    22    25    1
@<TRIPOS>SUBSTRUCTURE
       1 MOL1            1 RESIDUE      1      MOL     
@<SCITEGIC>MOL_PROPERTY
VConf Rank
SciTegic.value.IntegerValue
587

@<SCITEGIC>MOL_PROPERTY
Conf_Id
SciTegic.value.IntegerValue
125

@<SCITEGIC>MOL_PROPERTY
Delta U+W
SciTegic.value.DoubleValue
2.314

@<SCITEGIC>MOL_PROPERTY
U+W
SciTegic.value.DoubleValue
-49.315

@<SCITEGIC>MOL_PROPERTY
Grad RMS
SciTegic.value.DoubleValue
0.000000

@<SCITEGIC>MOL_PROPERTY
U
SciTegic.value.DoubleValue
9.740

@<SCITEGIC>MOL_PROPERTY
W
SciTegic.value.DoubleValue
-59.054

@<SCITEGIC>MOL_PROPERTY
W(PB)
SciTegic.value.DoubleValue
-61.488

@<SCITEGIC>MOL_PROPERTY
W(SA)
SciTegic.value.DoubleValue
2.433

@<SCITEGIC>MOL_PROPERTY
Valence
SciTegic.value.DoubleValue
10.506

@<SCITEGIC>MOL_PROPERTY
Coulomb
SciTegic.value.DoubleValue
-1.761

@<SCITEGIC>MOL_PROPERTY
VdW
SciTegic.value.DoubleValue
0.994

@<SCITEGIC>MOL_PROPERTY
VdW6
SciTegic.value.DoubleValue
-9.209

@<SCITEGIC>MOL_PROPERTY
VdW12
SciTegic.value.DoubleValue
10.203

@<SCITEGIC>MOL_PROPERTY
Bond
SciTegic.value.DoubleValue
0.193

@<SCITEGIC>MOL_PROPERTY
Angle
SciTegic.value.DoubleValue
2.979

@<SCITEGIC>MOL_PROPERTY
Pdih
SciTegic.value.DoubleValue
7.334

@<SCITEGIC>MOL_PROPERTY
Idih
SciTegic.value.DoubleValue
0.001

@<SCITEGIC>MOL_PROPERTY
Tether
SciTegic.value.DoubleValue
0.000

@<TRIPOS>MOLECULE
guest-8_confgen4.mol2 : confsearch ligand conformer 588
          25          24           1
SMALL
USER_CHARGES
 
@<TRIPOS>ATOM
       1    C1      22.360053   15.801100   23.987891 C.2        1 MOL1         0.6168
       2    O1      21.643010   14.863273   23.699753 O.co2      1 MOL1        -0.6703
       3    O2      23.450180   15.679130   24.510854 O.co2      1 MOL1        -0.6703
       4    C2      21.853839   17.209853   23.699480 C.3        1 MOL1        -0.1963
       5    H1      21.241137   17.164055   22.792166 H          1 MOL1         0.0750
       6    H2      22.720384   17.843500   23.475992 H          1 MOL1         0.0750
       7    C3      21.042700   17.808431   24.878038 C.3        1 MOL1        -0.1860
       8    H3      20.152458   17.191101   25.061618 H          1 MOL1         0.0752
       9    H4      21.652611   17.751903   25.790320 H          1 MOL1         0.0752
      10    C4      20.621280   19.280321   24.654216 C.3        1 MOL1        -0.1858
      11    H5      21.514128   19.896469   24.480564 H          1 MOL1         0.0752
      12    H6      20.160323   19.654596   25.578525 H          1 MOL1         0.0752
      13    C5      19.626300   19.464294   23.484872 C.3        1 MOL1        -0.1858
      14    H7      20.102013   19.156596   22.545912 H          1 MOL1         0.0752
      15    H8      18.757125   18.809927   23.636207 H          1 MOL1         0.0752
      16    C6      19.152983   20.931579   23.365497 C.3        1 MOL1        -0.1858
      17    H9      20.014887   21.583265   23.167221 H          1 MOL1         0.0752
      18    H10     18.735559   21.252579   24.329634 H          1 MOL1         0.0752
      19    C7      18.080633   21.145094   22.271744 C.3        1 MOL1        -0.1834
      20    H11     17.214585   20.498595   22.470004 H          1 MOL1         0.0752
      21    H12     17.715831   22.179673   22.333337 H          1 MOL1         0.0752
      22    C8      18.604730   20.887518   20.842212 C.3        1 MOL1        -0.2849
      23    H13     18.872374   19.833462   20.697226 H          1 MOL1         0.0764
      24    H14     17.835922   21.139656   20.100420 H          1 MOL1         0.0764
      25    H15     19.490905   21.500442   20.632151 H          1 MOL1         0.0764
@<TRIPOS>BOND
    1     1     2    1
    2     1     3    2
    3     1     4    1
    4     4     5    1
    5     4     6    1
    6     4     7    1
    7     7     8    1
    8     7     9    1
    9     7    10    1
   10    10    11    1
   11    10    12    1
   12    10    13    1
   13    13    14    1
   14    13    15    1
   15    13    16    1
   16    16    17    1
   17    16    18    1
   18    16    19    1
   19    19    20    1
   20    19    21    1
   21    19    22    1
   22    22    23    1
   23    22    24    1
   24    22    25    1
@<TRIPOS>SUBSTRUCTURE
       1 MOL1            1 RESIDUE      1      MOL     
@<SCITEGIC>MOL_PROPERTY
VConf Rank
SciTegic.value.IntegerValue
588

@<SCITEGIC>MOL_PROPERTY
Conf_Id
SciTegic.value.IntegerValue
4

@<SCITEGIC>MOL_PROPERTY
Delta U+W
SciTegic.value.DoubleValue
0.189

@<SCITEGIC>MOL_PROPERTY
U+W
SciTegic.value.DoubleValue
-51.441

@<SCITEGIC>MOL_PROPERTY
Grad RMS
SciTegic.value.DoubleValue
0.000000

@<SCITEGIC>MOL_PROPERTY
U
SciTegic.value.DoubleValue
7.701

@<SCITEGIC>MOL_PROPERTY
W
SciTegic.value.DoubleValue
-59.141

@<SCITEGIC>MOL_PROPERTY
W(PB)
SciTegic.value.DoubleValue
-61.609

@<SCITEGIC>MOL_PROPERTY
W(SA)
SciTegic.value.DoubleValue
2.467

@<SCITEGIC>MOL_PROPERTY
Valence
SciTegic.value.DoubleValue
8.550

@<SCITEGIC>MOL_PROPERTY
Coulomb
SciTegic.value.DoubleValue
-1.988

@<SCITEGIC>MOL_PROPERTY
VdW
SciTegic.value.DoubleValue
1.139

@<SCITEGIC>MOL_PROPERTY
VdW6
SciTegic.value.DoubleValue
-8.988

@<SCITEGIC>MOL_PROPERTY
VdW12
SciTegic.value.DoubleValue
10.127

@<SCITEGIC>MOL_PROPERTY
Bond
SciTegic.value.DoubleValue
0.191

@<SCITEGIC>MOL_PROPERTY
Angle
SciTegic.value.DoubleValue
2.738

@<SCITEGIC>MOL_PROPERTY
Pdih
SciTegic.value.DoubleValue
5.621

@<SCITEGIC>MOL_PROPERTY
Idih
SciTegic.value.DoubleValue
0.001

@<SCITEGIC>MOL_PROPERTY
Tether
SciTegic.value.DoubleValue
0.000

@<TRIPOS>MOLECULE
guest-8_confgen4.mol2 : confsearch ligand conformer 589
          25          24           1
SMALL
USER_CHARGES
 
@<TRIPOS>ATOM
       1    C1      16.197757   17.871471   22.864868 C.2        1 MOL1         0.6168
       2    O1      16.217211   17.148809   21.888101 O.co2      1 MOL1        -0.6703
       3    O2      15.232690   17.992747   23.593345 O.co2      1 MOL1        -0.6703
       4    C2      17.461696   18.651229   23.209045 C.3        1 MOL1        -0.1963
       5    H1      17.161680   19.592072   23.685660 H          1 MOL1         0.0750
       6    H2      17.961181   18.907565   22.268020 H          1 MOL1         0.0750
       7    C3      18.418809   17.861323   24.139218 C.3        1 MOL1        -0.1860
       8    H3      17.859727   17.539314   25.028704 H          1 MOL1         0.0752
       9    H4      18.749314   16.944320   23.632069 H          1 MOL1         0.0752
      10    C4      19.650348   18.678531   24.597081 C.3        1 MOL1        -0.1858
      11    H5      20.204126   18.087005   25.338929 H          1 MOL1         0.0752
      12    H6      19.316636   19.589618   25.112375 H          1 MOL1         0.0752
      13    C5      20.603939   19.054839   23.439389 C.3        1 MOL1        -0.1858
      14    H7      20.896590   18.146737   22.895083 H          1 MOL1         0.0752
      15    H8      20.079127   19.702746   22.727059 H          1 MOL1         0.0752
      16    C6      21.869766   19.777118   23.956299 C.3        1 MOL1        -0.1858
      17    H9      22.355142   19.149161   24.715854 H          1 MOL1         0.0752
      18    H10     21.583271   20.710046   24.460734 H          1 MOL1         0.0752
      19    C7      22.899509   20.085458   22.844376 C.3        1 MOL1        -0.1834
      20    H11     23.810717   20.486216   23.309478 H          1 MOL1         0.0752
      21    H12     23.192313   19.153652   22.341077 H          1 MOL1         0.0752
      22    C8      22.386979   21.101030   21.800098 C.3        1 MOL1        -0.2849
      23    H13     22.058457   22.030135   22.283778 H          1 MOL1         0.0764
      24    H14     23.183085   21.354007   21.087980 H          1 MOL1         0.0764
      25    H15     21.544995   20.695036   21.225712 H          1 MOL1         0.0764
@<TRIPOS>BOND
    1     1     2    1
    2     1     3    2
    3     1     4    1
    4     4     5    1
    5     4     6    1
    6     4     7    1
    7     7     8    1
    8     7     9    1
    9     7    10    1
   10    10    11    1
   11    10    12    1
   12    10    13    1
   13    13    14    1
   14    13    15    1
   15    13    16    1
   16    16    17    1
   17    16    18    1
   18    16    19    1
   19    19    20    1
   20    19    21    1
   21    19    22    1
   22    22    23    1
   23    22    24    1
   24    22    25    1
@<TRIPOS>SUBSTRUCTURE
       1 MOL1            1 RESIDUE      1      MOL     
@<SCITEGIC>MOL_PROPERTY
VConf Rank
SciTegic.value.IntegerValue
589

@<SCITEGIC>MOL_PROPERTY
Conf_Id
SciTegic.value.IntegerValue
17

@<SCITEGIC>MOL_PROPERTY
Delta U+W
SciTegic.value.DoubleValue
0.219

@<SCITEGIC>MOL_PROPERTY
U+W
SciTegic.value.DoubleValue
-51.411

@<SCITEGIC>MOL_PROPERTY
Grad RMS
SciTegic.value.DoubleValue
0.000000

@<SCITEGIC>MOL_PROPERTY
U
SciTegic.value.DoubleValue
7.701

@<SCITEGIC>MOL_PROPERTY
W
SciTegic.value.DoubleValue
-59.111

@<SCITEGIC>MOL_PROPERTY
W(PB)
SciTegic.value.DoubleValue
-61.599

@<SCITEGIC>MOL_PROPERTY
W(SA)
SciTegic.value.DoubleValue
2.488

@<SCITEGIC>MOL_PROPERTY
Valence
SciTegic.value.DoubleValue
8.550

@<SCITEGIC>MOL_PROPERTY
Coulomb
SciTegic.value.DoubleValue
-1.988

@<SCITEGIC>MOL_PROPERTY
VdW
SciTegic.value.DoubleValue
1.139

@<SCITEGIC>MOL_PROPERTY
VdW6
SciTegic.value.DoubleValue
-8.988

@<SCITEGIC>MOL_PROPERTY
VdW12
SciTegic.value.DoubleValue
10.127

@<SCITEGIC>MOL_PROPERTY
Bond
SciTegic.value.DoubleValue
0.191

@<SCITEGIC>MOL_PROPERTY
Angle
SciTegic.value.DoubleValue
2.738

@<SCITEGIC>MOL_PROPERTY
Pdih
SciTegic.value.DoubleValue
5.621

@<SCITEGIC>MOL_PROPERTY
Idih
SciTegic.value.DoubleValue
0.001

@<SCITEGIC>MOL_PROPERTY
Tether
SciTegic.value.DoubleValue
0.000

@<TRIPOS>MOLECULE
guest-8_confgen4.mol2 : confsearch ligand conformer 590
          25          24           1
SMALL
USER_CHARGES
 
@<TRIPOS>ATOM
       1    C1      19.159464   22.718588   24.872505 C.2        1 MOL1         0.6168
       2    O1      20.017731   23.527397   24.578792 O.co2      1 MOL1        -0.6703
       3    O2      18.929163   22.366000   26.012557 O.co2      1 MOL1        -0.6703
       4    C2      18.309997   22.126324   23.751540 C.3        1 MOL1        -0.1963
       5    H1      18.380989   22.781656   22.875028 H          1 MOL1         0.0750
       6    H2      17.265205   22.151669   24.082829 H          1 MOL1         0.0750
       7    C3      18.697239   20.674252   23.368882 C.3        1 MOL1        -0.1860
       8    H3      18.637236   20.042591   24.265024 H          1 MOL1         0.0752
       9    H4      17.959186   20.284463   22.655014 H          1 MOL1         0.0752
      10    C4      20.110018   20.583619   22.743907 C.3        1 MOL1        -0.1858
      11    H5      20.863415   20.905166   23.476246 H          1 MOL1         0.0752
      12    H6      20.174752   21.288895   21.904121 H          1 MOL1         0.0752
      13    C5      20.465229   19.169498   22.226404 C.3        1 MOL1        -0.1858
      14    H7      19.718079   18.849429   21.487369 H          1 MOL1         0.0752
      15    H8      21.424661   19.225007   21.694176 H          1 MOL1         0.0752
      16    C6      20.574369   18.112140   23.349398 C.3        1 MOL1        -0.1858
      17    H9      19.602096   17.988689   23.843739 H          1 MOL1         0.0752
      18    H10     21.281459   18.460930   24.114423 H          1 MOL1         0.0752
      19    C7      21.039301   16.745758   22.802968 C.3        1 MOL1        -0.1834
      20    H11     20.334942   16.394875   22.036014 H          1 MOL1         0.0752
      21    H12     22.016633   16.855334   22.312827 H          1 MOL1         0.0752
      22    C8      21.144066   15.691502   23.923365 C.3        1 MOL1        -0.2849
      23    H13     20.172109   15.537820   24.410258 H          1 MOL1         0.0764
      24    H14     21.476001   14.727097   23.517411 H          1 MOL1         0.0764
      25    H15     21.865862   16.003234   24.689665 H          1 MOL1         0.0764
@<TRIPOS>BOND
    1     1     2    1
    2     1     3    2
    3     1     4    1
    4     4     5    1
    5     4     6    1
    6     4     7    1
    7     7     8    1
    8     7     9    1
    9     7    10    1
   10    10    11    1
   11    10    12    1
   12    10    13    1
   13    13    14    1
   14    13    15    1
   15    13    16    1
   16    16    17    1
   17    16    18    1
   18    16    19    1
   19    19    20    1
   20    19    21    1
   21    19    22    1
   22    22    23    1
   23    22    24    1
   24    22    25    1
@<TRIPOS>SUBSTRUCTURE
       1 MOL1            1 RESIDUE      1      MOL     
@<SCITEGIC>MOL_PROPERTY
VConf Rank
SciTegic.value.IntegerValue
590

@<SCITEGIC>MOL_PROPERTY
Conf_Id
SciTegic.value.IntegerValue
142

@<SCITEGIC>MOL_PROPERTY
Delta U+W
SciTegic.value.DoubleValue
0.593

@<SCITEGIC>MOL_PROPERTY
U+W
SciTegic.value.DoubleValue
-51.037

@<SCITEGIC>MOL_PROPERTY
Grad RMS
SciTegic.value.DoubleValue
0.000000

@<SCITEGIC>MOL_PROPERTY
U
SciTegic.value.DoubleValue
8.903

@<SCITEGIC>MOL_PROPERTY
W
SciTegic.value.DoubleValue
-59.940

@<SCITEGIC>MOL_PROPERTY
W(PB)
SciTegic.value.DoubleValue
-62.418

@<SCITEGIC>MOL_PROPERTY
W(SA)
SciTegic.value.DoubleValue
2.478

@<SCITEGIC>MOL_PROPERTY
Valence
SciTegic.value.DoubleValue
8.305

@<SCITEGIC>MOL_PROPERTY
Coulomb
SciTegic.value.DoubleValue
-0.223

@<SCITEGIC>MOL_PROPERTY
VdW
SciTegic.value.DoubleValue
0.821

@<SCITEGIC>MOL_PROPERTY
VdW6
SciTegic.value.DoubleValue
-9.236

@<SCITEGIC>MOL_PROPERTY
VdW12
SciTegic.value.DoubleValue
10.057

@<SCITEGIC>MOL_PROPERTY
Bond
SciTegic.value.DoubleValue
0.173

@<SCITEGIC>MOL_PROPERTY
Angle
SciTegic.value.DoubleValue
2.663

@<SCITEGIC>MOL_PROPERTY
Pdih
SciTegic.value.DoubleValue
5.469

@<SCITEGIC>MOL_PROPERTY
Idih
SciTegic.value.DoubleValue
0.001

@<SCITEGIC>MOL_PROPERTY
Tether
SciTegic.value.DoubleValue
0.000

@<TRIPOS>MOLECULE
guest-8_confgen4.mol2 : confsearch ligand conformer 591
          25          24           1
SMALL
USER_CHARGES
 
@<TRIPOS>ATOM
       1    C1      23.576931   18.539187   22.466979 C.2        1 MOL1         0.6168
       2    O1      24.581888   18.029679   22.923074 O.co2      1 MOL1        -0.6703
       3    O2      23.196609   18.370085   21.325131 O.co2      1 MOL1        -0.6703
       4    C2      22.765813   19.462862   23.371330 C.3        1 MOL1        -0.1963
       5    H1      22.075693   20.045451   22.750346 H          1 MOL1         0.0750
       6    H2      23.464892   20.180621   23.815885 H          1 MOL1         0.0750
       7    C3      21.995704   18.727215   24.501767 C.3        1 MOL1        -0.1860
       8    H3      22.722287   18.210903   25.144166 H          1 MOL1         0.0752
       9    H4      21.500633   19.467679   25.143223 H          1 MOL1         0.0752
      10    C4      20.955286   17.692645   23.999933 C.3        1 MOL1        -0.1858
      11    H5      20.473503   17.226556   24.870131 H          1 MOL1         0.0752
      12    H6      21.480873   16.882163   23.476518 H          1 MOL1         0.0752
      13    C5      19.858952   18.257749   23.062365 C.3        1 MOL1        -0.1858
      14    H7      20.315420   18.627591   22.134459 H          1 MOL1         0.0752
      15    H8      19.198742   17.431314   22.766290 H          1 MOL1         0.0752
      16    C6      19.007297   19.374218   23.709550 C.3        1 MOL1        -0.1858
      17    H9      19.641886   20.238373   23.945424 H          1 MOL1         0.0752
      18    H10     18.589155   19.013296   24.659060 H          1 MOL1         0.0752
      19    C7      17.861800   19.828666   22.780707 C.3        1 MOL1        -0.1834
      20    H11     18.277858   20.187662   21.829134 H          1 MOL1         0.0752
      21    H12     17.214749   18.972783   22.543721 H          1 MOL1         0.0752
      22    C8      17.017138   20.946294   23.425027 C.3        1 MOL1        -0.2849
      23    H13     17.633620   21.828123   23.643415 H          1 MOL1         0.0764
      24    H14     16.207897   21.256861   22.751445 H          1 MOL1         0.0764
      25    H15     16.563716   20.603785   24.364415 H          1 MOL1         0.0764
@<TRIPOS>BOND
    1     1     2    1
    2     1     3    2
    3     1     4    1
    4     4     5    1
    5     4     6    1
    6     4     7    1
    7     7     8    1
    8     7     9    1
    9     7    10    1
   10    10    11    1
   11    10    12    1
   12    10    13    1
   13    13    14    1
   14    13    15    1
   15    13    16    1
   16    16    17    1
   17    16    18    1
   18    16    19    1
   19    19    20    1
   20    19    21    1
   21    19    22    1
   22    22    23    1
   23    22    24    1
   24    22    25    1
@<TRIPOS>SUBSTRUCTURE
       1 MOL1            1 RESIDUE      1      MOL     
@<SCITEGIC>MOL_PROPERTY
VConf Rank
SciTegic.value.IntegerValue
591

@<SCITEGIC>MOL_PROPERTY
Conf_Id
SciTegic.value.IntegerValue
135

@<SCITEGIC>MOL_PROPERTY
Delta U+W
SciTegic.value.DoubleValue
1.314

@<SCITEGIC>MOL_PROPERTY
U+W
SciTegic.value.DoubleValue
-50.316

@<SCITEGIC>MOL_PROPERTY
Grad RMS
SciTegic.value.DoubleValue
0.000000

@<SCITEGIC>MOL_PROPERTY
U
SciTegic.value.DoubleValue
9.773

@<SCITEGIC>MOL_PROPERTY
W
SciTegic.value.DoubleValue
-60.088

@<SCITEGIC>MOL_PROPERTY
W(PB)
SciTegic.value.DoubleValue
-62.535

@<SCITEGIC>MOL_PROPERTY
W(SA)
SciTegic.value.DoubleValue
2.447

@<SCITEGIC>MOL_PROPERTY
Valence
SciTegic.value.DoubleValue
8.741

@<SCITEGIC>MOL_PROPERTY
Coulomb
SciTegic.value.DoubleValue
0.479

@<SCITEGIC>MOL_PROPERTY
VdW
SciTegic.value.DoubleValue
0.552

@<SCITEGIC>MOL_PROPERTY
VdW6
SciTegic.value.DoubleValue
-10.627

@<SCITEGIC>MOL_PROPERTY
VdW12
SciTegic.value.DoubleValue
11.179

@<SCITEGIC>MOL_PROPERTY
Bond
SciTegic.value.DoubleValue
0.227

@<SCITEGIC>MOL_PROPERTY
Angle
SciTegic.value.DoubleValue
3.155

@<SCITEGIC>MOL_PROPERTY
Pdih
SciTegic.value.DoubleValue
5.358

@<SCITEGIC>MOL_PROPERTY
Idih
SciTegic.value.DoubleValue
0.001

@<SCITEGIC>MOL_PROPERTY
Tether
SciTegic.value.DoubleValue
0.000

@<TRIPOS>MOLECULE
guest-8_confgen4.mol2 : confsearch ligand conformer 592
          25          24           1
SMALL
USER_CHARGES
 
@<TRIPOS>ATOM
       1    C1      23.064177   21.627363   21.518658 C.2        1 MOL1         0.6168
       2    O1      22.623855   22.456516   20.747061 O.co2      1 MOL1        -0.6703
       3    O2      24.161174   21.704728   22.035749 O.co2      1 MOL1        -0.6703
       4    C2      22.182700   20.435755   21.875378 C.3        1 MOL1        -0.1963
       5    H1      22.835638   19.577145   22.072378 H          1 MOL1         0.0750
       6    H2      21.581301   20.191627   20.992829 H          1 MOL1         0.0750
       7    C3      21.273556   20.709110   23.101984 C.3        1 MOL1        -0.1860
       8    H3      21.904103   21.044582   23.937038 H          1 MOL1         0.0752
       9    H4      20.590577   21.539800   22.876650 H          1 MOL1         0.0752
      10    C4      20.462525   19.473958   23.561941 C.3        1 MOL1        -0.1858
      11    H5      19.980261   19.724206   24.515244 H          1 MOL1         0.0752
      12    H6      21.145232   18.637132   23.762469 H          1 MOL1         0.0752
      13    C5      19.377880   19.036210   22.548834 C.3        1 MOL1        -0.1858
      14    H7      18.665776   19.859093   22.399277 H          1 MOL1         0.0752
      15    H8      19.841670   18.848568   21.572533 H          1 MOL1         0.0752
      16    C6      18.606090   17.756333   22.958374 C.3        1 MOL1        -0.1858
      17    H9      19.296729   16.904166   23.019487 H          1 MOL1         0.0752
      18    H10     17.909022   17.516622   22.143814 H          1 MOL1         0.0752
      19    C7      17.790000   17.880924   24.269356 C.3        1 MOL1        -0.1834
      20    H11     17.507783   18.928180   24.444977 H          1 MOL1         0.0752
      21    H12     16.848382   17.327074   24.151429 H          1 MOL1         0.0752
      22    C8      18.528303   17.310714   25.501036 C.3        1 MOL1        -0.2849
      23    H13     19.477854   17.826850   25.682902 H          1 MOL1         0.0764
      24    H14     17.910672   17.416799   26.402194 H          1 MOL1         0.0764
      25    H15     18.744454   16.242923   25.366198 H          1 MOL1         0.0764
@<TRIPOS>BOND
    1     1     2    1
    2     1     3    2
    3     1     4    1
    4     4     5    1
    5     4     6    1
    6     4     7    1
    7     7     8    1
    8     7     9    1
    9     7    10    1
   10    10    11    1
   11    10    12    1
   12    10    13    1
   13    13    14    1
   14    13    15    1
   15    13    16    1
   16    16    17    1
   17    16    18    1
   18    16    19    1
   19    19    20    1
   20    19    21    1
   21    19    22    1
   22    22    23    1
   23    22    24    1
   24    22    25    1
@<TRIPOS>SUBSTRUCTURE
       1 MOL1            1 RESIDUE      1      MOL     
@<SCITEGIC>MOL_PROPERTY
VConf Rank
SciTegic.value.IntegerValue
592

@<SCITEGIC>MOL_PROPERTY
Conf_Id
SciTegic.value.IntegerValue
19

@<SCITEGIC>MOL_PROPERTY
Delta U+W
SciTegic.value.DoubleValue
3.222

@<SCITEGIC>MOL_PROPERTY
U+W
SciTegic.value.DoubleValue
-48.407

@<SCITEGIC>MOL_PROPERTY
Grad RMS
SciTegic.value.DoubleValue
0.000000

@<SCITEGIC>MOL_PROPERTY
U
SciTegic.value.DoubleValue
10.617

@<SCITEGIC>MOL_PROPERTY
W
SciTegic.value.DoubleValue
-59.025

@<SCITEGIC>MOL_PROPERTY
W(PB)
SciTegic.value.DoubleValue
-61.462

@<SCITEGIC>MOL_PROPERTY
W(SA)
SciTegic.value.DoubleValue
2.437

@<SCITEGIC>MOL_PROPERTY
Valence
SciTegic.value.DoubleValue
11.188

@<SCITEGIC>MOL_PROPERTY
Coulomb
SciTegic.value.DoubleValue
-1.778

@<SCITEGIC>MOL_PROPERTY
VdW
SciTegic.value.DoubleValue
1.208

@<SCITEGIC>MOL_PROPERTY
VdW6
SciTegic.value.DoubleValue
-9.786

@<SCITEGIC>MOL_PROPERTY
VdW12
SciTegic.value.DoubleValue
10.993

@<SCITEGIC>MOL_PROPERTY
Bond
SciTegic.value.DoubleValue
0.241

@<SCITEGIC>MOL_PROPERTY
Angle
SciTegic.value.DoubleValue
3.294

@<SCITEGIC>MOL_PROPERTY
Pdih
SciTegic.value.DoubleValue
7.653

@<SCITEGIC>MOL_PROPERTY
Idih
SciTegic.value.DoubleValue
0.001

@<SCITEGIC>MOL_PROPERTY
Tether
SciTegic.value.DoubleValue
0.000

@<TRIPOS>MOLECULE
guest-8_confgen4.mol2 : confsearch ligand conformer 593
          25          24           1
SMALL
USER_CHARGES
 
@<TRIPOS>ATOM
       1    C1      19.368083   22.564579   20.831932 C.2        1 MOL1         0.6168
       2    O1      19.838569   22.469562   19.715529 O.co2      1 MOL1        -0.6703
       3    O2      19.055781   23.621998   21.342913 O.co2      1 MOL1        -0.6703
       4    C2      19.180894   21.288942   21.645501 C.3        1 MOL1        -0.1963
       5    H1      18.937760   20.481653   20.945969 H          1 MOL1         0.0750
       6    H2      18.310987   21.427170   22.298573 H          1 MOL1         0.0750
       7    C3      20.431280   20.927623   22.489190 C.3        1 MOL1        -0.1860
       8    H3      21.285211   20.744112   21.822550 H          1 MOL1         0.0752
       9    H4      20.700717   21.796660   23.105328 H          1 MOL1         0.0752
      10    C4      20.221928   19.709228   23.420115 C.3        1 MOL1        -0.1858
      11    H5      19.352529   19.884252   24.068260 H          1 MOL1         0.0752
      12    H6      21.096939   19.634274   24.077935 H          1 MOL1         0.0752
      13    C5      20.049108   18.373496   22.658263 C.3        1 MOL1        -0.1858
      14    H7      19.217550   18.460777   21.948073 H          1 MOL1         0.0752
      15    H8      20.948129   18.177330   22.058365 H          1 MOL1         0.0752
      16    C6      19.763933   17.154182   23.571182 C.3        1 MOL1        -0.1858
      17    H9      19.607494   16.283649   22.919591 H          1 MOL1         0.0752
      18    H10     18.815814   17.299156   24.106868 H          1 MOL1         0.0752
      19    C7      20.897509   16.810581   24.569755 C.3        1 MOL1        -0.1834
      20    H11     20.973348   15.717611   24.653218 H          1 MOL1         0.0752
      21    H12     21.865813   17.154560   24.180783 H          1 MOL1         0.0752
      22    C8      20.654465   17.381780   25.984649 C.3        1 MOL1        -0.2849
      23    H13     19.726721   16.980630   26.412963 H          1 MOL1         0.0764
      24    H14     21.479140   17.109214   26.655786 H          1 MOL1         0.0764
      25    H15     20.576943   18.474954   25.975799 H          1 MOL1         0.0764
@<TRIPOS>BOND
    1     1     2    1
    2     1     3    2
    3     1     4    1
    4     4     5    1
    5     4     6    1
    6     4     7    1
    7     7     8    1
    8     7     9    1
    9     7    10    1
   10    10    11    1
   11    10    12    1
   12    10    13    1
   13    13    14    1
   14    13    15    1
   15    13    16    1
   16    16    17    1
   17    16    18    1
   18    16    19    1
   19    19    20    1
   20    19    21    1
   21    19    22    1
   22    22    23    1
   23    22    24    1
   24    22    25    1
@<TRIPOS>SUBSTRUCTURE
       1 MOL1            1 RESIDUE      1      MOL     
@<SCITEGIC>MOL_PROPERTY
VConf Rank
SciTegic.value.IntegerValue
593

@<SCITEGIC>MOL_PROPERTY
Conf_Id
SciTegic.value.IntegerValue
20

@<SCITEGIC>MOL_PROPERTY
Delta U+W
SciTegic.value.DoubleValue
3.224

@<SCITEGIC>MOL_PROPERTY
U+W
SciTegic.value.DoubleValue
-48.406

@<SCITEGIC>MOL_PROPERTY
Grad RMS
SciTegic.value.DoubleValue
0.000000

@<SCITEGIC>MOL_PROPERTY
U
SciTegic.value.DoubleValue
10.617

@<SCITEGIC>MOL_PROPERTY
W
SciTegic.value.DoubleValue
-59.023

@<SCITEGIC>MOL_PROPERTY
W(PB)
SciTegic.value.DoubleValue
-61.467

@<SCITEGIC>MOL_PROPERTY
W(SA)
SciTegic.value.DoubleValue
2.444

@<SCITEGIC>MOL_PROPERTY
Valence
SciTegic.value.DoubleValue
11.188

@<SCITEGIC>MOL_PROPERTY
Coulomb
SciTegic.value.DoubleValue
-1.778

@<SCITEGIC>MOL_PROPERTY
VdW
SciTegic.value.DoubleValue
1.208

@<SCITEGIC>MOL_PROPERTY
VdW6
SciTegic.value.DoubleValue
-9.786

@<SCITEGIC>MOL_PROPERTY
VdW12
SciTegic.value.DoubleValue
10.993

@<SCITEGIC>MOL_PROPERTY
Bond
SciTegic.value.DoubleValue
0.241

@<SCITEGIC>MOL_PROPERTY
Angle
SciTegic.value.DoubleValue
3.294

@<SCITEGIC>MOL_PROPERTY
Pdih
SciTegic.value.DoubleValue
7.653

@<SCITEGIC>MOL_PROPERTY
Idih
SciTegic.value.DoubleValue
0.001

@<SCITEGIC>MOL_PROPERTY
Tether
SciTegic.value.DoubleValue
0.000

@<TRIPOS>MOLECULE
guest-8_confgen4.mol2 : confsearch ligand conformer 594
          25          24           1
SMALL
USER_CHARGES
 
@<TRIPOS>ATOM
       1    C1      20.437965   16.603495   21.880168 C.2        1 MOL1         0.6168
       2    O1      21.193535   16.921553   20.982618 O.co2      1 MOL1        -0.6703
       3    O2      19.245395   16.429565   21.722863 O.co2      1 MOL1        -0.6703
       4    C2      21.026636   16.343787   23.265595 C.3        1 MOL1        -0.1963
       5    H1      21.707155   15.491495   23.156240 H          1 MOL1         0.0750
       6    H2      20.223892   16.020002   23.939060 H          1 MOL1         0.0750
       7    C3      21.805247   17.536004   23.889690 C.3        1 MOL1        -0.1860
       8    H3      22.468731   17.136979   24.668791 H          1 MOL1         0.0752
       9    H4      22.463628   17.989219   23.135552 H          1 MOL1         0.0752
      10    C4      20.915152   18.623997   24.540140 C.3        1 MOL1        -0.1858
      11    H5      21.569421   19.326768   25.074020 H          1 MOL1         0.0752
      12    H6      20.268133   18.166250   25.300843 H          1 MOL1         0.0752
      13    C5      20.051681   19.416916   23.533002 C.3        1 MOL1        -0.1858
      14    H7      20.685101   19.786943   22.715135 H          1 MOL1         0.0752
      15    H8      19.300594   18.754984   23.083872 H          1 MOL1         0.0752
      16    C6      19.332119   20.604611   24.208411 C.3        1 MOL1        -0.1858
      17    H9      20.075265   21.279395   24.654917 H          1 MOL1         0.0752
      18    H10     18.703036   20.233182   25.028977 H          1 MOL1         0.0752
      19    C7      18.460669   21.390192   23.206007 C.3        1 MOL1        -0.1834
      20    H11     19.087212   21.763810   22.384234 H          1 MOL1         0.0752
      21    H12     17.714792   20.718665   22.758430 H          1 MOL1         0.0752
      22    C8      17.743032   22.575080   23.883286 C.3        1 MOL1        -0.2849
      23    H13     18.467431   23.279573   24.312593 H          1 MOL1         0.0764
      24    H14     17.128448   23.121830   23.156364 H          1 MOL1         0.0764
      25    H15     17.084541   22.226429   24.689639 H          1 MOL1         0.0764
@<TRIPOS>BOND
    1     1     2    1
    2     1     3    2
    3     1     4    1
    4     4     5    1
    5     4     6    1
    6     4     7    1
    7     7     8    1
    8     7     9    1
    9     7    10    1
   10    10    11    1
   11    10    12    1
   12    10    13    1
   13    13    14    1
   14    13    15    1
   15    13    16    1
   16    16    17    1
   17    16    18    1
   18    16    19    1
   19    19    20    1
   20    19    21    1
   21    19    22    1
   22    22    23    1
   23    22    24    1
   24    22    25    1
@<TRIPOS>SUBSTRUCTURE
       1 MOL1            1 RESIDUE      1      MOL     
@<SCITEGIC>MOL_PROPERTY
VConf Rank
SciTegic.value.IntegerValue
594

@<SCITEGIC>MOL_PROPERTY
Conf_Id
SciTegic.value.IntegerValue
24

@<SCITEGIC>MOL_PROPERTY
Delta U+W
SciTegic.value.DoubleValue
1.784

@<SCITEGIC>MOL_PROPERTY
U+W
SciTegic.value.DoubleValue
-49.846

@<SCITEGIC>MOL_PROPERTY
Grad RMS
SciTegic.value.DoubleValue
0.000000

@<SCITEGIC>MOL_PROPERTY
U
SciTegic.value.DoubleValue
10.904

@<SCITEGIC>MOL_PROPERTY
W
SciTegic.value.DoubleValue
-60.749

@<SCITEGIC>MOL_PROPERTY
W(PB)
SciTegic.value.DoubleValue
-63.220

@<SCITEGIC>MOL_PROPERTY
W(SA)
SciTegic.value.DoubleValue
2.471

@<SCITEGIC>MOL_PROPERTY
Valence
SciTegic.value.DoubleValue
9.445

@<SCITEGIC>MOL_PROPERTY
Coulomb
SciTegic.value.DoubleValue
0.780

@<SCITEGIC>MOL_PROPERTY
VdW
SciTegic.value.DoubleValue
0.679

@<SCITEGIC>MOL_PROPERTY
VdW6
SciTegic.value.DoubleValue
-10.008

@<SCITEGIC>MOL_PROPERTY
VdW12
SciTegic.value.DoubleValue
10.687

@<SCITEGIC>MOL_PROPERTY
Bond
SciTegic.value.DoubleValue
0.201

@<SCITEGIC>MOL_PROPERTY
Angle
SciTegic.value.DoubleValue
3.198

@<SCITEGIC>MOL_PROPERTY
Pdih
SciTegic.value.DoubleValue
6.039

@<SCITEGIC>MOL_PROPERTY
Idih
SciTegic.value.DoubleValue
0.006

@<SCITEGIC>MOL_PROPERTY
Tether
SciTegic.value.DoubleValue
0.000

@<TRIPOS>MOLECULE
guest-8_confgen4.mol2 : confsearch ligand conformer 595
          25          24           1
SMALL
USER_CHARGES
 
@<TRIPOS>ATOM
       1    C1      21.991489   20.393502   25.790013 C.2        1 MOL1         0.6168
       2    O1      21.778366   19.800813   26.829697 O.co2      1 MOL1        -0.6703
       3    O2      22.982958   20.218181   25.109229 O.co2      1 MOL1        -0.6703
       4    C2      20.994837   21.463400   25.347978 C.3        1 MOL1        -0.1963
       5    H1      21.360217   21.931907   24.426140 H          1 MOL1         0.0750
       6    H2      21.012132   22.239107   26.122216 H          1 MOL1         0.0750
       7    C3      19.532658   20.970177   25.158593 C.3        1 MOL1        -0.1860
       8    H3      19.243694   20.323615   25.998863 H          1 MOL1         0.0752
       9    H4      18.870466   21.845017   25.209432 H          1 MOL1         0.0752
      10    C4      19.259095   20.249134   23.815334 C.3        1 MOL1        -0.1858
      11    H5      19.538779   20.905293   22.979829 H          1 MOL1         0.0752
      12    H6      18.176149   20.085193   23.729684 H          1 MOL1         0.0752
      13    C5      19.979919   18.889584   23.671593 C.3        1 MOL1        -0.1858
      14    H7      21.064822   19.046326   23.622356 H          1 MOL1         0.0752
      15    H8      19.783662   18.272322   24.559015 H          1 MOL1         0.0752
      16    C6      19.525559   18.133323   22.404235 C.3        1 MOL1        -0.1858
      17    H9      19.718087   18.754044   21.518419 H          1 MOL1         0.0752
      18    H10     18.441032   17.963033   22.446277 H          1 MOL1         0.0752
      19    C7      20.253151   16.780800   22.253695 C.3        1 MOL1        -0.1834
      20    H11     21.338472   16.947321   22.209491 H          1 MOL1         0.0752
      21    H12     20.061987   16.157176   23.138006 H          1 MOL1         0.0752
      22    C8      19.797801   16.028151   20.987265 C.3        1 MOL1        -0.2849
      23    H13     20.006418   16.616752   20.084269 H          1 MOL1         0.0764
      24    H14     20.325046   15.069607   20.896315 H          1 MOL1         0.0764
      25    H15     18.720212   15.820523   21.019875 H          1 MOL1         0.0764
@<TRIPOS>BOND
    1     1     2    1
    2     1     3    2
    3     1     4    1
    4     4     5    1
    5     4     6    1
    6     4     7    1
    7     7     8    1
    8     7     9    1
    9     7    10    1
   10    10    11    1
   11    10    12    1
   12    10    13    1
   13    13    14    1
   14    13    15    1
   15    13    16    1
   16    16    17    1
   17    16    18    1
   18    16    19    1
   19    19    20    1
   20    19    21    1
   21    19    22    1
   22    22    23    1
   23    22    24    1
   24    22    25    1
@<TRIPOS>SUBSTRUCTURE
       1 MOL1            1 RESIDUE      1      MOL     
@<SCITEGIC>MOL_PROPERTY
VConf Rank
SciTegic.value.IntegerValue
595

@<SCITEGIC>MOL_PROPERTY
Conf_Id
SciTegic.value.IntegerValue
9

@<SCITEGIC>MOL_PROPERTY
Delta U+W
SciTegic.value.DoubleValue
1.764

@<SCITEGIC>MOL_PROPERTY
U+W
SciTegic.value.DoubleValue
-49.865

@<SCITEGIC>MOL_PROPERTY
Grad RMS
SciTegic.value.DoubleValue
0.000000

@<SCITEGIC>MOL_PROPERTY
U
SciTegic.value.DoubleValue
10.902

@<SCITEGIC>MOL_PROPERTY
W
SciTegic.value.DoubleValue
-60.768

@<SCITEGIC>MOL_PROPERTY
W(PB)
SciTegic.value.DoubleValue
-63.223

@<SCITEGIC>MOL_PROPERTY
W(SA)
SciTegic.value.DoubleValue
2.456

@<SCITEGIC>MOL_PROPERTY
Valence
SciTegic.value.DoubleValue
9.445

@<SCITEGIC>MOL_PROPERTY
Coulomb
SciTegic.value.DoubleValue
0.778

@<SCITEGIC>MOL_PROPERTY
VdW
SciTegic.value.DoubleValue
0.679

@<SCITEGIC>MOL_PROPERTY
VdW6
SciTegic.value.DoubleValue
-10.007

@<SCITEGIC>MOL_PROPERTY
VdW12
SciTegic.value.DoubleValue
10.687

@<SCITEGIC>MOL_PROPERTY
Bond
SciTegic.value.DoubleValue
0.201

@<SCITEGIC>MOL_PROPERTY
Angle
SciTegic.value.DoubleValue
3.198

@<SCITEGIC>MOL_PROPERTY
Pdih
SciTegic.value.DoubleValue
6.040

@<SCITEGIC>MOL_PROPERTY
Idih
SciTegic.value.DoubleValue
0.006

@<SCITEGIC>MOL_PROPERTY
Tether
SciTegic.value.DoubleValue
0.000

@<TRIPOS>MOLECULE
guest-8_confgen4.mol2 : confsearch ligand conformer 596
          25          24           1
SMALL
USER_CHARGES
 
@<TRIPOS>ATOM
       1    C1      17.058654   19.026519   25.650964 C.2        1 MOL1         0.6168
       2    O1      17.497647   18.048940   26.223875 O.co2      1 MOL1        -0.6703
       3    O2      16.158301   19.715548   26.088516 O.co2      1 MOL1        -0.6703
       4    C2      17.685635   19.422777   24.319202 C.3        1 MOL1        -0.1963
       5    H1      16.901752   19.870009   23.696491 H          1 MOL1         0.0750
       6    H2      18.008773   18.506470   23.815787 H          1 MOL1         0.0750
       7    C3      18.865469   20.416956   24.484274 C.3        1 MOL1        -0.1860
       8    H3      18.481630   21.315772   24.986503 H          1 MOL1         0.0752
       9    H4      19.625958   19.993693   25.155034 H          1 MOL1         0.0752
      10    C4      19.510997   20.838681   23.139755 C.3        1 MOL1        -0.1858
      11    H5      19.822049   21.888854   23.225208 H          1 MOL1         0.0752
      12    H6      18.764885   20.813415   22.333828 H          1 MOL1         0.0752
      13    C5      20.760095   20.015549   22.736062 C.3        1 MOL1        -0.1858
      14    H7      21.179763   20.452667   21.819898 H          1 MOL1         0.0752
      15    H8      21.528628   20.127294   23.512139 H          1 MOL1         0.0752
      16    C6      20.479729   18.513801   22.492505 C.3        1 MOL1        -0.1858
      17    H9      19.607622   18.413314   21.832407 H          1 MOL1         0.0752
      18    H10     20.219532   18.026205   23.441080 H          1 MOL1         0.0752
      19    C7      21.671701   17.765004   21.852162 C.3        1 MOL1        -0.1834
      20    H11     21.360152   16.736756   21.622366 H          1 MOL1         0.0752
      21    H12     21.931275   18.232275   20.892208 H          1 MOL1         0.0752
      22    C8      22.919626   17.716491   22.760267 C.3        1 MOL1        -0.2849
      23    H13     22.678092   17.275659   23.736214 H          1 MOL1         0.0764
      24    H14     23.706953   17.106385   22.299032 H          1 MOL1         0.0764
      25    H15     23.331434   18.719574   22.927930 H          1 MOL1         0.0764
@<TRIPOS>BOND
    1     1     2    1
    2     1     3    2
    3     1     4    1
    4     4     5    1
    5     4     6    1
    6     4     7    1
    7     7     8    1
    8     7     9    1
    9     7    10    1
   10    10    11    1
   11    10    12    1
   12    10    13    1
   13    13    14    1
   14    13    15    1
   15    13    16    1
   16    16    17    1
   17    16    18    1
   18    16    19    1
   19    19    20    1
   20    19    21    1
   21    19    22    1
   22    22    23    1
   23    22    24    1
   24    22    25    1
@<TRIPOS>SUBSTRUCTURE
       1 MOL1            1 RESIDUE      1      MOL     
@<SCITEGIC>MOL_PROPERTY
VConf Rank
SciTegic.value.IntegerValue
596

@<SCITEGIC>MOL_PROPERTY
Conf_Id
SciTegic.value.IntegerValue
89

@<SCITEGIC>MOL_PROPERTY
Delta U+W
SciTegic.value.DoubleValue
2.903

@<SCITEGIC>MOL_PROPERTY
U+W
SciTegic.value.DoubleValue
-48.726

@<SCITEGIC>MOL_PROPERTY
Grad RMS
SciTegic.value.DoubleValue
0.000000

@<SCITEGIC>MOL_PROPERTY
U
SciTegic.value.DoubleValue
10.996

@<SCITEGIC>MOL_PROPERTY
W
SciTegic.value.DoubleValue
-59.723

@<SCITEGIC>MOL_PROPERTY
W(PB)
SciTegic.value.DoubleValue
-62.151

@<SCITEGIC>MOL_PROPERTY
W(SA)
SciTegic.value.DoubleValue
2.428

@<SCITEGIC>MOL_PROPERTY
Valence
SciTegic.value.DoubleValue
10.985

@<SCITEGIC>MOL_PROPERTY
Coulomb
SciTegic.value.DoubleValue
-0.995

@<SCITEGIC>MOL_PROPERTY
VdW
SciTegic.value.DoubleValue
1.006

@<SCITEGIC>MOL_PROPERTY
VdW6
SciTegic.value.DoubleValue
-10.062

@<SCITEGIC>MOL_PROPERTY
VdW12
SciTegic.value.DoubleValue
11.069

@<SCITEGIC>MOL_PROPERTY
Bond
SciTegic.value.DoubleValue
0.238

@<SCITEGIC>MOL_PROPERTY
Angle
SciTegic.value.DoubleValue
3.202

@<SCITEGIC>MOL_PROPERTY
Pdih
SciTegic.value.DoubleValue
7.544

@<SCITEGIC>MOL_PROPERTY
Idih
SciTegic.value.DoubleValue
0.001

@<SCITEGIC>MOL_PROPERTY
Tether
SciTegic.value.DoubleValue
0.000

@<TRIPOS>MOLECULE
guest-8_confgen4.mol2 : confsearch ligand conformer 597
          25          24           1
SMALL
USER_CHARGES
 
@<TRIPOS>ATOM
       1    C1      16.810241   18.902781   22.350886 C.2        1 MOL1         0.6168
       2    O1      16.315000   18.297580   23.281331 O.co2      1 MOL1        -0.6703
       3    O2      16.519333   20.047898   22.065075 O.co2      1 MOL1        -0.6703
       4    C2      17.802256   18.161641   21.456533 C.3        1 MOL1        -0.1963
       5    H1      17.334205   18.095502   20.467578 H          1 MOL1         0.0750
       6    H2      17.911940   17.133051   21.820871 H          1 MOL1         0.0750
       7    C3      19.196663   18.834122   21.311700 C.3        1 MOL1        -0.1860
       8    H3      19.660083   18.455277   20.390743 H          1 MOL1         0.0752
       9    H4      19.077977   19.916827   21.165968 H          1 MOL1         0.0752
      10    C4      20.177895   18.559576   22.478637 C.3        1 MOL1        -0.1858
      11    H5      21.163412   18.937584   22.179661 H          1 MOL1         0.0752
      12    H6      20.291912   17.476025   22.618171 H          1 MOL1         0.0752
      13    C5      19.763144   19.215560   23.818058 C.3        1 MOL1        -0.1858
      14    H7      19.588554   20.289946   23.669786 H          1 MOL1         0.0752
      15    H8      18.809451   18.787517   24.149848 H          1 MOL1         0.0752
      16    C6      20.793798   19.007161   24.953706 C.3        1 MOL1        -0.1858
      17    H9      20.991989   17.933919   25.078997 H          1 MOL1         0.0752
      18    H10     20.344475   19.351230   25.895315 H          1 MOL1         0.0752
      19    C7      22.123827   19.762909   24.731651 C.3        1 MOL1        -0.1834
      20    H11     22.635008   19.379176   23.839366 H          1 MOL1         0.0752
      21    H12     21.919383   20.827282   24.551369 H          1 MOL1         0.0752
      22    C8      23.063826   19.621024   25.945886 C.3        1 MOL1        -0.2849
      23    H13     23.306800   18.566813   26.132889 H          1 MOL1         0.0764
      24    H14     24.004245   20.159952   25.772051 H          1 MOL1         0.0764
      25    H15     22.600477   20.032238   26.852281 H          1 MOL1         0.0764
@<TRIPOS>BOND
    1     1     2    1
    2     1     3    2
    3     1     4    1
    4     4     5    1
    5     4     6    1
    6     4     7    1
    7     7     8    1
    8     7     9    1
    9     7    10    1
   10    10    11    1
   11    10    12    1
   12    10    13    1
   13    13    14    1
   14    13    15    1
   15    13    16    1
   16    16    17    1
   17    16    18    1
   18    16    19    1
   19    19    20    1
   20    19    21    1
   21    19    22    1
   22    22    23    1
   23    22    24    1
   24    22    25    1
@<TRIPOS>SUBSTRUCTURE
       1 MOL1            1 RESIDUE      1      MOL     
@<SCITEGIC>MOL_PROPERTY
VConf Rank
SciTegic.value.IntegerValue
597

@<SCITEGIC>MOL_PROPERTY
Conf_Id
SciTegic.value.IntegerValue
114

@<SCITEGIC>MOL_PROPERTY
Delta U+W
SciTegic.value.DoubleValue
2.758

@<SCITEGIC>MOL_PROPERTY
U+W
SciTegic.value.DoubleValue
-48.871

@<SCITEGIC>MOL_PROPERTY
Grad RMS
SciTegic.value.DoubleValue
0.000000

@<SCITEGIC>MOL_PROPERTY
U
SciTegic.value.DoubleValue
11.422

@<SCITEGIC>MOL_PROPERTY
W
SciTegic.value.DoubleValue
-60.293

@<SCITEGIC>MOL_PROPERTY
W(PB)
SciTegic.value.DoubleValue
-62.719

@<SCITEGIC>MOL_PROPERTY
W(SA)
SciTegic.value.DoubleValue
2.425

@<SCITEGIC>MOL_PROPERTY
Valence
SciTegic.value.DoubleValue
10.135

@<SCITEGIC>MOL_PROPERTY
Coulomb
SciTegic.value.DoubleValue
0.369

@<SCITEGIC>MOL_PROPERTY
VdW
SciTegic.value.DoubleValue
0.918

@<SCITEGIC>MOL_PROPERTY
VdW6
SciTegic.value.DoubleValue
-10.482

@<SCITEGIC>MOL_PROPERTY
VdW12
SciTegic.value.DoubleValue
11.400

@<SCITEGIC>MOL_PROPERTY
Bond
SciTegic.value.DoubleValue
0.245

@<SCITEGIC>MOL_PROPERTY
Angle
SciTegic.value.DoubleValue
3.539

@<SCITEGIC>MOL_PROPERTY
Pdih
SciTegic.value.DoubleValue
6.346

@<SCITEGIC>MOL_PROPERTY
Idih
SciTegic.value.DoubleValue
0.006

@<SCITEGIC>MOL_PROPERTY
Tether
SciTegic.value.DoubleValue
0.000

@<TRIPOS>MOLECULE
guest-8_confgen4.mol2 : confsearch ligand conformer 598
          25          24           1
SMALL
USER_CHARGES
 
@<TRIPOS>ATOM
       1    C1      18.425253   19.746901   20.075114 C.2        1 MOL1         0.6168
       2    O1      19.192322   20.427262   19.422598 O.co2      1 MOL1        -0.6703
       3    O2      18.046914   18.643712   19.733163 O.co2      1 MOL1        -0.6703
       4    C2      17.890320   20.315734   21.386306 C.3        1 MOL1        -0.1963
       5    H1      16.810533   20.127348   21.409716 H          1 MOL1         0.0750
       6    H2      18.022342   21.404413   21.375199 H          1 MOL1         0.0750
       7    C3      18.549973   19.707894   22.651361 C.3        1 MOL1        -0.1860
       8    H3      18.020020   20.074178   23.540875 H          1 MOL1         0.0752
       9    H4      18.420059   18.617941   22.630085 H          1 MOL1         0.0752
      10    C4      20.050916   20.067275   22.766560 C.3        1 MOL1        -0.1858
      11    H5      20.162155   21.157564   22.690804 H          1 MOL1         0.0752
      12    H6      20.603628   19.640958   21.917994 H          1 MOL1         0.0752
      13    C5      20.699666   19.599844   24.091444 C.3        1 MOL1        -0.1858
      14    H7      21.710044   20.024995   24.142118 H          1 MOL1         0.0752
      15    H8      20.143069   20.017299   24.941417 H          1 MOL1         0.0752
      16    C6      20.783373   18.059322   24.226824 C.3        1 MOL1        -0.1858
      17    H9      21.336966   17.642105   23.374682 H          1 MOL1         0.0752
      18    H10     19.773295   17.633074   24.180805 H          1 MOL1         0.0752
      19    C7      21.438989   17.593284   25.547966 C.3        1 MOL1        -0.1834
      20    H11     20.894655   18.018273   26.402584 H          1 MOL1         0.0752
      21    H12     21.334832   16.502268   25.625905 H          1 MOL1         0.0752
      22    C8      22.936532   17.955798   25.652147 C.3        1 MOL1        -0.2849
      23    H13     23.374143   17.520248   26.559724 H          1 MOL1         0.0764
      24    H14     23.495149   17.570198   24.789377 H          1 MOL1         0.0764
      25    H15     23.084665   19.041630   25.701490 H          1 MOL1         0.0764
@<TRIPOS>BOND
    1     1     2    1
    2     1     3    2
    3     1     4    1
    4     4     5    1
    5     4     6    1
    6     4     7    1
    7     7     8    1
    8     7     9    1
    9     7    10    1
   10    10    11    1
   11    10    12    1
   12    10    13    1
   13    13    14    1
   14    13    15    1
   15    13    16    1
   16    16    17    1
   17    16    18    1
   18    16    19    1
   19    19    20    1
   20    19    21    1
   21    19    22    1
   22    22    23    1
   23    22    24    1
   24    22    25    1
@<TRIPOS>SUBSTRUCTURE
       1 MOL1            1 RESIDUE      1      MOL     
@<SCITEGIC>MOL_PROPERTY
VConf Rank
SciTegic.value.IntegerValue
598

@<SCITEGIC>MOL_PROPERTY
Conf_Id
SciTegic.value.IntegerValue
87

@<SCITEGIC>MOL_PROPERTY
Delta U+W
SciTegic.value.DoubleValue
1.453

@<SCITEGIC>MOL_PROPERTY
U+W
SciTegic.value.DoubleValue
-50.176

@<SCITEGIC>MOL_PROPERTY
Grad RMS
SciTegic.value.DoubleValue
0.000000

@<SCITEGIC>MOL_PROPERTY
U
SciTegic.value.DoubleValue
9.763

@<SCITEGIC>MOL_PROPERTY
W
SciTegic.value.DoubleValue
-59.940

@<SCITEGIC>MOL_PROPERTY
W(PB)
SciTegic.value.DoubleValue
-62.392

@<SCITEGIC>MOL_PROPERTY
W(SA)
SciTegic.value.DoubleValue
2.452

@<SCITEGIC>MOL_PROPERTY
Valence
SciTegic.value.DoubleValue
8.883

@<SCITEGIC>MOL_PROPERTY
Coulomb
SciTegic.value.DoubleValue
-0.122

@<SCITEGIC>MOL_PROPERTY
VdW
SciTegic.value.DoubleValue
1.003

@<SCITEGIC>MOL_PROPERTY
VdW6
SciTegic.value.DoubleValue
-9.782

@<SCITEGIC>MOL_PROPERTY
VdW12
SciTegic.value.DoubleValue
10.785

@<SCITEGIC>MOL_PROPERTY
Bond
SciTegic.value.DoubleValue
0.212

@<SCITEGIC>MOL_PROPERTY
Angle
SciTegic.value.DoubleValue
2.940

@<SCITEGIC>MOL_PROPERTY
Pdih
SciTegic.value.DoubleValue
5.730

@<SCITEGIC>MOL_PROPERTY
Idih
SciTegic.value.DoubleValue
0.001

@<SCITEGIC>MOL_PROPERTY
Tether
SciTegic.value.DoubleValue
0.000

@<TRIPOS>MOLECULE
guest-8_confgen4.mol2 : confsearch ligand conformer 599
          25          24           1
SMALL
USER_CHARGES
 
@<TRIPOS>ATOM
       1    C1      18.767170   17.290250   20.063841 C.2        1 MOL1         0.6168
       2    O1      19.698408   17.453592   19.300428 O.co2      1 MOL1        -0.6703
       3    O2      18.042675   16.314842   20.043089 O.co2      1 MOL1        -0.6703
       4    C2      18.504366   18.359677   21.118083 C.3        1 MOL1        -0.1963
       5    H1      17.424287   18.396517   21.303971 H          1 MOL1         0.0750
       6    H2      18.794893   19.330349   20.698603 H          1 MOL1         0.0750
       7    C3      19.266744   18.100307   22.440753 C.3        1 MOL1        -0.1860
       8    H3      18.972235   17.121816   22.844438 H          1 MOL1         0.0752
       9    H4      20.342384   18.048004   22.226162 H          1 MOL1         0.0752
      10    C4      18.988316   19.202294   23.488955 C.3        1 MOL1        -0.1858
      11    H5      17.903416   19.287120   23.638683 H          1 MOL1         0.0752
      12    H6      19.319184   20.175154   23.102334 H          1 MOL1         0.0752
      13    C5      19.650262   18.928032   24.862617 C.3        1 MOL1        -0.1858
      14    H7      19.356330   19.721257   25.562458 H          1 MOL1         0.0752
      15    H8      19.235555   17.998840   25.276248 H          1 MOL1         0.0752
      16    C6      21.197547   18.812775   24.841540 C.3        1 MOL1        -0.1858
      17    H9      21.487678   17.918968   24.273913 H          1 MOL1         0.0752
      18    H10     21.549233   18.639020   25.867511 H          1 MOL1         0.0752
      19    C7      21.942387   20.039887   24.260559 C.3        1 MOL1        -0.1834
      20    H11     23.021304   19.833332   24.273921 H          1 MOL1         0.0752
      21    H12     21.673203   20.180433   23.205277 H          1 MOL1         0.0752
      22    C8      21.675954   21.342946   25.044837 C.3        1 MOL1        -0.2849
      23    H13     21.923222   21.219456   26.107166 H          1 MOL1         0.0764
      24    H14     22.288179   22.162724   24.647506 H          1 MOL1         0.0764
      25    H15     20.624075   21.645780   24.968753 H          1 MOL1         0.0764
@<TRIPOS>BOND
    1     1     2    1
    2     1     3    2
    3     1     4    1
    4     4     5    1
    5     4     6    1
    6     4     7    1
    7     7     8    1
    8     7     9    1
    9     7    10    1
   10    10    11    1
   11    10    12    1
   12    10    13    1
   13    13    14    1
   14    13    15    1
   15    13    16    1
   16    16    17    1
   17    16    18    1
   18    16    19    1
   19    19    20    1
   20    19    21    1
   21    19    22    1
   22    22    23    1
   23    22    24    1
   24    22    25    1
@<TRIPOS>SUBSTRUCTURE
       1 MOL1            1 RESIDUE      1      MOL     
@<SCITEGIC>MOL_PROPERTY
VConf Rank
SciTegic.value.IntegerValue
599

@<SCITEGIC>MOL_PROPERTY
Conf_Id
SciTegic.value.IntegerValue
29

@<SCITEGIC>MOL_PROPERTY
Delta U+W
SciTegic.value.DoubleValue
0.850

@<SCITEGIC>MOL_PROPERTY
U+W
SciTegic.value.DoubleValue
-50.780

@<SCITEGIC>MOL_PROPERTY
Grad RMS
SciTegic.value.DoubleValue
0.000000

@<SCITEGIC>MOL_PROPERTY
U
SciTegic.value.DoubleValue
8.646

@<SCITEGIC>MOL_PROPERTY
W
SciTegic.value.DoubleValue
-59.426

@<SCITEGIC>MOL_PROPERTY
W(PB)
SciTegic.value.DoubleValue
-61.868

@<SCITEGIC>MOL_PROPERTY
W(SA)
SciTegic.value.DoubleValue
2.442

@<SCITEGIC>MOL_PROPERTY
Valence
SciTegic.value.DoubleValue
8.924

@<SCITEGIC>MOL_PROPERTY
Coulomb
SciTegic.value.DoubleValue
-1.171

@<SCITEGIC>MOL_PROPERTY
VdW
SciTegic.value.DoubleValue
0.894

@<SCITEGIC>MOL_PROPERTY
VdW6
SciTegic.value.DoubleValue
-10.223

@<SCITEGIC>MOL_PROPERTY
VdW12
SciTegic.value.DoubleValue
11.117

@<SCITEGIC>MOL_PROPERTY
Bond
SciTegic.value.DoubleValue
0.231

@<SCITEGIC>MOL_PROPERTY
Angle
SciTegic.value.DoubleValue
3.232

@<SCITEGIC>MOL_PROPERTY
Pdih
SciTegic.value.DoubleValue
5.461

@<SCITEGIC>MOL_PROPERTY
Idih
SciTegic.value.DoubleValue
0.001

@<SCITEGIC>MOL_PROPERTY
Tether
SciTegic.value.DoubleValue
0.000

@<TRIPOS>MOLECULE
guest-8_confgen4.mol2 : confsearch ligand conformer 600
          25          24           1
SMALL
USER_CHARGES
 
@<TRIPOS>ATOM
       1    C1      22.887091   21.699786   22.365001 C.2        1 MOL1         0.6168
       2    O1      23.195010   21.313085   21.254895 O.co2      1 MOL1        -0.6703
       3    O2      23.672891   22.198948   23.146087 O.co2      1 MOL1        -0.6703
       4    C2      21.438533   21.532156   22.809692 C.3        1 MOL1        -0.1963
       5    H1      20.797559   21.624609   21.924718 H          1 MOL1         0.0750
       6    H2      21.189398   22.364030   23.479319 H          1 MOL1         0.0750
       7    C3      21.179422   20.179275   23.517172 C.3        1 MOL1        -0.1860
       8    H3      21.454564   19.363665   22.835364 H          1 MOL1         0.0752
       9    H4      21.833712   20.097219   24.395986 H          1 MOL1         0.0752
      10    C4      19.702593   20.032254   23.950760 C.3        1 MOL1        -0.1858
      11    H5      19.050316   20.073975   23.068603 H          1 MOL1         0.0752
      12    H6      19.426055   20.892821   24.574917 H          1 MOL1         0.0752
      13    C5      19.421623   18.737237   24.753458 C.3        1 MOL1        -0.1858
      14    H7      20.012599   18.759177   25.679060 H          1 MOL1         0.0752
      15    H8      18.371049   18.738718   25.072323 H          1 MOL1         0.0752
      16    C6      19.726090   17.413363   24.003473 C.3        1 MOL1        -0.1858
      17    H9      19.470659   16.571916   24.661662 H          1 MOL1         0.0752
      18    H10     20.807129   17.334939   23.828917 H          1 MOL1         0.0752
      19    C7      18.985764   17.233951   22.655193 C.3        1 MOL1        -0.1834
      20    H11     19.293964   18.015475   21.948036 H          1 MOL1         0.0752
      21    H12     19.297747   16.279971   22.208547 H          1 MOL1         0.0752
      22    C8      17.448368   17.236708   22.798167 C.3        1 MOL1        -0.2849
      23    H13     17.081972   18.212020   23.142354 H          1 MOL1         0.0764
      24    H14     16.972148   17.023859   21.832434 H          1 MOL1         0.0764
      25    H15     17.119166   16.472493   23.514084 H          1 MOL1         0.0764
@<TRIPOS>BOND
    1     1     2    1
    2     1     3    2
    3     1     4    1
    4     4     5    1
    5     4     6    1
    6     4     7    1
    7     7     8    1
    8     7     9    1
    9     7    10    1
   10    10    11    1
   11    10    12    1
   12    10    13    1
   13    13    14    1
   14    13    15    1
   15    13    16    1
   16    16    17    1
   17    16    18    1
   18    16    19    1
   19    19    20    1
   20    19    21    1
   21    19    22    1
   22    22    23    1
   23    22    24    1
   24    22    25    1
@<TRIPOS>SUBSTRUCTURE
       1 MOL1            1 RESIDUE      1      MOL     
@<SCITEGIC>MOL_PROPERTY
VConf Rank
SciTegic.value.IntegerValue
600

@<SCITEGIC>MOL_PROPERTY
Conf_Id
SciTegic.value.IntegerValue
30

@<SCITEGIC>MOL_PROPERTY
Delta U+W
SciTegic.value.DoubleValue
0.843

@<SCITEGIC>MOL_PROPERTY
U+W
SciTegic.value.DoubleValue
-50.787

@<SCITEGIC>MOL_PROPERTY
Grad RMS
SciTegic.value.DoubleValue
0.000000

@<SCITEGIC>MOL_PROPERTY
U
SciTegic.value.DoubleValue
8.647

@<SCITEGIC>MOL_PROPERTY
W
SciTegic.value.DoubleValue
-59.434

@<SCITEGIC>MOL_PROPERTY
W(PB)
SciTegic.value.DoubleValue
-61.861

@<SCITEGIC>MOL_PROPERTY
W(SA)
SciTegic.value.DoubleValue
2.428

@<SCITEGIC>MOL_PROPERTY
Valence
SciTegic.value.DoubleValue
8.924

@<SCITEGIC>MOL_PROPERTY
Coulomb
SciTegic.value.DoubleValue
-1.170

@<SCITEGIC>MOL_PROPERTY
VdW
SciTegic.value.DoubleValue
0.894

@<SCITEGIC>MOL_PROPERTY
VdW6
SciTegic.value.DoubleValue
-10.224

@<SCITEGIC>MOL_PROPERTY
VdW12
SciTegic.value.DoubleValue
11.118

@<SCITEGIC>MOL_PROPERTY
Bond
SciTegic.value.DoubleValue
0.231

@<SCITEGIC>MOL_PROPERTY
Angle
SciTegic.value.DoubleValue
3.232

@<SCITEGIC>MOL_PROPERTY
Pdih
SciTegic.value.DoubleValue
5.460

@<SCITEGIC>MOL_PROPERTY
Idih
SciTegic.value.DoubleValue
0.000

@<SCITEGIC>MOL_PROPERTY
Tether
SciTegic.value.DoubleValue
0.000

@<TRIPOS>MOLECULE
guest-8_confgen4.mol2 : confsearch ligand conformer 601
          25          24           1
SMALL
USER_CHARGES
 
@<TRIPOS>ATOM
       1    C1      21.086550   21.791247   26.903872 C.2        1 MOL1         0.6168
       2    O1      21.011082   20.851178   27.671451 O.co2      1 MOL1        -0.6703
       3    O2      21.351512   22.921421   27.262509 O.co2      1 MOL1        -0.6703
       4    C2      20.841271   21.572473   25.410094 C.3        1 MOL1        -0.1963
       5    H1      21.738757   21.910037   24.878607 H          1 MOL1         0.0750
       6    H2      20.022509   22.237980   25.112379 H          1 MOL1         0.0750
       7    C3      20.506717   20.113401   25.000705 C.3        1 MOL1        -0.1860
       8    H3      21.328195   19.451238   25.307655 H          1 MOL1         0.0752
       9    H4      19.610362   19.779485   25.541589 H          1 MOL1         0.0752
      10    C4      20.274560   19.982480   23.479650 C.3        1 MOL1        -0.1858
      11    H5      21.171878   20.316885   22.941013 H          1 MOL1         0.0752
      12    H6      19.452959   20.645320   23.175099 H          1 MOL1         0.0752
      13    C5      19.941939   18.530302   23.074642 C.3        1 MOL1        -0.1858
      14    H7      20.763389   17.867231   23.379042 H          1 MOL1         0.0752
      15    H8      19.044626   18.195635   23.613094 H          1 MOL1         0.0752
      16    C6      19.709707   18.398695   21.553898 C.3        1 MOL1        -0.1858
      17    H9      20.606930   18.733266   21.015245 H          1 MOL1         0.0752
      18    H10     18.888216   19.061613   21.249292 H          1 MOL1         0.0752
      19    C7      19.377267   16.947193   21.148948 C.3        1 MOL1        -0.1834
      20    H11     20.197754   16.281305   21.450416 H          1 MOL1         0.0752
      21    H12     18.479053   16.609648   21.684452 H          1 MOL1         0.0752
      22    C8      19.146088   16.819937   19.629749 C.3        1 MOL1        -0.2849
      23    H13     20.040898   17.121526   19.069610 H          1 MOL1         0.0764
      24    H14     18.911078   15.782175   19.359734 H          1 MOL1         0.0764
      25    H15     18.309253   17.452320   19.305408 H          1 MOL1         0.0764
@<TRIPOS>BOND
    1     1     2    1
    2     1     3    2
    3     1     4    1
    4     4     5    1
    5     4     6    1
    6     4     7    1
    7     7     8    1
    8     7     9    1
    9     7    10    1
   10    10    11    1
   11    10    12    1
   12    10    13    1
   13    13    14    1
   14    13    15    1
   15    13    16    1
   16    16    17    1
   17    16    18    1
   18    16    19    1
   19    19    20    1
   20    19    21    1
   21    19    22    1
   22    22    23    1
   23    22    24    1
   24    22    25    1
@<TRIPOS>SUBSTRUCTURE
       1 MOL1            1 RESIDUE      1      MOL     
@<SCITEGIC>MOL_PROPERTY
VConf Rank
SciTegic.value.IntegerValue
601

@<SCITEGIC>MOL_PROPERTY
Conf_Id
SciTegic.value.IntegerValue
0

@<SCITEGIC>MOL_PROPERTY
Delta U+W
SciTegic.value.DoubleValue
0.000

@<SCITEGIC>MOL_PROPERTY
U+W
SciTegic.value.DoubleValue
-51.629

@<SCITEGIC>MOL_PROPERTY
Grad RMS
SciTegic.value.DoubleValue
0.000000

@<SCITEGIC>MOL_PROPERTY
U
SciTegic.value.DoubleValue
6.586

@<SCITEGIC>MOL_PROPERTY
W
SciTegic.value.DoubleValue
-58.216

@<SCITEGIC>MOL_PROPERTY
W(PB)
SciTegic.value.DoubleValue
-60.757

@<SCITEGIC>MOL_PROPERTY
W(SA)
SciTegic.value.DoubleValue
2.541

@<SCITEGIC>MOL_PROPERTY
Valence
SciTegic.value.DoubleValue
8.027

@<SCITEGIC>MOL_PROPERTY
Coulomb
SciTegic.value.DoubleValue
-2.892

@<SCITEGIC>MOL_PROPERTY
VdW
SciTegic.value.DoubleValue
1.451

@<SCITEGIC>MOL_PROPERTY
VdW6
SciTegic.value.DoubleValue
-7.931

@<SCITEGIC>MOL_PROPERTY
VdW12
SciTegic.value.DoubleValue
9.383

@<SCITEGIC>MOL_PROPERTY
Bond
SciTegic.value.DoubleValue
0.149

@<SCITEGIC>MOL_PROPERTY
Angle
SciTegic.value.DoubleValue
2.726

@<SCITEGIC>MOL_PROPERTY
Pdih
SciTegic.value.DoubleValue
5.152

@<SCITEGIC>MOL_PROPERTY
Idih
SciTegic.value.DoubleValue
0.000

@<SCITEGIC>MOL_PROPERTY
Tether
SciTegic.value.DoubleValue
0.000

@<TRIPOS>MOLECULE
guest-8_confgen4.mol2 : confsearch ligand conformer 602
          25          24           1
SMALL
USER_CHARGES
 
@<TRIPOS>ATOM
       1    C1      19.734304   21.868871   26.919620 C.2        1 MOL1         0.6168
       2    O1      19.238974   22.957771   26.706163 O.co2      1 MOL1        -0.6703
       3    O2      19.602417   21.262096   27.964154 O.co2      1 MOL1        -0.6703
       4    C2      20.547375   21.217469   25.806663 C.3        1 MOL1        -0.1963
       5    H1      21.338056   20.615308   26.270163 H          1 MOL1         0.0750
       6    H2      21.039101   22.012865   25.233814 H          1 MOL1         0.0750
       7    C3      19.685379   20.337319   24.868408 C.3        1 MOL1        -0.1860
       8    H3      19.189772   19.554426   25.459207 H          1 MOL1         0.0752
       9    H4      18.890729   20.951929   24.423011 H          1 MOL1         0.0752
      10    C4      20.530794   19.689410   23.750593 C.3        1 MOL1        -0.1858
      11    H5      21.324858   19.076647   24.199108 H          1 MOL1         0.0752
      12    H6      21.025927   20.474570   23.162761 H          1 MOL1         0.0752
      13    C5      19.668799   18.812817   22.816773 C.3        1 MOL1        -0.1858
      14    H7      19.173629   18.027549   23.404364 H          1 MOL1         0.0752
      15    H8      18.874695   19.425385   22.368148 H          1 MOL1         0.0752
      16    C6      20.513530   18.164626   21.698669 C.3        1 MOL1        -0.1858
      17    H9      21.307680   17.551892   22.146976 H          1 MOL1         0.0752
      18    H10     21.008830   18.949658   21.110878 H          1 MOL1         0.0752
      19    C7      19.652061   17.288440   20.765112 C.3        1 MOL1        -0.1834
      20    H11     19.156428   16.500739   21.349374 H          1 MOL1         0.0752
      21    H12     18.857605   17.898492   20.313263 H          1 MOL1         0.0752
      22    C8      20.499186   16.642981   19.650050 C.3        1 MOL1        -0.2849
      23    H13     19.871156   16.024017   18.996178 H          1 MOL1         0.0764
      24    H14     20.981835   17.409584   19.029754 H          1 MOL1         0.0764
      25    H15     21.282902   16.001315   20.073668 H          1 MOL1         0.0764
@<TRIPOS>BOND
    1     1     2    1
    2     1     3    2
    3     1     4    1
    4     4     5    1
    5     4     6    1
    6     4     7    1
    7     7     8    1
    8     7     9    1
    9     7    10    1
   10    10    11    1
   11    10    12    1
   12    10    13    1
   13    13    14    1
   14    13    15    1
   15    13    16    1
   16    16    17    1
   17    16    18    1
   18    16    19    1
   19    19    20    1
   20    19    21    1
   21    19    22    1
   22    22    23    1
   23    22    24    1
   24    22    25    1
@<TRIPOS>SUBSTRUCTURE
       1 MOL1            1 RESIDUE      1      MOL     
@<SCITEGIC>MOL_PROPERTY
VConf Rank
SciTegic.value.IntegerValue
602

@<SCITEGIC>MOL_PROPERTY
Conf_Id
SciTegic.value.IntegerValue
27

@<SCITEGIC>MOL_PROPERTY
Delta U+W
SciTegic.value.DoubleValue
-1.297

@<SCITEGIC>MOL_PROPERTY
U+W
SciTegic.value.DoubleValue
-52.926

@<SCITEGIC>MOL_PROPERTY
Grad RMS
SciTegic.value.DoubleValue
0.000000

@<SCITEGIC>MOL_PROPERTY
U
SciTegic.value.DoubleValue
5.617

@<SCITEGIC>MOL_PROPERTY
W
SciTegic.value.DoubleValue
-58.543

@<SCITEGIC>MOL_PROPERTY
W(PB)
SciTegic.value.DoubleValue
-61.065

@<SCITEGIC>MOL_PROPERTY
W(SA)
SciTegic.value.DoubleValue
2.522

@<SCITEGIC>MOL_PROPERTY
Valence
SciTegic.value.DoubleValue
7.531

@<SCITEGIC>MOL_PROPERTY
Coulomb
SciTegic.value.DoubleValue
-2.818

@<SCITEGIC>MOL_PROPERTY
VdW
SciTegic.value.DoubleValue
0.904

@<SCITEGIC>MOL_PROPERTY
VdW6
SciTegic.value.DoubleValue
-7.640

@<SCITEGIC>MOL_PROPERTY
VdW12
SciTegic.value.DoubleValue
8.544

@<SCITEGIC>MOL_PROPERTY
Bond
SciTegic.value.DoubleValue
0.115

@<SCITEGIC>MOL_PROPERTY
Angle
SciTegic.value.DoubleValue
2.271

@<SCITEGIC>MOL_PROPERTY
Pdih
SciTegic.value.DoubleValue
5.144

@<SCITEGIC>MOL_PROPERTY
Idih
SciTegic.value.DoubleValue
0.001

@<SCITEGIC>MOL_PROPERTY
Tether
SciTegic.value.DoubleValue
0.000

@<TRIPOS>MOLECULE
guest-8_confgen4.mol2 : confsearch ligand conformer 603
          25          24           1
SMALL
USER_CHARGES
 
@<TRIPOS>ATOM
       1    C1      17.343297   17.695355   25.783459 C.2        1 MOL1         0.6168
       2    O1      17.093938   18.435282   26.714803 O.co2      1 MOL1        -0.6703
       3    O2      16.559715   17.456064   24.885849 O.co2      1 MOL1        -0.6703
       4    C2      18.710101   17.017336   25.750261 C.3        1 MOL1        -0.1963
       5    H1      18.655700   16.152636   25.077816 H          1 MOL1         0.0750
       6    H2      18.906434   16.625976   26.755385 H          1 MOL1         0.0750
       7    C3      19.868943   17.955555   25.323914 C.3        1 MOL1        -0.1860
       8    H3      19.892939   18.829830   25.989302 H          1 MOL1         0.0752
       9    H4      20.822886   17.428328   25.460200 H          1 MOL1         0.0752
      10    C4      19.748394   18.419112   23.854781 C.3        1 MOL1        -0.1858
      11    H5      18.803977   18.962997   23.714465 H          1 MOL1         0.0752
      12    H6      19.711196   17.541510   23.194890 H          1 MOL1         0.0752
      13    C5      20.928295   19.325496   23.442551 C.3        1 MOL1        -0.1858
      14    H7      20.964659   20.202782   24.102956 H          1 MOL1         0.0752
      15    H8      21.873631   18.782621   23.579168 H          1 MOL1         0.0752
      16    C6      20.808060   19.789760   21.974946 C.3        1 MOL1        -0.1858
      17    H9      19.862691   20.332616   21.838149 H          1 MOL1         0.0752
      18    H10     20.771319   18.912609   21.314387 H          1 MOL1         0.0752
      19    C7      21.986926   20.696185   21.562588 C.3        1 MOL1        -0.1834
      20    H11     22.025612   21.575700   22.220189 H          1 MOL1         0.0752
      21    H12     22.934256   20.155667   21.696328 H          1 MOL1         0.0752
      22    C8      21.862968   21.157708   20.096561 C.3        1 MOL1        -0.2849
      23    H13     20.938249   21.728867   19.941412 H          1 MOL1         0.0764
      24    H14     22.708775   21.800739   19.820512 H          1 MOL1         0.0764
      25    H15     21.853683   20.298144   19.413585 H          1 MOL1         0.0764
@<TRIPOS>BOND
    1     1     2    1
    2     1     3    2
    3     1     4    1
    4     4     5    1
    5     4     6    1
    6     4     7    1
    7     7     8    1
    8     7     9    1
    9     7    10    1
   10    10    11    1
   11    10    12    1
   12    10    13    1
   13    13    14    1
   14    13    15    1
   15    13    16    1
   16    16    17    1
   17    16    18    1
   18    16    19    1
   19    19    20    1
   20    19    21    1
   21    19    22    1
   22    22    23    1
   23    22    24    1
   24    22    25    1
@<TRIPOS>SUBSTRUCTURE
       1 MOL1            1 RESIDUE      1      MOL     
@<SCITEGIC>MOL_PROPERTY
VConf Rank
SciTegic.value.IntegerValue
603

@<SCITEGIC>MOL_PROPERTY
Conf_Id
SciTegic.value.IntegerValue
37

@<SCITEGIC>MOL_PROPERTY
Delta U+W
SciTegic.value.DoubleValue
-0.230

@<SCITEGIC>MOL_PROPERTY
U+W
SciTegic.value.DoubleValue
-51.860

@<SCITEGIC>MOL_PROPERTY
Grad RMS
SciTegic.value.DoubleValue
0.000000

@<SCITEGIC>MOL_PROPERTY
U
SciTegic.value.DoubleValue
7.816

@<SCITEGIC>MOL_PROPERTY
W
SciTegic.value.DoubleValue
-59.675

@<SCITEGIC>MOL_PROPERTY
W(PB)
SciTegic.value.DoubleValue
-62.180

@<SCITEGIC>MOL_PROPERTY
W(SA)
SciTegic.value.DoubleValue
2.505

@<SCITEGIC>MOL_PROPERTY
Valence
SciTegic.value.DoubleValue
7.785

@<SCITEGIC>MOL_PROPERTY
Coulomb
SciTegic.value.DoubleValue
-0.713

@<SCITEGIC>MOL_PROPERTY
VdW
SciTegic.value.DoubleValue
0.744

@<SCITEGIC>MOL_PROPERTY
VdW6
SciTegic.value.DoubleValue
-8.514

@<SCITEGIC>MOL_PROPERTY
VdW12
SciTegic.value.DoubleValue
9.259

@<SCITEGIC>MOL_PROPERTY
Bond
SciTegic.value.DoubleValue
0.136

@<SCITEGIC>MOL_PROPERTY
Angle
SciTegic.value.DoubleValue
2.433

@<SCITEGIC>MOL_PROPERTY
Pdih
SciTegic.value.DoubleValue
5.216

@<SCITEGIC>MOL_PROPERTY
Idih
SciTegic.value.DoubleValue
0.000

@<SCITEGIC>MOL_PROPERTY
Tether
SciTegic.value.DoubleValue
0.000

@<TRIPOS>MOLECULE
guest-8_confgen4.mol2 : confsearch ligand conformer 604
          25          24           1
SMALL
USER_CHARGES
 
@<TRIPOS>ATOM
       1    C1      21.572738   23.028589   23.618722 C.2        1 MOL1         0.6168
       2    O1      21.067921   23.834108   22.861508 O.co2      1 MOL1        -0.6703
       3    O2      22.724008   22.649969   23.528233 O.co2      1 MOL1        -0.6703
       4    C2      20.716740   22.475736   24.754762 C.3        1 MOL1        -0.1963
       5    H1      20.195684   23.323432   25.215083 H          1 MOL1         0.0750
       6    H2      21.380169   22.056721   25.521010 H          1 MOL1         0.0750
       7    C3      19.680747   21.413457   24.303957 C.3        1 MOL1        -0.1860
       8    H3      19.022936   21.175308   25.150786 H          1 MOL1         0.0752
       9    H4      19.042099   21.838849   23.517291 H          1 MOL1         0.0752
      10    C4      20.344800   20.114807   23.793750 C.3        1 MOL1        -0.1858
      11    H5      20.992358   19.700799   24.578792 H          1 MOL1         0.0752
      12    H6      20.991478   20.342312   22.934989 H          1 MOL1         0.0752
      13    C5      19.295573   19.060318   23.380464 C.3        1 MOL1        -0.1858
      14    H7      18.649565   18.829071   24.238505 H          1 MOL1         0.0752
      15    H8      18.648607   19.475184   22.595347 H          1 MOL1         0.0752
      16    C6      19.958372   17.762679   22.869890 C.3        1 MOL1        -0.1858
      17    H9      20.605620   17.347798   23.654763 H          1 MOL1         0.0752
      18    H10     20.604550   17.993786   22.011886 H          1 MOL1         0.0752
      19    C7      18.910021   16.708593   22.456093 C.3        1 MOL1        -0.1834
      20    H11     18.262917   16.473606   23.312548 H          1 MOL1         0.0752
      21    H12     18.261943   17.119577   21.669602 H          1 MOL1         0.0752
      22    C8      19.575957   15.414445   21.946863 C.3        1 MOL1        -0.2849
      23    H13     20.206135   14.964439   22.725171 H          1 MOL1         0.0764
      24    H14     18.816500   14.676623   21.657164 H          1 MOL1         0.0764
      25    H15     20.205217   15.615307   21.069889 H          1 MOL1         0.0764
@<TRIPOS>BOND
    1     1     2    1
    2     1     3    2
    3     1     4    1
    4     4     5    1
    5     4     6    1
    6     4     7    1
    7     7     8    1
    8     7     9    1
    9     7    10    1
   10    10    11    1
   11    10    12    1
   12    10    13    1
   13    13    14    1
   14    13    15    1
   15    13    16    1
   16    16    17    1
   17    16    18    1
   18    16    19    1
   19    19    20    1
   20    19    21    1
   21    19    22    1
   22    22    23    1
   23    22    24    1
   24    22    25    1
@<TRIPOS>SUBSTRUCTURE
       1 MOL1            1 RESIDUE      1      MOL     
@<SCITEGIC>MOL_PROPERTY
VConf Rank
SciTegic.value.IntegerValue
604

@<SCITEGIC>MOL_PROPERTY
Conf_Id
SciTegic.value.IntegerValue
54

@<SCITEGIC>MOL_PROPERTY
Delta U+W
SciTegic.value.DoubleValue
-0.224

@<SCITEGIC>MOL_PROPERTY
U+W
SciTegic.value.DoubleValue
-51.854

@<SCITEGIC>MOL_PROPERTY
Grad RMS
SciTegic.value.DoubleValue
0.000000

@<SCITEGIC>MOL_PROPERTY
U
SciTegic.value.DoubleValue
7.816

@<SCITEGIC>MOL_PROPERTY
W
SciTegic.value.DoubleValue
-59.670

@<SCITEGIC>MOL_PROPERTY
W(PB)
SciTegic.value.DoubleValue
-62.157

@<SCITEGIC>MOL_PROPERTY
W(SA)
SciTegic.value.DoubleValue
2.487

@<SCITEGIC>MOL_PROPERTY
Valence
SciTegic.value.DoubleValue
7.785

@<SCITEGIC>MOL_PROPERTY
Coulomb
SciTegic.value.DoubleValue
-0.713

@<SCITEGIC>MOL_PROPERTY
VdW
SciTegic.value.DoubleValue
0.744

@<SCITEGIC>MOL_PROPERTY
VdW6
SciTegic.value.DoubleValue
-8.515

@<SCITEGIC>MOL_PROPERTY
VdW12
SciTegic.value.DoubleValue
9.259

@<SCITEGIC>MOL_PROPERTY
Bond
SciTegic.value.DoubleValue
0.136

@<SCITEGIC>MOL_PROPERTY
Angle
SciTegic.value.DoubleValue
2.433

@<SCITEGIC>MOL_PROPERTY
Pdih
SciTegic.value.DoubleValue
5.215

@<SCITEGIC>MOL_PROPERTY
Idih
SciTegic.value.DoubleValue
0.000

@<SCITEGIC>MOL_PROPERTY
Tether
SciTegic.value.DoubleValue
0.000

@<TRIPOS>MOLECULE
guest-8_confgen4.mol2 : confsearch ligand conformer 605
          25          24           1
SMALL
USER_CHARGES
 
@<TRIPOS>ATOM
       1    C1      23.368221   20.800574   25.099197 C.2        1 MOL1         0.6168
       2    O1      23.291592   20.461995   26.263904 O.co2      1 MOL1        -0.6703
       3    O2      24.373465   20.676560   24.427472 O.co2      1 MOL1        -0.6703
       4    C2      22.141750   21.433447   24.447718 C.3        1 MOL1        -0.1963
       5    H1      22.482376   22.323385   23.905543 H          1 MOL1         0.0750
       6    H2      21.465885   21.782412   25.237819 H          1 MOL1         0.0750
       7    C3      21.386179   20.491885   23.473942 C.3        1 MOL1        -0.1860
       8    H3      20.625589   21.079203   22.944448 H          1 MOL1         0.0752
       9    H4      22.085609   20.118338   22.713246 H          1 MOL1         0.0752
      10    C4      20.715454   19.300882   24.200297 C.3        1 MOL1        -0.1858
      11    H5      19.983025   19.674792   24.928664 H          1 MOL1         0.0752
      12    H6      21.476119   18.758476   24.778364 H          1 MOL1         0.0752
      13    C5      20.028937   18.297798   23.242449 C.3        1 MOL1        -0.1858
      14    H7      20.757134   17.938596   22.502664 H          1 MOL1         0.0752
      15    H8      19.725648   17.422420   23.830581 H          1 MOL1         0.0752
      16    C6      18.791303   18.882387   22.517640 C.3        1 MOL1        -0.1858
      17    H9      19.093294   19.753561   21.922887 H          1 MOL1         0.0752
      18    H10     18.065723   19.246027   23.257854 H          1 MOL1         0.0752
      19    C7      18.101328   17.873562   21.569646 C.3        1 MOL1        -0.1834
      20    H11     17.327105   18.402734   20.997107 H          1 MOL1         0.0752
      21    H12     18.827259   17.497991   20.835296 H          1 MOL1         0.0752
      22    C8      17.445546   16.686083   22.307739 C.3        1 MOL1        -0.2849
      23    H13     18.196053   16.053059   22.797048 H          1 MOL1         0.0764
      24    H14     16.740779   17.039088   23.071808 H          1 MOL1         0.0764
      25    H15     16.889995   16.055480   21.601617 H          1 MOL1         0.0764
@<TRIPOS>BOND
    1     1     2    1
    2     1     3    2
    3     1     4    1
    4     4     5    1
    5     4     6    1
    6     4     7    1
    7     7     8    1
    8     7     9    1
    9     7    10    1
   10    10    11    1
   11    10    12    1
   12    10    13    1
   13    13    14    1
   14    13    15    1
   15    13    16    1
   16    16    17    1
   17    16    18    1
   18    16    19    1
   19    19    20    1
   20    19    21    1
   21    19    22    1
   22    22    23    1
   23    22    24    1
   24    22    25    1
@<TRIPOS>SUBSTRUCTURE
       1 MOL1            1 RESIDUE      1      MOL     
@<SCITEGIC>MOL_PROPERTY
VConf Rank
SciTegic.value.IntegerValue
605

@<SCITEGIC>MOL_PROPERTY
Conf_Id
SciTegic.value.IntegerValue
101

@<SCITEGIC>MOL_PROPERTY
Delta U+W
SciTegic.value.DoubleValue
1.534

@<SCITEGIC>MOL_PROPERTY
U+W
SciTegic.value.DoubleValue
-50.095

@<SCITEGIC>MOL_PROPERTY
Grad RMS
SciTegic.value.DoubleValue
0.000000

@<SCITEGIC>MOL_PROPERTY
U
SciTegic.value.DoubleValue
9.416

@<SCITEGIC>MOL_PROPERTY
W
SciTegic.value.DoubleValue
-59.512

@<SCITEGIC>MOL_PROPERTY
W(PB)
SciTegic.value.DoubleValue
-61.988

@<SCITEGIC>MOL_PROPERTY
W(SA)
SciTegic.value.DoubleValue
2.476

@<SCITEGIC>MOL_PROPERTY
Valence
SciTegic.value.DoubleValue
8.939

@<SCITEGIC>MOL_PROPERTY
Coulomb
SciTegic.value.DoubleValue
-0.615

@<SCITEGIC>MOL_PROPERTY
VdW
SciTegic.value.DoubleValue
1.092

@<SCITEGIC>MOL_PROPERTY
VdW6
SciTegic.value.DoubleValue
-9.710

@<SCITEGIC>MOL_PROPERTY
VdW12
SciTegic.value.DoubleValue
10.802

@<SCITEGIC>MOL_PROPERTY
Bond
SciTegic.value.DoubleValue
0.216

@<SCITEGIC>MOL_PROPERTY
Angle
SciTegic.value.DoubleValue
2.979

@<SCITEGIC>MOL_PROPERTY
Pdih
SciTegic.value.DoubleValue
5.743

@<SCITEGIC>MOL_PROPERTY
Idih
SciTegic.value.DoubleValue
0.000

@<SCITEGIC>MOL_PROPERTY
Tether
SciTegic.value.DoubleValue
0.000

@<TRIPOS>MOLECULE
guest-8_confgen4.mol2 : confsearch ligand conformer 606
          25          24           1
SMALL
USER_CHARGES
 
@<TRIPOS>ATOM
       1    C1      18.717306   18.127183   19.458636 C.2        1 MOL1         0.6168
       2    O1      19.269368   18.853379   18.655765 O.co2      1 MOL1        -0.6703
       3    O2      18.214631   17.060070   19.166462 O.co2      1 MOL1        -0.6703
       4    C2      18.672591   18.568559   20.917182 C.3        1 MOL1        -0.1963
       5    H1      17.750135   18.177312   21.362535 H          1 MOL1         0.0750
       6    H2      18.603038   19.661865   20.931471 H          1 MOL1         0.0750
       7    C3      19.904304   18.086364   21.727075 C.3        1 MOL1        -0.1860
       8    H3      19.997887   16.997946   21.608688 H          1 MOL1         0.0752
       9    H4      20.818232   18.523763   21.301964 H          1 MOL1         0.0752
      10    C4      19.821558   18.413441   23.237334 C.3        1 MOL1        -0.1858
      11    H5      20.659039   17.911622   23.738626 H          1 MOL1         0.0752
      12    H6      18.902425   17.983571   23.658016 H          1 MOL1         0.0752
      13    C5      19.877307   19.930547   23.542592 C.3        1 MOL1        -0.1858
      14    H7      20.796216   20.360034   23.122875 H          1 MOL1         0.0752
      15    H8      19.045895   20.435904   23.035556 H          1 MOL1         0.0752
      16    C6      19.780661   20.261411   25.053733 C.3        1 MOL1        -0.1858
      17    H9      18.816157   19.900065   25.435620 H          1 MOL1         0.0752
      18    H10     19.763030   21.353278   25.172829 H          1 MOL1         0.0752
      19    C7      20.914517   19.683499   25.936823 C.3        1 MOL1        -0.1834
      20    H11     20.731908   19.981885   26.978295 H          1 MOL1         0.0752
      21    H12     20.881805   18.586147   25.927221 H          1 MOL1         0.0752
      22    C8      22.321031   20.166661   25.521837 C.3        1 MOL1        -0.2849
      23    H13     22.369711   21.263103   25.501208 H          1 MOL1         0.0764
      24    H14     23.076127   19.807280   26.232780 H          1 MOL1         0.0764
      25    H15     22.594422   19.790234   24.528037 H          1 MOL1         0.0764
@<TRIPOS>BOND
    1     1     2    1
    2     1     3    2
    3     1     4    1
    4     4     5    1
    5     4     6    1
    6     4     7    1
    7     7     8    1
    8     7     9    1
    9     7    10    1
   10    10    11    1
   11    10    12    1
   12    10    13    1
   13    13    14    1
   14    13    15    1
   15    13    16    1
   16    16    17    1
   17    16    18    1
   18    16    19    1
   19    19    20    1
   20    19    21    1
   21    19    22    1
   22    22    23    1
   23    22    24    1
   24    22    25    1
@<TRIPOS>SUBSTRUCTURE
       1 MOL1            1 RESIDUE      1      MOL     
@<SCITEGIC>MOL_PROPERTY
VConf Rank
SciTegic.value.IntegerValue
606

@<SCITEGIC>MOL_PROPERTY
Conf_Id
SciTegic.value.IntegerValue
75

@<SCITEGIC>MOL_PROPERTY
Delta U+W
SciTegic.value.DoubleValue
1.014

@<SCITEGIC>MOL_PROPERTY
U+W
SciTegic.value.DoubleValue
-50.615

@<SCITEGIC>MOL_PROPERTY
Grad RMS
SciTegic.value.DoubleValue
0.000000

@<SCITEGIC>MOL_PROPERTY
U
SciTegic.value.DoubleValue
8.474

@<SCITEGIC>MOL_PROPERTY
W
SciTegic.value.DoubleValue
-59.089

@<SCITEGIC>MOL_PROPERTY
W(PB)
SciTegic.value.DoubleValue
-61.530

@<SCITEGIC>MOL_PROPERTY
W(SA)
SciTegic.value.DoubleValue
2.441

@<SCITEGIC>MOL_PROPERTY
Valence
SciTegic.value.DoubleValue
9.080

@<SCITEGIC>MOL_PROPERTY
Coulomb
SciTegic.value.DoubleValue
-1.772

@<SCITEGIC>MOL_PROPERTY
VdW
SciTegic.value.DoubleValue
1.165

@<SCITEGIC>MOL_PROPERTY
VdW6
SciTegic.value.DoubleValue
-9.830

@<SCITEGIC>MOL_PROPERTY
VdW12
SciTegic.value.DoubleValue
10.996

@<SCITEGIC>MOL_PROPERTY
Bond
SciTegic.value.DoubleValue
0.240

@<SCITEGIC>MOL_PROPERTY
Angle
SciTegic.value.DoubleValue
3.225

@<SCITEGIC>MOL_PROPERTY
Pdih
SciTegic.value.DoubleValue
5.615

@<SCITEGIC>MOL_PROPERTY
Idih
SciTegic.value.DoubleValue
0.001

@<SCITEGIC>MOL_PROPERTY
Tether
SciTegic.value.DoubleValue
0.000

@<TRIPOS>MOLECULE
guest-8_confgen4.mol2 : confsearch ligand conformer 607
          25          24           1
SMALL
USER_CHARGES
 
@<TRIPOS>ATOM
       1    C1      21.068606   15.387520   21.658135 C.2        1 MOL1         0.6168
       2    O1      20.876893   15.427087   20.458830 O.co2      1 MOL1        -0.6703
       3    O2      21.856573   14.630241   22.189459 O.co2      1 MOL1        -0.6703
       4    C2      20.293063   16.356526   22.543371 C.3        1 MOL1        -0.1963
       5    H1      20.117555   15.869116   23.509906 H          1 MOL1         0.0750
       6    H2      19.312305   16.527560   22.083514 H          1 MOL1         0.0750
       7    C3      21.028885   17.703421   22.749577 C.3        1 MOL1        -0.1860
       8    H3      22.013798   17.514099   23.198573 H          1 MOL1         0.0752
       9    H4      21.208503   18.171953   21.771952 H          1 MOL1         0.0752
      10    C4      20.223142   18.667184   23.647401 C.3        1 MOL1        -0.1858
      11    H5      20.045623   18.194589   24.623082 H          1 MOL1         0.0752
      12    H6      19.238018   18.842105   23.198905 H          1 MOL1         0.0752
      13    C5      20.964970   20.008545   23.855190 C.3        1 MOL1        -0.1858
      14    H7      21.930440   19.794685   24.333781 H          1 MOL1         0.0752
      15    H8      21.199255   20.470274   22.886306 H          1 MOL1         0.0752
      16    C6      20.186284   21.009623   24.746209 C.3        1 MOL1        -0.1858
      17    H9      20.914502   21.561872   25.355789 H          1 MOL1         0.0752
      18    H10     19.549115   20.469290   25.459575 H          1 MOL1         0.0752
      19    C7      19.346683   22.051755   23.966507 C.3        1 MOL1        -0.1834
      20    H11     18.907049   22.754776   24.687377 H          1 MOL1         0.0752
      21    H12     20.006561   22.647065   23.320437 H          1 MOL1         0.0752
      22    C8      18.212573   21.442112   23.116506 C.3        1 MOL1        -0.2849
      23    H13     17.573749   20.787147   23.723043 H          1 MOL1         0.0764
      24    H14     17.581355   22.234350   22.693804 H          1 MOL1         0.0764
      25    H15     18.615677   20.859153   22.279073 H          1 MOL1         0.0764
@<TRIPOS>BOND
    1     1     2    1
    2     1     3    2
    3     1     4    1
    4     4     5    1
    5     4     6    1
    6     4     7    1
    7     7     8    1
    8     7     9    1
    9     7    10    1
   10    10    11    1
   11    10    12    1
   12    10    13    1
   13    13    14    1
   14    13    15    1
   15    13    16    1
   16    16    17    1
   17    16    18    1
   18    16    19    1
   19    19    20    1
   20    19    21    1
   21    19    22    1
   22    22    23    1
   23    22    24    1
   24    22    25    1
@<TRIPOS>SUBSTRUCTURE
       1 MOL1            1 RESIDUE      1      MOL     
@<SCITEGIC>MOL_PROPERTY
VConf Rank
SciTegic.value.IntegerValue
607

@<SCITEGIC>MOL_PROPERTY
Conf_Id
SciTegic.value.IntegerValue
125

@<SCITEGIC>MOL_PROPERTY
Delta U+W
SciTegic.value.DoubleValue
2.314

@<SCITEGIC>MOL_PROPERTY
U+W
SciTegic.value.DoubleValue
-49.315

@<SCITEGIC>MOL_PROPERTY
Grad RMS
SciTegic.value.DoubleValue
0.000000

@<SCITEGIC>MOL_PROPERTY
U
SciTegic.value.DoubleValue
9.740

@<SCITEGIC>MOL_PROPERTY
W
SciTegic.value.DoubleValue
-59.054

@<SCITEGIC>MOL_PROPERTY
W(PB)
SciTegic.value.DoubleValue
-61.488

@<SCITEGIC>MOL_PROPERTY
W(SA)
SciTegic.value.DoubleValue
2.433

@<SCITEGIC>MOL_PROPERTY
Valence
SciTegic.value.DoubleValue
10.506

@<SCITEGIC>MOL_PROPERTY
Coulomb
SciTegic.value.DoubleValue
-1.761

@<SCITEGIC>MOL_PROPERTY
VdW
SciTegic.value.DoubleValue
0.994

@<SCITEGIC>MOL_PROPERTY
VdW6
SciTegic.value.DoubleValue
-9.209

@<SCITEGIC>MOL_PROPERTY
VdW12
SciTegic.value.DoubleValue
10.203

@<SCITEGIC>MOL_PROPERTY
Bond
SciTegic.value.DoubleValue
0.193

@<SCITEGIC>MOL_PROPERTY
Angle
SciTegic.value.DoubleValue
2.979

@<SCITEGIC>MOL_PROPERTY
Pdih
SciTegic.value.DoubleValue
7.334

@<SCITEGIC>MOL_PROPERTY
Idih
SciTegic.value.DoubleValue
0.001

@<SCITEGIC>MOL_PROPERTY
Tether
SciTegic.value.DoubleValue
0.000

@<TRIPOS>MOLECULE
guest-8_confgen4.mol2 : confsearch ligand conformer 608
          25          24           1
SMALL
USER_CHARGES
 
@<TRIPOS>ATOM
       1    C1      22.945104   21.433731   21.457811 C.2        1 MOL1         0.6168
       2    O1      22.963901   22.480422   22.074884 O.co2      1 MOL1        -0.6703
       3    O2      23.562342   21.248564   20.427534 O.co2      1 MOL1        -0.6703
       4    C2      22.080319   20.297899   21.992649 C.3        1 MOL1        -0.1963
       5    H1      22.083952   20.363529   23.086449 H          1 MOL1         0.0750
       6    H2      22.558910   19.349352   21.721424 H          1 MOL1         0.0750
       7    C3      20.629386   20.340807   21.446577 C.3        1 MOL1        -0.1860
       8    H3      20.145257   21.274582   21.764402 H          1 MOL1         0.0752
       9    H4      20.666669   20.369053   20.348735 H          1 MOL1         0.0752
      10    C4      19.768676   19.131000   21.882121 C.3        1 MOL1        -0.1858
      11    H5      20.250436   18.199574   21.554518 H          1 MOL1         0.0752
      12    H6      18.804582   19.183292   21.358004 H          1 MOL1         0.0752
      13    C5      19.511253   19.075969   23.405899 C.3        1 MOL1        -0.1858
      14    H7      20.464024   18.955056   23.935271 H          1 MOL1         0.0752
      15    H8      19.075150   20.027507   23.738996 H          1 MOL1         0.0752
      16    C6      18.562570   17.914015   23.781489 C.3        1 MOL1        -0.1858
      17    H9      19.017344   16.956861   23.491790 H          1 MOL1         0.0752
      18    H10     17.635362   18.006627   23.199637 H          1 MOL1         0.0752
      19    C7      18.196983   17.879301   25.283807 C.3        1 MOL1        -0.1834
      20    H11     17.736802   18.833379   25.575825 H          1 MOL1         0.0752
      21    H12     17.433501   17.105306   25.442721 H          1 MOL1         0.0752
      22    C8      19.403581   17.582404   26.200626 C.3        1 MOL1        -0.2849
      23    H13     20.143505   18.391642   26.164091 H          1 MOL1         0.0764
      24    H14     19.076786   17.478499   27.243364 H          1 MOL1         0.0764
      25    H15     19.899555   16.648041   25.907226 H          1 MOL1         0.0764
@<TRIPOS>BOND
    1     1     2    1
    2     1     3    2
    3     1     4    1
    4     4     5    1
    5     4     6    1
    6     4     7    1
    7     7     8    1
    8     7     9    1
    9     7    10    1
   10    10    11    1
   11    10    12    1
   12    10    13    1
   13    13    14    1
   14    13    15    1
   15    13    16    1
   16    16    17    1
   17    16    18    1
   18    16    19    1
   19    19    20    1
   20    19    21    1
   21    19    22    1
   22    22    23    1
   23    22    24    1
   24    22    25    1
@<TRIPOS>SUBSTRUCTURE
       1 MOL1            1 RESIDUE      1      MOL     
@<SCITEGIC>MOL_PROPERTY
VConf Rank
SciTegic.value.IntegerValue
608

@<SCITEGIC>MOL_PROPERTY
Conf_Id
SciTegic.value.IntegerValue
4

@<SCITEGIC>MOL_PROPERTY
Delta U+W
SciTegic.value.DoubleValue
0.189

@<SCITEGIC>MOL_PROPERTY
U+W
SciTegic.value.DoubleValue
-51.441

@<SCITEGIC>MOL_PROPERTY
Grad RMS
SciTegic.value.DoubleValue
0.000000

@<SCITEGIC>MOL_PROPERTY
U
SciTegic.value.DoubleValue
7.701

@<SCITEGIC>MOL_PROPERTY
W
SciTegic.value.DoubleValue
-59.141

@<SCITEGIC>MOL_PROPERTY
W(PB)
SciTegic.value.DoubleValue
-61.609

@<SCITEGIC>MOL_PROPERTY
W(SA)
SciTegic.value.DoubleValue
2.467

@<SCITEGIC>MOL_PROPERTY
Valence
SciTegic.value.DoubleValue
8.550

@<SCITEGIC>MOL_PROPERTY
Coulomb
SciTegic.value.DoubleValue
-1.988

@<SCITEGIC>MOL_PROPERTY
VdW
SciTegic.value.DoubleValue
1.139

@<SCITEGIC>MOL_PROPERTY
VdW6
SciTegic.value.DoubleValue
-8.988

@<SCITEGIC>MOL_PROPERTY
VdW12
SciTegic.value.DoubleValue
10.127

@<SCITEGIC>MOL_PROPERTY
Bond
SciTegic.value.DoubleValue
0.191

@<SCITEGIC>MOL_PROPERTY
Angle
SciTegic.value.DoubleValue
2.738

@<SCITEGIC>MOL_PROPERTY
Pdih
SciTegic.value.DoubleValue
5.621

@<SCITEGIC>MOL_PROPERTY
Idih
SciTegic.value.DoubleValue
0.001

@<SCITEGIC>MOL_PROPERTY
Tether
SciTegic.value.DoubleValue
0.000

@<TRIPOS>MOLECULE
guest-8_confgen4.mol2 : confsearch ligand conformer 609
          25          24           1
SMALL
USER_CHARGES
 
@<TRIPOS>ATOM
       1    C1      23.048395   21.948692   23.689104 C.2        1 MOL1         0.6168
       2    O1      23.123536   22.176998   24.880290 O.co2      1 MOL1        -0.6703
       3    O2      23.842379   22.370428   22.871504 O.co2      1 MOL1        -0.6703
       4    C2      21.908421   21.064895   23.195764 C.3        1 MOL1        -0.1963
       5    H1      21.639204   21.390360   22.183860 H          1 MOL1         0.0750
       6    H2      21.041076   21.250462   23.839192 H          1 MOL1         0.0750
       7    C3      22.275826   19.558161   23.193482 C.3        1 MOL1        -0.1860
       8    H3      23.201968   19.422075   22.617993 H          1 MOL1         0.0752
       9    H4      22.497769   19.233128   24.219360 H          1 MOL1         0.0752
      10    C4      21.177039   18.654613   22.584859 C.3        1 MOL1        -0.1858
      11    H5      21.567674   17.630114   22.516173 H          1 MOL1         0.0752
      12    H6      20.964485   18.975848   21.555976 H          1 MOL1         0.0752
      13    C5      19.867314   18.640233   23.406813 C.3        1 MOL1        -0.1858
      14    H7      20.089935   18.366994   24.447171 H          1 MOL1         0.0752
      15    H8      19.433154   19.647133   23.423682 H          1 MOL1         0.0752
      16    C6      18.838321   17.645670   22.820964 C.3        1 MOL1        -0.1858
      17    H9      19.301946   16.652395   22.748154 H          1 MOL1         0.0752
      18    H10     18.578230   17.943467   21.795997 H          1 MOL1         0.0752
      19    C7      17.549486   17.524086   23.667095 C.3        1 MOL1        -0.1834
      20    H11     16.929799   16.717760   23.251098 H          1 MOL1         0.0752
      21    H12     17.805547   17.221185   24.691786 H          1 MOL1         0.0752
      22    C8      16.715736   18.823393   23.702470 C.3        1 MOL1        -0.2849
      23    H13     16.474436   19.163264   22.686906 H          1 MOL1         0.0764
      24    H14     15.771261   18.658821   24.237052 H          1 MOL1         0.0764
      25    H15     17.252128   19.630007   24.217585 H          1 MOL1         0.0764
@<TRIPOS>BOND
    1     1     2    1
    2     1     3    2
    3     1     4    1
    4     4     5    1
    5     4     6    1
    6     4     7    1
    7     7     8    1
    8     7     9    1
    9     7    10    1
   10    10    11    1
   11    10    12    1
   12    10    13    1
   13    13    14    1
   14    13    15    1
   15    13    16    1
   16    16    17    1
   17    16    18    1
   18    16    19    1
   19    19    20    1
   20    19    21    1
   21    19    22    1
   22    22    23    1
   23    22    24    1
   24    22    25    1
@<TRIPOS>SUBSTRUCTURE
       1 MOL1            1 RESIDUE      1      MOL     
@<SCITEGIC>MOL_PROPERTY
VConf Rank
SciTegic.value.IntegerValue
609

@<SCITEGIC>MOL_PROPERTY
Conf_Id
SciTegic.value.IntegerValue
17

@<SCITEGIC>MOL_PROPERTY
Delta U+W
SciTegic.value.DoubleValue
0.219

@<SCITEGIC>MOL_PROPERTY
U+W
SciTegic.value.DoubleValue
-51.411

@<SCITEGIC>MOL_PROPERTY
Grad RMS
SciTegic.value.DoubleValue
0.000000

@<SCITEGIC>MOL_PROPERTY
U
SciTegic.value.DoubleValue
7.701

@<SCITEGIC>MOL_PROPERTY
W
SciTegic.value.DoubleValue
-59.111

@<SCITEGIC>MOL_PROPERTY
W(PB)
SciTegic.value.DoubleValue
-61.599

@<SCITEGIC>MOL_PROPERTY
W(SA)
SciTegic.value.DoubleValue
2.488

@<SCITEGIC>MOL_PROPERTY
Valence
SciTegic.value.DoubleValue
8.550

@<SCITEGIC>MOL_PROPERTY
Coulomb
SciTegic.value.DoubleValue
-1.988

@<SCITEGIC>MOL_PROPERTY
VdW
SciTegic.value.DoubleValue
1.139

@<SCITEGIC>MOL_PROPERTY
VdW6
SciTegic.value.DoubleValue
-8.988

@<SCITEGIC>MOL_PROPERTY
VdW12
SciTegic.value.DoubleValue
10.127

@<SCITEGIC>MOL_PROPERTY
Bond
SciTegic.value.DoubleValue
0.191

@<SCITEGIC>MOL_PROPERTY
Angle
SciTegic.value.DoubleValue
2.738

@<SCITEGIC>MOL_PROPERTY
Pdih
SciTegic.value.DoubleValue
5.621

@<SCITEGIC>MOL_PROPERTY
Idih
SciTegic.value.DoubleValue
0.001

@<SCITEGIC>MOL_PROPERTY
Tether
SciTegic.value.DoubleValue
0.000

@<TRIPOS>MOLECULE
guest-8_confgen4.mol2 : confsearch ligand conformer 610
          25          24           1
SMALL
USER_CHARGES
 
@<TRIPOS>ATOM
       1    C1      18.090539   21.187086   20.697860 C.2        1 MOL1         0.6168
       2    O1      18.808160   22.014783   20.171553 O.co2      1 MOL1        -0.6703
       3    O2      17.096777   21.468185   21.338560 O.co2      1 MOL1        -0.6703
       4    C2      18.444059   19.712035   20.529998 C.3        1 MOL1        -0.1963
       5    H1      19.112893   19.608445   19.667036 H          1 MOL1         0.0750
       6    H2      17.519109   19.179025   20.280294 H          1 MOL1         0.0750
       7    C3      19.087461   19.072287   21.787636 C.3        1 MOL1        -0.1860
       8    H3      18.409003   19.205453   22.640648 H          1 MOL1         0.0752
       9    H4      19.187093   17.990470   21.626359 H          1 MOL1         0.0752
      10    C4      20.477406   19.670891   22.110866 C.3        1 MOL1        -0.1858
      11    H5      20.378331   20.740207   22.343396 H          1 MOL1         0.0752
      12    H6      21.110637   19.606821   21.215455 H          1 MOL1         0.0752
      13    C5      21.200603   18.955074   23.276334 C.3        1 MOL1        -0.1858
      14    H7      21.308697   17.887208   23.042182 H          1 MOL1         0.0752
      15    H8      22.218610   19.360453   23.355007 H          1 MOL1         0.0752
      16    C6      20.487415   19.120876   24.638282 C.3        1 MOL1        -0.1858
      17    H9      19.494924   18.653436   24.601004 H          1 MOL1         0.0752
      18    H10     20.331743   20.188854   24.843428 H          1 MOL1         0.0752
      19    C7      21.299703   18.488563   25.788115 C.3        1 MOL1        -0.1834
      20    H11     21.458749   17.420429   25.585008 H          1 MOL1         0.0752
      21    H12     22.293211   18.955041   25.840683 H          1 MOL1         0.0752
      22    C8      20.585473   18.651448   27.144974 C.3        1 MOL1        -0.2849
      23    H13     19.601014   18.165607   27.131495 H          1 MOL1         0.0764
      24    H14     21.176712   18.196903   27.950506 H          1 MOL1         0.0764
      25    H15     20.440879   19.712352   27.387781 H          1 MOL1         0.0764
@<TRIPOS>BOND
    1     1     2    1
    2     1     3    2
    3     1     4    1
    4     4     5    1
    5     4     6    1
    6     4     7    1
    7     7     8    1
    8     7     9    1
    9     7    10    1
   10    10    11    1
   11    10    12    1
   12    10    13    1
   13    13    14    1
   14    13    15    1
   15    13    16    1
   16    16    17    1
   17    16    18    1
   18    16    19    1
   19    19    20    1
   20    19    21    1
   21    19    22    1
   22    22    23    1
   23    22    24    1
   24    22    25    1
@<TRIPOS>SUBSTRUCTURE
       1 MOL1            1 RESIDUE      1      MOL     
@<SCITEGIC>MOL_PROPERTY
VConf Rank
SciTegic.value.IntegerValue
610

@<SCITEGIC>MOL_PROPERTY
Conf_Id
SciTegic.value.IntegerValue
142

@<SCITEGIC>MOL_PROPERTY
Delta U+W
SciTegic.value.DoubleValue
0.593

@<SCITEGIC>MOL_PROPERTY
U+W
SciTegic.value.DoubleValue
-51.037

@<SCITEGIC>MOL_PROPERTY
Grad RMS
SciTegic.value.DoubleValue
0.000000

@<SCITEGIC>MOL_PROPERTY
U
SciTegic.value.DoubleValue
8.903

@<SCITEGIC>MOL_PROPERTY
W
SciTegic.value.DoubleValue
-59.940

@<SCITEGIC>MOL_PROPERTY
W(PB)
SciTegic.value.DoubleValue
-62.418

@<SCITEGIC>MOL_PROPERTY
W(SA)
SciTegic.value.DoubleValue
2.478

@<SCITEGIC>MOL_PROPERTY
Valence
SciTegic.value.DoubleValue
8.305

@<SCITEGIC>MOL_PROPERTY
Coulomb
SciTegic.value.DoubleValue
-0.223

@<SCITEGIC>MOL_PROPERTY
VdW
SciTegic.value.DoubleValue
0.821

@<SCITEGIC>MOL_PROPERTY
VdW6
SciTegic.value.DoubleValue
-9.236

@<SCITEGIC>MOL_PROPERTY
VdW12
SciTegic.value.DoubleValue
10.057

@<SCITEGIC>MOL_PROPERTY
Bond
SciTegic.value.DoubleValue
0.173

@<SCITEGIC>MOL_PROPERTY
Angle
SciTegic.value.DoubleValue
2.663

@<SCITEGIC>MOL_PROPERTY
Pdih
SciTegic.value.DoubleValue
5.469

@<SCITEGIC>MOL_PROPERTY
Idih
SciTegic.value.DoubleValue
0.001

@<SCITEGIC>MOL_PROPERTY
Tether
SciTegic.value.DoubleValue
0.000

@<TRIPOS>MOLECULE
guest-8_confgen4.mol2 : confsearch ligand conformer 611
          25          24           1
SMALL
USER_CHARGES
 
@<TRIPOS>ATOM
       1    C1      17.852520   21.750237   23.599352 C.2        1 MOL1         0.6168
       2    O1      16.700141   21.959241   23.273930 O.co2      1 MOL1        -0.6703
       3    O2      18.317188   22.076926   24.673788 O.co2      1 MOL1        -0.6703
       4    C2      18.770711   21.064928   22.591278 C.3        1 MOL1        -0.1963
       5    H1      19.809560   21.200526   22.913307 H          1 MOL1         0.0750
       6    H2      18.668102   21.599962   21.640105 H          1 MOL1         0.0750
       7    C3      18.458831   19.559504   22.370909 C.3        1 MOL1        -0.1860
       8    H3      17.434917   19.465307   21.983735 H          1 MOL1         0.0752
       9    H4      19.114888   19.165695   21.583920 H          1 MOL1         0.0752
      10    C4      18.588989   18.685088   23.644917 C.3        1 MOL1        -0.1858
      11    H5      18.343308   17.646206   23.386147 H          1 MOL1         0.0752
      12    H6      17.830774   19.001225   24.374474 H          1 MOL1         0.0752
      13    C5      19.978158   18.716322   24.330164 C.3        1 MOL1        -0.1858
      14    H7      20.191251   19.729597   24.696250 H          1 MOL1         0.0752
      15    H8      19.937811   18.075016   25.221023 H          1 MOL1         0.0752
      16    C6      21.129150   18.235542   23.416526 C.3        1 MOL1        -0.1858
      17    H9      21.229709   18.910387   22.556540 H          1 MOL1         0.0752
      18    H10     20.890350   17.240051   23.018220 H          1 MOL1         0.0752
      19    C7      22.472840   18.179939   24.173389 C.3        1 MOL1        -0.1834
      20    H11     22.712304   19.174357   24.574970 H          1 MOL1         0.0752
      21    H12     22.386615   17.500712   25.032801 H          1 MOL1         0.0752
      22    C8      23.620765   17.706150   23.259340 C.3        1 MOL1        -0.2849
      23    H13     23.750559   18.386277   22.407315 H          1 MOL1         0.0764
      24    H14     24.567801   17.672432   23.813436 H          1 MOL1         0.0764
      25    H15     23.421100   16.700133   22.867657 H          1 MOL1         0.0764
@<TRIPOS>BOND
    1     1     2    1
    2     1     3    2
    3     1     4    1
    4     4     5    1
    5     4     6    1
    6     4     7    1
    7     7     8    1
    8     7     9    1
    9     7    10    1
   10    10    11    1
   11    10    12    1
   12    10    13    1
   13    13    14    1
   14    13    15    1
   15    13    16    1
   16    16    17    1
   17    16    18    1
   18    16    19    1
   19    19    20    1
   20    19    21    1
   21    19    22    1
   22    22    23    1
   23    22    24    1
   24    22    25    1
@<TRIPOS>SUBSTRUCTURE
       1 MOL1            1 RESIDUE      1      MOL     
@<SCITEGIC>MOL_PROPERTY
VConf Rank
SciTegic.value.IntegerValue
611

@<SCITEGIC>MOL_PROPERTY
Conf_Id
SciTegic.value.IntegerValue
135

@<SCITEGIC>MOL_PROPERTY
Delta U+W
SciTegic.value.DoubleValue
1.314

@<SCITEGIC>MOL_PROPERTY
U+W
SciTegic.value.DoubleValue
-50.316

@<SCITEGIC>MOL_PROPERTY
Grad RMS
SciTegic.value.DoubleValue
0.000000

@<SCITEGIC>MOL_PROPERTY
U
SciTegic.value.DoubleValue
9.773

@<SCITEGIC>MOL_PROPERTY
W
SciTegic.value.DoubleValue
-60.088

@<SCITEGIC>MOL_PROPERTY
W(PB)
SciTegic.value.DoubleValue
-62.535

@<SCITEGIC>MOL_PROPERTY
W(SA)
SciTegic.value.DoubleValue
2.447

@<SCITEGIC>MOL_PROPERTY
Valence
SciTegic.value.DoubleValue
8.741

@<SCITEGIC>MOL_PROPERTY
Coulomb
SciTegic.value.DoubleValue
0.479

@<SCITEGIC>MOL_PROPERTY
VdW
SciTegic.value.DoubleValue
0.552

@<SCITEGIC>MOL_PROPERTY
VdW6
SciTegic.value.DoubleValue
-10.627

@<SCITEGIC>MOL_PROPERTY
VdW12
SciTegic.value.DoubleValue
11.179

@<SCITEGIC>MOL_PROPERTY
Bond
SciTegic.value.DoubleValue
0.227

@<SCITEGIC>MOL_PROPERTY
Angle
SciTegic.value.DoubleValue
3.155

@<SCITEGIC>MOL_PROPERTY
Pdih
SciTegic.value.DoubleValue
5.358

@<SCITEGIC>MOL_PROPERTY
Idih
SciTegic.value.DoubleValue
0.001

@<SCITEGIC>MOL_PROPERTY
Tether
SciTegic.value.DoubleValue
0.000

@<TRIPOS>MOLECULE
guest-8_confgen4.mol2 : confsearch ligand conformer 612
          25          24           1
SMALL
USER_CHARGES
 
@<TRIPOS>ATOM
       1    C1      22.279613   22.768148   22.776413 C.2        1 MOL1         0.6168
       2    O1      22.194275   23.243473   21.661279 O.co2      1 MOL1        -0.6703
       3    O2      22.625140   23.402364   23.753733 O.co2      1 MOL1        -0.6703
       4    C2      21.911016   21.300786   22.963940 C.3        1 MOL1        -0.1963
       5    H1      22.525622   20.897464   23.777536 H          1 MOL1         0.0750
       6    H2      22.192216   20.768222   22.048804 H          1 MOL1         0.0750
       7    C3      20.405971   21.096715   23.278622 C.3        1 MOL1        -0.1860
       8    H3      20.141265   21.721842   24.142678 H          1 MOL1         0.0752
       9    H4      19.800843   21.460195   22.436610 H          1 MOL1         0.0752
      10    C4      20.031304   19.629634   23.598360 C.3        1 MOL1        -0.1858
      11    H5      18.993947   19.617654   23.955762 H          1 MOL1         0.0752
      12    H6      20.654920   19.260270   24.423740 H          1 MOL1         0.0752
      13    C5      20.155276   18.682180   22.381223 C.3        1 MOL1        -0.1858
      14    H7      19.483979   19.025547   21.582440 H          1 MOL1         0.0752
      15    H8      21.172535   18.738225   21.974384 H          1 MOL1         0.0752
      16    C6      19.856122   17.195612   22.700740 C.3        1 MOL1        -0.1858
      17    H9      20.582710   16.814460   23.431288 H          1 MOL1         0.0752
      18    H10     20.028339   16.619469   21.781352 H          1 MOL1         0.0752
      19    C7      18.411273   16.912392   23.182818 C.3        1 MOL1        -0.1834
      20    H11     17.722402   17.673637   22.791414 H          1 MOL1         0.0752
      21    H12     18.080289   15.954526   22.758266 H          1 MOL1         0.0752
      22    C8      18.291008   16.820147   24.720444 C.3        1 MOL1        -0.2849
      23    H13     18.598927   17.750781   25.210570 H          1 MOL1         0.0764
      24    H14     17.253272   16.614245   25.012876 H          1 MOL1         0.0764
      25    H15     18.917448   16.008390   25.112497 H          1 MOL1         0.0764
@<TRIPOS>BOND
    1     1     2    1
    2     1     3    2
    3     1     4    1
    4     4     5    1
    5     4     6    1
    6     4     7    1
    7     7     8    1
    8     7     9    1
    9     7    10    1
   10    10    11    1
   11    10    12    1
   12    10    13    1
   13    13    14    1
   14    13    15    1
   15    13    16    1
   16    16    17    1
   17    16    18    1
   18    16    19    1
   19    19    20    1
   20    19    21    1
   21    19    22    1
   22    22    23    1
   23    22    24    1
   24    22    25    1
@<TRIPOS>SUBSTRUCTURE
       1 MOL1            1 RESIDUE      1      MOL     
@<SCITEGIC>MOL_PROPERTY
VConf Rank
SciTegic.value.IntegerValue
612

@<SCITEGIC>MOL_PROPERTY
Conf_Id
SciTegic.value.IntegerValue
19

@<SCITEGIC>MOL_PROPERTY
Delta U+W
SciTegic.value.DoubleValue
3.222

@<SCITEGIC>MOL_PROPERTY
U+W
SciTegic.value.DoubleValue
-48.407

@<SCITEGIC>MOL_PROPERTY
Grad RMS
SciTegic.value.DoubleValue
0.000000

@<SCITEGIC>MOL_PROPERTY
U
SciTegic.value.DoubleValue
10.617

@<SCITEGIC>MOL_PROPERTY
W
SciTegic.value.DoubleValue
-59.025

@<SCITEGIC>MOL_PROPERTY
W(PB)
SciTegic.value.DoubleValue
-61.462

@<SCITEGIC>MOL_PROPERTY
W(SA)
SciTegic.value.DoubleValue
2.437

@<SCITEGIC>MOL_PROPERTY
Valence
SciTegic.value.DoubleValue
11.188

@<SCITEGIC>MOL_PROPERTY
Coulomb
SciTegic.value.DoubleValue
-1.778

@<SCITEGIC>MOL_PROPERTY
VdW
SciTegic.value.DoubleValue
1.208

@<SCITEGIC>MOL_PROPERTY
VdW6
SciTegic.value.DoubleValue
-9.786

@<SCITEGIC>MOL_PROPERTY
VdW12
SciTegic.value.DoubleValue
10.993

@<SCITEGIC>MOL_PROPERTY
Bond
SciTegic.value.DoubleValue
0.241

@<SCITEGIC>MOL_PROPERTY
Angle
SciTegic.value.DoubleValue
3.294

@<SCITEGIC>MOL_PROPERTY
Pdih
SciTegic.value.DoubleValue
7.653

@<SCITEGIC>MOL_PROPERTY
Idih
SciTegic.value.DoubleValue
0.001

@<SCITEGIC>MOL_PROPERTY
Tether
SciTegic.value.DoubleValue
0.000

@<TRIPOS>MOLECULE
guest-8_confgen4.mol2 : confsearch ligand conformer 613
          25          24           1
SMALL
USER_CHARGES
 
@<TRIPOS>ATOM
       1    C1      16.215917   19.606195   24.853907 C.2        1 MOL1         0.6168
       2    O1      16.120618   20.494554   25.677604 O.co2      1 MOL1        -0.6703
       3    O2      15.422199   18.691214   24.755964 O.co2      1 MOL1        -0.6703
       4    C2      17.409855   19.627923   23.906161 C.3        1 MOL1        -0.1963
       5    H1      17.655907   20.676536   23.706059 H          1 MOL1         0.0750
       6    H2      17.097192   19.179518   22.955622 H          1 MOL1         0.0750
       7    C3      18.639871   18.873236   24.474787 C.3        1 MOL1        -0.1860
       8    H3      18.974561   19.359541   25.401487 H          1 MOL1         0.0752
       9    H4      18.328689   17.856897   24.753475 H          1 MOL1         0.0752
      10    C4      19.821077   18.771777   23.480104 C.3        1 MOL1        -0.1858
      11    H5      19.478279   18.308250   22.545110 H          1 MOL1         0.0752
      12    H6      20.568368   18.095073   23.913251 H          1 MOL1         0.0752
      13    C5      20.490778   20.133426   23.176993 C.3        1 MOL1        -0.1858
      14    H7      19.736914   20.838972   22.806357 H          1 MOL1         0.0752
      15    H8      20.882863   20.562089   24.109256 H          1 MOL1         0.0752
      16    C6      21.627302   20.061997   22.125954 C.3        1 MOL1        -0.1858
      17    H9      21.984435   21.086923   21.956089 H          1 MOL1         0.0752
      18    H10     21.226303   19.722825   21.161035 H          1 MOL1         0.0752
      19    C7      22.840653   19.191606   22.538753 C.3        1 MOL1        -0.1834
      20    H11     23.759229   19.675642   22.179269 H          1 MOL1         0.0752
      21    H12     22.925955   19.150632   23.633412 H          1 MOL1         0.0752
      22    C8      22.791907   17.763585   21.950837 C.3        1 MOL1        -0.2849
      23    H13     22.786210   17.793733   20.853504 H          1 MOL1         0.0764
      24    H14     23.671866   17.188174   22.266085 H          1 MOL1         0.0764
      25    H15     21.899699   17.217655   22.278013 H          1 MOL1         0.0764
@<TRIPOS>BOND
    1     1     2    1
    2     1     3    2
    3     1     4    1
    4     4     5    1
    5     4     6    1
    6     4     7    1
    7     7     8    1
    8     7     9    1
    9     7    10    1
   10    10    11    1
   11    10    12    1
   12    10    13    1
   13    13    14    1
   14    13    15    1
   15    13    16    1
   16    16    17    1
   17    16    18    1
   18    16    19    1
   19    19    20    1
   20    19    21    1
   21    19    22    1
   22    22    23    1
   23    22    24    1
   24    22    25    1
@<TRIPOS>SUBSTRUCTURE
       1 MOL1            1 RESIDUE      1      MOL     
@<SCITEGIC>MOL_PROPERTY
VConf Rank
SciTegic.value.IntegerValue
613

@<SCITEGIC>MOL_PROPERTY
Conf_Id
SciTegic.value.IntegerValue
20

@<SCITEGIC>MOL_PROPERTY
Delta U+W
SciTegic.value.DoubleValue
3.224

@<SCITEGIC>MOL_PROPERTY
U+W
SciTegic.value.DoubleValue
-48.406

@<SCITEGIC>MOL_PROPERTY
Grad RMS
SciTegic.value.DoubleValue
0.000000

@<SCITEGIC>MOL_PROPERTY
U
SciTegic.value.DoubleValue
10.617

@<SCITEGIC>MOL_PROPERTY
W
SciTegic.value.DoubleValue
-59.023

@<SCITEGIC>MOL_PROPERTY
W(PB)
SciTegic.value.DoubleValue
-61.467

@<SCITEGIC>MOL_PROPERTY
W(SA)
SciTegic.value.DoubleValue
2.444

@<SCITEGIC>MOL_PROPERTY
Valence
SciTegic.value.DoubleValue
11.188

@<SCITEGIC>MOL_PROPERTY
Coulomb
SciTegic.value.DoubleValue
-1.778

@<SCITEGIC>MOL_PROPERTY
VdW
SciTegic.value.DoubleValue
1.208

@<SCITEGIC>MOL_PROPERTY
VdW6
SciTegic.value.DoubleValue
-9.786

@<SCITEGIC>MOL_PROPERTY
VdW12
SciTegic.value.DoubleValue
10.993

@<SCITEGIC>MOL_PROPERTY
Bond
SciTegic.value.DoubleValue
0.241

@<SCITEGIC>MOL_PROPERTY
Angle
SciTegic.value.DoubleValue
3.294

@<SCITEGIC>MOL_PROPERTY
Pdih
SciTegic.value.DoubleValue
7.653

@<SCITEGIC>MOL_PROPERTY
Idih
SciTegic.value.DoubleValue
0.001

@<SCITEGIC>MOL_PROPERTY
Tether
SciTegic.value.DoubleValue
0.000

@<TRIPOS>MOLECULE
guest-8_confgen4.mol2 : confsearch ligand conformer 614
          25          24           1
SMALL
USER_CHARGES
 
@<TRIPOS>ATOM
       1    C1      18.087908   18.931559   20.938388 C.2        1 MOL1         0.6168
       2    O1      18.122025   20.003046   20.365330 O.co2      1 MOL1        -0.6703
       3    O2      17.143356   18.557702   21.605674 O.co2      1 MOL1        -0.6703
       4    C2      19.265168   17.975059   20.757948 C.3        1 MOL1        -0.1963
       5    H1      19.296058   17.722363   19.691807 H          1 MOL1         0.0750
       6    H2      19.052777   17.042928   21.295358 H          1 MOL1         0.0750
       7    C3      20.649695   18.539234   21.184447 C.3        1 MOL1        -0.1860
       8    H3      21.426542   17.944372   20.685373 H          1 MOL1         0.0752
       9    H4      20.767675   19.565384   20.809357 H          1 MOL1         0.0752
      10    C4      20.927891   18.495395   22.707526 C.3        1 MOL1        -0.1858
      11    H5      21.978366   18.772287   22.871280 H          1 MOL1         0.0752
      12    H6      20.819733   17.465297   23.073633 H          1 MOL1         0.0752
      13    C5      20.030251   19.439102   23.539564 C.3        1 MOL1        -0.1858
      14    H7      20.057569   20.449301   23.108522 H          1 MOL1         0.0752
      15    H8      18.988258   19.098204   23.494366 H          1 MOL1         0.0752
      16    C6      20.474911   19.494662   25.017319 C.3        1 MOL1        -0.1858
      17    H9      21.515170   19.843106   25.075752 H          1 MOL1         0.0752
      18    H10     20.451599   18.483028   25.445204 H          1 MOL1         0.0752
      19    C7      19.572248   20.427858   25.851416 C.3        1 MOL1        -0.1834
      20    H11     19.594003   21.440941   25.426389 H          1 MOL1         0.0752
      21    H12     18.530820   20.081387   25.796717 H          1 MOL1         0.0752
      22    C8      20.018252   20.480917   27.326521 C.3        1 MOL1        -0.2849
      23    H13     21.047026   20.854524   27.412610 H          1 MOL1         0.0764
      24    H14     19.365791   21.148484   27.904200 H          1 MOL1         0.0764
      25    H15     19.975720   19.484585   27.785746 H          1 MOL1         0.0764
@<TRIPOS>BOND
    1     1     2    1
    2     1     3    2
    3     1     4    1
    4     4     5    1
    5     4     6    1
    6     4     7    1
    7     7     8    1
    8     7     9    1
    9     7    10    1
   10    10    11    1
   11    10    12    1
   12    10    13    1
   13    13    14    1
   14    13    15    1
   15    13    16    1
   16    16    17    1
   17    16    18    1
   18    16    19    1
   19    19    20    1
   20    19    21    1
   21    19    22    1
   22    22    23    1
   23    22    24    1
   24    22    25    1
@<TRIPOS>SUBSTRUCTURE
       1 MOL1            1 RESIDUE      1      MOL     
@<SCITEGIC>MOL_PROPERTY
VConf Rank
SciTegic.value.IntegerValue
614

@<SCITEGIC>MOL_PROPERTY
Conf_Id
SciTegic.value.IntegerValue
24

@<SCITEGIC>MOL_PROPERTY
Delta U+W
SciTegic.value.DoubleValue
1.784

@<SCITEGIC>MOL_PROPERTY
U+W
SciTegic.value.DoubleValue
-49.846

@<SCITEGIC>MOL_PROPERTY
Grad RMS
SciTegic.value.DoubleValue
0.000000

@<SCITEGIC>MOL_PROPERTY
U
SciTegic.value.DoubleValue
10.904

@<SCITEGIC>MOL_PROPERTY
W
SciTegic.value.DoubleValue
-60.749

@<SCITEGIC>MOL_PROPERTY
W(PB)
SciTegic.value.DoubleValue
-63.220

@<SCITEGIC>MOL_PROPERTY
W(SA)
SciTegic.value.DoubleValue
2.471

@<SCITEGIC>MOL_PROPERTY
Valence
SciTegic.value.DoubleValue
9.445

@<SCITEGIC>MOL_PROPERTY
Coulomb
SciTegic.value.DoubleValue
0.780

@<SCITEGIC>MOL_PROPERTY
VdW
SciTegic.value.DoubleValue
0.679

@<SCITEGIC>MOL_PROPERTY
VdW6
SciTegic.value.DoubleValue
-10.008

@<SCITEGIC>MOL_PROPERTY
VdW12
SciTegic.value.DoubleValue
10.687

@<SCITEGIC>MOL_PROPERTY
Bond
SciTegic.value.DoubleValue
0.201

@<SCITEGIC>MOL_PROPERTY
Angle
SciTegic.value.DoubleValue
3.198

@<SCITEGIC>MOL_PROPERTY
Pdih
SciTegic.value.DoubleValue
6.039

@<SCITEGIC>MOL_PROPERTY
Idih
SciTegic.value.DoubleValue
0.006

@<SCITEGIC>MOL_PROPERTY
Tether
SciTegic.value.DoubleValue
0.000

@<TRIPOS>MOLECULE
guest-8_confgen4.mol2 : confsearch ligand conformer 615
          25          24           1
SMALL
USER_CHARGES
 
@<TRIPOS>ATOM
       1    C1      18.539924   19.220932   26.332363 C.2        1 MOL1         0.6168
       2    O1      17.717855   20.102233   26.173764 O.co2      1 MOL1        -0.6703
       3    O2      18.268893   18.036671   26.296486 O.co2      1 MOL1        -0.6703
       4    C2      19.977290   19.620724   26.660286 C.3        1 MOL1        -0.1963
       5    H1      20.571757   18.713320   26.821572 H          1 MOL1         0.0750
       6    H2      19.939213   20.145749   27.621726 H          1 MOL1         0.0750
       7    C3      20.666916   20.536956   25.610506 C.3        1 MOL1        -0.1860
       8    H3      19.977346   21.333479   25.298035 H          1 MOL1         0.0752
       9    H4      21.508727   21.042520   26.102632 H          1 MOL1         0.0752
      10    C4      21.222133   19.797632   24.367840 C.3        1 MOL1        -0.1858
      11    H5      21.919615   19.011035   24.686618 H          1 MOL1         0.0752
      12    H6      21.812441   20.513496   23.779573 H          1 MOL1         0.0752
      13    C5      20.131820   19.187338   23.458233 C.3        1 MOL1        -0.1858
      14    H7      19.616378   18.375888   23.987266 H          1 MOL1         0.0752
      15    H8      19.376583   19.950325   23.224752 H          1 MOL1         0.0752
      16    C6      20.727723   18.630563   22.146946 C.3        1 MOL1        -0.1858
      17    H9      21.486102   17.871351   22.382507 H          1 MOL1         0.0752
      18    H10     21.239682   19.436778   21.603916 H          1 MOL1         0.0752
      19    C7      19.641409   18.010646   21.243068 C.3        1 MOL1        -0.1834
      20    H11     19.128174   17.202371   21.782406 H          1 MOL1         0.0752
      21    H12     18.881514   18.767844   21.005017 H          1 MOL1         0.0752
      22    C8      20.239345   17.455214   19.934773 C.3        1 MOL1        -0.2849
      23    H13     20.980689   16.672628   20.142963 H          1 MOL1         0.0764
      24    H14     19.453379   17.018569   19.304961 H          1 MOL1         0.0764
      25    H15     20.732102   18.250038   19.359607 H          1 MOL1         0.0764
@<TRIPOS>BOND
    1     1     2    1
    2     1     3    2
    3     1     4    1
    4     4     5    1
    5     4     6    1
    6     4     7    1
    7     7     8    1
    8     7     9    1
    9     7    10    1
   10    10    11    1
   11    10    12    1
   12    10    13    1
   13    13    14    1
   14    13    15    1
   15    13    16    1
   16    16    17    1
   17    16    18    1
   18    16    19    1
   19    19    20    1
   20    19    21    1
   21    19    22    1
   22    22    23    1
   23    22    24    1
   24    22    25    1
@<TRIPOS>SUBSTRUCTURE
       1 MOL1            1 RESIDUE      1      MOL     
@<SCITEGIC>MOL_PROPERTY
VConf Rank
SciTegic.value.IntegerValue
615

@<SCITEGIC>MOL_PROPERTY
Conf_Id
SciTegic.value.IntegerValue
9

@<SCITEGIC>MOL_PROPERTY
Delta U+W
SciTegic.value.DoubleValue
1.764

@<SCITEGIC>MOL_PROPERTY
U+W
SciTegic.value.DoubleValue
-49.865

@<SCITEGIC>MOL_PROPERTY
Grad RMS
SciTegic.value.DoubleValue
0.000000

@<SCITEGIC>MOL_PROPERTY
U
SciTegic.value.DoubleValue
10.902

@<SCITEGIC>MOL_PROPERTY
W
SciTegic.value.DoubleValue
-60.768

@<SCITEGIC>MOL_PROPERTY
W(PB)
SciTegic.value.DoubleValue
-63.223

@<SCITEGIC>MOL_PROPERTY
W(SA)
SciTegic.value.DoubleValue
2.456

@<SCITEGIC>MOL_PROPERTY
Valence
SciTegic.value.DoubleValue
9.445

@<SCITEGIC>MOL_PROPERTY
Coulomb
SciTegic.value.DoubleValue
0.778

@<SCITEGIC>MOL_PROPERTY
VdW
SciTegic.value.DoubleValue
0.679

@<SCITEGIC>MOL_PROPERTY
VdW6
SciTegic.value.DoubleValue
-10.007

@<SCITEGIC>MOL_PROPERTY
VdW12
SciTegic.value.DoubleValue
10.687

@<SCITEGIC>MOL_PROPERTY
Bond
SciTegic.value.DoubleValue
0.201

@<SCITEGIC>MOL_PROPERTY
Angle
SciTegic.value.DoubleValue
3.198

@<SCITEGIC>MOL_PROPERTY
Pdih
SciTegic.value.DoubleValue
6.040

@<SCITEGIC>MOL_PROPERTY
Idih
SciTegic.value.DoubleValue
0.006

@<SCITEGIC>MOL_PROPERTY
Tether
SciTegic.value.DoubleValue
0.000

@<TRIPOS>MOLECULE
guest-8_confgen4.mol2 : confsearch ligand conformer 616
          25          24           1
SMALL
USER_CHARGES
 
@<TRIPOS>ATOM
       1    C1      22.404364   21.709987   22.247702 C.2        1 MOL1         0.6168
       2    O1      21.859694   22.574128   22.905881 O.co2      1 MOL1        -0.6703
       3    O2      23.515972   21.827110   21.770777 O.co2      1 MOL1        -0.6703
       4    C2      21.660561   20.398186   22.024874 C.3        1 MOL1        -0.1963
       5    H1      21.945423   20.011476   21.039194 H          1 MOL1         0.0750
       6    H2      20.590569   20.623438   21.981975 H          1 MOL1         0.0750
       7    C3      21.967041   19.341860   23.119358 C.3        1 MOL1        -0.1860
       8    H3      23.049227   19.151491   23.111009 H          1 MOL1         0.0752
       9    H4      21.736364   19.749130   24.113508 H          1 MOL1         0.0752
      10    C4      21.226209   17.997368   22.905350 C.3        1 MOL1        -0.1858
      11    H5      21.887685   17.186395   23.239548 H          1 MOL1         0.0752
      12    H6      21.056640   17.821498   21.834297 H          1 MOL1         0.0752
      13    C5      19.894339   17.861841   23.685425 C.3        1 MOL1        -0.1858
      14    H7      19.503703   16.847499   23.527108 H          1 MOL1         0.0752
      15    H8      20.098569   17.950223   24.760554 H          1 MOL1         0.0752
      16    C6      18.810544   18.886494   23.274758 C.3        1 MOL1        -0.1858
      17    H9      18.723770   18.898712   22.179898 H          1 MOL1         0.0752
      18    H10     19.117821   19.894814   23.581548 H          1 MOL1         0.0752
      19    C7      17.419318   18.579552   23.876264 C.3        1 MOL1        -0.1834
      20    H11     16.690823   19.289398   23.460841 H          1 MOL1         0.0752
      21    H12     17.091424   17.579082   23.561975 H          1 MOL1         0.0752
      22    C8      17.386767   18.676419   25.417006 C.3        1 MOL1        -0.2849
      23    H13     17.735003   19.660795   25.755943 H          1 MOL1         0.0764
      24    H14     16.364309   18.532624   25.789502 H          1 MOL1         0.0764
      25    H15     18.020215   17.909088   25.879411 H          1 MOL1         0.0764
@<TRIPOS>BOND
    1     1     2    1
    2     1     3    2
    3     1     4    1
    4     4     5    1
    5     4     6    1
    6     4     7    1
    7     7     8    1
    8     7     9    1
    9     7    10    1
   10    10    11    1
   11    10    12    1
   12    10    13    1
   13    13    14    1
   14    13    15    1
   15    13    16    1
   16    16    17    1
   17    16    18    1
   18    16    19    1
   19    19    20    1
   20    19    21    1
   21    19    22    1
   22    22    23    1
   23    22    24    1
   24    22    25    1
@<TRIPOS>SUBSTRUCTURE
       1 MOL1            1 RESIDUE      1      MOL     
@<SCITEGIC>MOL_PROPERTY
VConf Rank
SciTegic.value.IntegerValue
616

@<SCITEGIC>MOL_PROPERTY
Conf_Id
SciTegic.value.IntegerValue
89

@<SCITEGIC>MOL_PROPERTY
Delta U+W
SciTegic.value.DoubleValue
2.903

@<SCITEGIC>MOL_PROPERTY
U+W
SciTegic.value.DoubleValue
-48.726

@<SCITEGIC>MOL_PROPERTY
Grad RMS
SciTegic.value.DoubleValue
0.000000

@<SCITEGIC>MOL_PROPERTY
U
SciTegic.value.DoubleValue
10.996

@<SCITEGIC>MOL_PROPERTY
W
SciTegic.value.DoubleValue
-59.723

@<SCITEGIC>MOL_PROPERTY
W(PB)
SciTegic.value.DoubleValue
-62.151

@<SCITEGIC>MOL_PROPERTY
W(SA)
SciTegic.value.DoubleValue
2.428

@<SCITEGIC>MOL_PROPERTY
Valence
SciTegic.value.DoubleValue
10.985

@<SCITEGIC>MOL_PROPERTY
Coulomb
SciTegic.value.DoubleValue
-0.995

@<SCITEGIC>MOL_PROPERTY
VdW
SciTegic.value.DoubleValue
1.006

@<SCITEGIC>MOL_PROPERTY
VdW6
SciTegic.value.DoubleValue
-10.062

@<SCITEGIC>MOL_PROPERTY
VdW12
SciTegic.value.DoubleValue
11.069

@<SCITEGIC>MOL_PROPERTY
Bond
SciTegic.value.DoubleValue
0.238

@<SCITEGIC>MOL_PROPERTY
Angle
SciTegic.value.DoubleValue
3.202

@<SCITEGIC>MOL_PROPERTY
Pdih
SciTegic.value.DoubleValue
7.544

@<SCITEGIC>MOL_PROPERTY
Idih
SciTegic.value.DoubleValue
0.001

@<SCITEGIC>MOL_PROPERTY
Tether
SciTegic.value.DoubleValue
0.000

@<TRIPOS>MOLECULE
guest-8_confgen4.mol2 : confsearch ligand conformer 617
          25          24           1
SMALL
USER_CHARGES
 
@<TRIPOS>ATOM
       1    C1      18.012272   21.498892   22.202474 C.2        1 MOL1         0.6168
       2    O1      18.640189   21.771039   21.198025 O.co2      1 MOL1        -0.6703
       3    O2      16.898749   21.011664   22.185639 O.co2      1 MOL1        -0.6703
       4    C2      18.630811   21.848088   23.554775 C.3        1 MOL1        -0.1963
       5    H1      17.982318   22.610597   24.001445 H          1 MOL1         0.0750
       6    H2      19.605413   22.323092   23.389570 H          1 MOL1         0.0750
       7    C3      18.771353   20.659674   24.547498 C.3        1 MOL1        -0.1860
       8    H3      18.848847   21.074369   25.561632 H          1 MOL1         0.0752
       9    H4      17.855015   20.053184   24.539169 H          1 MOL1         0.0752
      10    C4      20.008199   19.756696   24.313453 C.3        1 MOL1        -0.1858
      11    H5      20.086484   19.072884   25.167732 H          1 MOL1         0.0752
      12    H6      20.919918   20.369249   24.323467 H          1 MOL1         0.0752
      13    C5      19.948797   18.934057   23.003445 C.3        1 MOL1        -0.1858
      14    H7      19.009342   18.366266   22.960926 H          1 MOL1         0.0752
      15    H8      19.938238   19.619009   22.146960 H          1 MOL1         0.0752
      16    C6      21.147570   17.971936   22.822781 C.3        1 MOL1        -0.1858
      17    H9      22.087266   18.535970   22.898046 H          1 MOL1         0.0752
      18    H10     21.112125   17.563585   21.803519 H          1 MOL1         0.0752
      19    C7      21.159116   16.798436   23.828865 C.3        1 MOL1        -0.1834
      20    H11     21.277488   17.176199   24.852591 H          1 MOL1         0.0752
      21    H12     20.197044   16.269087   23.791522 H          1 MOL1         0.0752
      22    C8      22.300780   15.806667   23.527050 C.3        1 MOL1        -0.2849
      23    H13     23.277883   16.304052   23.584021 H          1 MOL1         0.0764
      24    H14     22.297751   14.981470   24.250991 H          1 MOL1         0.0764
      25    H15     22.192931   15.376428   22.522756 H          1 MOL1         0.0764
@<TRIPOS>BOND
    1     1     2    1
    2     1     3    2
    3     1     4    1
    4     4     5    1
    5     4     6    1
    6     4     7    1
    7     7     8    1
    8     7     9    1
    9     7    10    1
   10    10    11    1
   11    10    12    1
   12    10    13    1
   13    13    14    1
   14    13    15    1
   15    13    16    1
   16    16    17    1
   17    16    18    1
   18    16    19    1
   19    19    20    1
   20    19    21    1
   21    19    22    1
   22    22    23    1
   23    22    24    1
   24    22    25    1
@<TRIPOS>SUBSTRUCTURE
       1 MOL1            1 RESIDUE      1      MOL     
@<SCITEGIC>MOL_PROPERTY
VConf Rank
SciTegic.value.IntegerValue
617

@<SCITEGIC>MOL_PROPERTY
Conf_Id
SciTegic.value.IntegerValue
114

@<SCITEGIC>MOL_PROPERTY
Delta U+W
SciTegic.value.DoubleValue
2.758

@<SCITEGIC>MOL_PROPERTY
U+W
SciTegic.value.DoubleValue
-48.871

@<SCITEGIC>MOL_PROPERTY
Grad RMS
SciTegic.value.DoubleValue
0.000000

@<SCITEGIC>MOL_PROPERTY
U
SciTegic.value.DoubleValue
11.422

@<SCITEGIC>MOL_PROPERTY
W
SciTegic.value.DoubleValue
-60.293

@<SCITEGIC>MOL_PROPERTY
W(PB)
SciTegic.value.DoubleValue
-62.719

@<SCITEGIC>MOL_PROPERTY
W(SA)
SciTegic.value.DoubleValue
2.425

@<SCITEGIC>MOL_PROPERTY
Valence
SciTegic.value.DoubleValue
10.135

@<SCITEGIC>MOL_PROPERTY
Coulomb
SciTegic.value.DoubleValue
0.369

@<SCITEGIC>MOL_PROPERTY
VdW
SciTegic.value.DoubleValue
0.918

@<SCITEGIC>MOL_PROPERTY
VdW6
SciTegic.value.DoubleValue
-10.482

@<SCITEGIC>MOL_PROPERTY
VdW12
SciTegic.value.DoubleValue
11.400

@<SCITEGIC>MOL_PROPERTY
Bond
SciTegic.value.DoubleValue
0.245

@<SCITEGIC>MOL_PROPERTY
Angle
SciTegic.value.DoubleValue
3.539

@<SCITEGIC>MOL_PROPERTY
Pdih
SciTegic.value.DoubleValue
6.346

@<SCITEGIC>MOL_PROPERTY
Idih
SciTegic.value.DoubleValue
0.006

@<SCITEGIC>MOL_PROPERTY
Tether
SciTegic.value.DoubleValue
0.000

@<TRIPOS>MOLECULE
guest-8_confgen4.mol2 : confsearch ligand conformer 618
          25          24           1
SMALL
USER_CHARGES
 
@<TRIPOS>ATOM
       1    C1      17.398234   21.554314   24.189149 C.2        1 MOL1         0.6168
       2    O1      16.415233   21.125829   23.617160 O.co2      1 MOL1        -0.6703
       3    O2      17.471142   21.685282   25.395229 O.co2      1 MOL1        -0.6703
       4    C2      18.600832   21.970787   23.346974 C.3        1 MOL1        -0.1963
       5    H1      18.946822   22.939908   23.725222 H          1 MOL1         0.0750
       6    H2      18.266060   22.133925   22.315427 H          1 MOL1         0.0750
       7    C3      19.772018   20.954713   23.376895 C.3        1 MOL1        -0.1860
       8    H3      20.635475   21.390351   22.856402 H          1 MOL1         0.0752
       9    H4      20.076490   20.795166   24.419568 H          1 MOL1         0.0752
      10    C4      19.402361   19.606212   22.713454 C.3        1 MOL1        -0.1858
      11    H5      19.012330   19.801287   21.705156 H          1 MOL1         0.0752
      12    H6      18.587243   19.125746   23.272055 H          1 MOL1         0.0752
      13    C5      20.594406   18.626435   22.596199 C.3        1 MOL1        -0.1858
      14    H7      20.271615   17.771754   21.988324 H          1 MOL1         0.0752
      15    H8      21.414187   19.107994   22.046123 H          1 MOL1         0.0752
      16    C6      21.110749   18.117424   23.964716 C.3        1 MOL1        -0.1858
      17    H9      20.289651   17.639169   24.515853 H          1 MOL1         0.0752
      18    H10     21.438085   18.970680   24.572062 H          1 MOL1         0.0752
      19    C7      22.297202   17.132193   23.846026 C.3        1 MOL1        -0.1834
      20    H11     23.116177   17.603267   23.285082 H          1 MOL1         0.0752
      21    H12     22.687661   16.929819   24.852915 H          1 MOL1         0.0752
      22    C8      21.917328   15.789751   23.183868 C.3        1 MOL1        -0.2849
      23    H13     22.766460   15.094699   23.211813 H          1 MOL1         0.0764
      24    H14     21.076626   15.316991   23.708111 H          1 MOL1         0.0764
      25    H15     21.635428   15.925822   22.132477 H          1 MOL1         0.0764
@<TRIPOS>BOND
    1     1     2    1
    2     1     3    2
    3     1     4    1
    4     4     5    1
    5     4     6    1
    6     4     7    1
    7     7     8    1
    8     7     9    1
    9     7    10    1
   10    10    11    1
   11    10    12    1
   12    10    13    1
   13    13    14    1
   14    13    15    1
   15    13    16    1
   16    16    17    1
   17    16    18    1
   18    16    19    1
   19    19    20    1
   20    19    21    1
   21    19    22    1
   22    22    23    1
   23    22    24    1
   24    22    25    1
@<TRIPOS>SUBSTRUCTURE
       1 MOL1            1 RESIDUE      1      MOL     
@<SCITEGIC>MOL_PROPERTY
VConf Rank
SciTegic.value.IntegerValue
618

@<SCITEGIC>MOL_PROPERTY
Conf_Id
SciTegic.value.IntegerValue
87

@<SCITEGIC>MOL_PROPERTY
Delta U+W
SciTegic.value.DoubleValue
1.453

@<SCITEGIC>MOL_PROPERTY
U+W
SciTegic.value.DoubleValue
-50.176

@<SCITEGIC>MOL_PROPERTY
Grad RMS
SciTegic.value.DoubleValue
0.000000

@<SCITEGIC>MOL_PROPERTY
U
SciTegic.value.DoubleValue
9.763

@<SCITEGIC>MOL_PROPERTY
W
SciTegic.value.DoubleValue
-59.940

@<SCITEGIC>MOL_PROPERTY
W(PB)
SciTegic.value.DoubleValue
-62.392

@<SCITEGIC>MOL_PROPERTY
W(SA)
SciTegic.value.DoubleValue
2.452

@<SCITEGIC>MOL_PROPERTY
Valence
SciTegic.value.DoubleValue
8.883

@<SCITEGIC>MOL_PROPERTY
Coulomb
SciTegic.value.DoubleValue
-0.122

@<SCITEGIC>MOL_PROPERTY
VdW
SciTegic.value.DoubleValue
1.003

@<SCITEGIC>MOL_PROPERTY
VdW6
SciTegic.value.DoubleValue
-9.782

@<SCITEGIC>MOL_PROPERTY
VdW12
SciTegic.value.DoubleValue
10.785

@<SCITEGIC>MOL_PROPERTY
Bond
SciTegic.value.DoubleValue
0.212

@<SCITEGIC>MOL_PROPERTY
Angle
SciTegic.value.DoubleValue
2.940

@<SCITEGIC>MOL_PROPERTY
Pdih
SciTegic.value.DoubleValue
5.730

@<SCITEGIC>MOL_PROPERTY
Idih
SciTegic.value.DoubleValue
0.001

@<SCITEGIC>MOL_PROPERTY
Tether
SciTegic.value.DoubleValue
0.000

@<TRIPOS>MOLECULE
guest-8_confgen4.mol2 : confsearch ligand conformer 619
          25          24           1
SMALL
USER_CHARGES
 
@<TRIPOS>ATOM
       1    C1      18.853909   16.037304   25.537034 C.2        1 MOL1         0.6168
       2    O1      19.139590   15.091708   24.829277 O.co2      1 MOL1        -0.6703
       3    O2      18.867568   15.997646   26.751523 O.co2      1 MOL1        -0.6703
       4    C2      18.475050   17.351746   24.864075 C.3        1 MOL1        -0.1963
       5    H1      17.741642   17.861205   25.500507 H          1 MOL1         0.0750
       6    H2      17.975475   17.117737   23.916320 H          1 MOL1         0.0750
       7    C3      19.695036   18.271359   24.611301 C.3        1 MOL1        -0.1860
       8    H3      20.189911   18.490121   25.567536 H          1 MOL1         0.0752
       9    H4      20.422642   17.733029   23.989548 H          1 MOL1         0.0752
      10    C4      19.284119   19.593074   23.922213 C.3        1 MOL1        -0.1858
      11    H5      18.506003   20.082631   24.523454 H          1 MOL1         0.0752
      12    H6      18.825563   19.377521   22.948216 H          1 MOL1         0.0752
      13    C5      20.459453   20.586521   23.743354 C.3        1 MOL1        -0.1858
      14    H7      20.074173   21.516155   23.304356 H          1 MOL1         0.0752
      15    H8      20.843059   20.863293   24.734674 H          1 MOL1         0.0752
      16    C6      21.641573   20.066723   22.882992 C.3        1 MOL1        -0.1858
      17    H9      22.132609   19.234929   23.404786 H          1 MOL1         0.0752
      18    H10     22.398109   20.859937   22.812608 H          1 MOL1         0.0752
      19    C7      21.264760   19.609142   21.452341 C.3        1 MOL1        -0.1834
      20    H11     22.171070   19.241246   20.952179 H          1 MOL1         0.0752
      21    H12     20.575413   18.755589   21.497955 H          1 MOL1         0.0752
      22    C8      20.645778   20.734279   20.595039 C.3        1 MOL1        -0.2849
      23    H13     21.312355   21.605220   20.549503 H          1 MOL1         0.0764
      24    H14     20.473819   20.385167   19.568745 H          1 MOL1         0.0764
      25    H15     19.680331   21.060089   21.002108 H          1 MOL1         0.0764
@<TRIPOS>BOND
    1     1     2    1
    2     1     3    2
    3     1     4    1
    4     4     5    1
    5     4     6    1
    6     4     7    1
    7     7     8    1
    8     7     9    1
    9     7    10    1
   10    10    11    1
   11    10    12    1
   12    10    13    1
   13    13    14    1
   14    13    15    1
   15    13    16    1
   16    16    17    1
   17    16    18    1
   18    16    19    1
   19    19    20    1
   20    19    21    1
   21    19    22    1
   22    22    23    1
   23    22    24    1
   24    22    25    1
@<TRIPOS>SUBSTRUCTURE
       1 MOL1            1 RESIDUE      1      MOL     
@<SCITEGIC>MOL_PROPERTY
VConf Rank
SciTegic.value.IntegerValue
619

@<SCITEGIC>MOL_PROPERTY
Conf_Id
SciTegic.value.IntegerValue
29

@<SCITEGIC>MOL_PROPERTY
Delta U+W
SciTegic.value.DoubleValue
0.850

@<SCITEGIC>MOL_PROPERTY
U+W
SciTegic.value.DoubleValue
-50.780

@<SCITEGIC>MOL_PROPERTY
Grad RMS
SciTegic.value.DoubleValue
0.000000

@<SCITEGIC>MOL_PROPERTY
U
SciTegic.value.DoubleValue
8.646

@<SCITEGIC>MOL_PROPERTY
W
SciTegic.value.DoubleValue
-59.426

@<SCITEGIC>MOL_PROPERTY
W(PB)
SciTegic.value.DoubleValue
-61.868

@<SCITEGIC>MOL_PROPERTY
W(SA)
SciTegic.value.DoubleValue
2.442

@<SCITEGIC>MOL_PROPERTY
Valence
SciTegic.value.DoubleValue
8.924

@<SCITEGIC>MOL_PROPERTY
Coulomb
SciTegic.value.DoubleValue
-1.171

@<SCITEGIC>MOL_PROPERTY
VdW
SciTegic.value.DoubleValue
0.894

@<SCITEGIC>MOL_PROPERTY
VdW6
SciTegic.value.DoubleValue
-10.223

@<SCITEGIC>MOL_PROPERTY
VdW12
SciTegic.value.DoubleValue
11.117

@<SCITEGIC>MOL_PROPERTY
Bond
SciTegic.value.DoubleValue
0.231

@<SCITEGIC>MOL_PROPERTY
Angle
SciTegic.value.DoubleValue
3.232

@<SCITEGIC>MOL_PROPERTY
Pdih
SciTegic.value.DoubleValue
5.461

@<SCITEGIC>MOL_PROPERTY
Idih
SciTegic.value.DoubleValue
0.001

@<SCITEGIC>MOL_PROPERTY
Tether
SciTegic.value.DoubleValue
0.000

@<TRIPOS>MOLECULE
guest-8_confgen4.mol2 : confsearch ligand conformer 620
          25          24           1
SMALL
USER_CHARGES
 
@<TRIPOS>ATOM
       1    C1      18.606017   21.104168   20.167508 C.2        1 MOL1         0.6168
       2    O1      18.777466   22.264600   20.484821 O.co2      1 MOL1        -0.6703
       3    O2      17.690133   20.726946   19.463519 O.co2      1 MOL1        -0.6703
       4    C2      19.583267   20.060952   20.697467 C.3        1 MOL1        -0.1963
       5    H1      20.567517   20.534572   20.794983 H          1 MOL1         0.0750
       6    H2      19.677238   19.268953   19.944878 H          1 MOL1         0.0750
       7    C3      19.143492   19.459951   22.055168 C.3        1 MOL1        -0.1860
       8    H3      19.037142   20.272988   22.785542 H          1 MOL1         0.0752
       9    H4      18.153364   18.996818   21.944279 H          1 MOL1         0.0752
      10    C4      20.154904   18.411296   22.572858 C.3        1 MOL1        -0.1858
      11    H5      21.135229   18.882529   22.722223 H          1 MOL1         0.0752
      12    H6      20.300505   17.643677   21.800729 H          1 MOL1         0.0752
      13    C5      19.702493   17.710275   23.878320 C.3        1 MOL1        -0.1858
      14    H7      18.768851   17.165792   23.682554 H          1 MOL1         0.0752
      15    H8      20.442504   16.943998   24.143995 H          1 MOL1         0.0752
      16    C6      19.481571   18.650162   25.093074 C.3        1 MOL1        -0.1858
      17    H9      19.184734   18.040678   25.957312 H          1 MOL1         0.0752
      18    H10     18.628990   19.311484   24.890529 H          1 MOL1         0.0752
      19    C7      20.704017   19.514411   25.489097 C.3        1 MOL1        -0.1834
      20    H11     20.964914   20.197676   24.670002 H          1 MOL1         0.0752
      21    H12     20.421963   20.151857   26.338221 H          1 MOL1         0.0752
      22    C8      21.940220   18.678025   25.884442 C.3        1 MOL1        -0.2849
      23    H13     22.321996   18.103444   25.031185 H          1 MOL1         0.0764
      24    H14     22.749760   19.330868   26.235396 H          1 MOL1         0.0764
      25    H15     21.697134   17.975530   26.692120 H          1 MOL1         0.0764
@<TRIPOS>BOND
    1     1     2    1
    2     1     3    2
    3     1     4    1
    4     4     5    1
    5     4     6    1
    6     4     7    1
    7     7     8    1
    8     7     9    1
    9     7    10    1
   10    10    11    1
   11    10    12    1
   12    10    13    1
   13    13    14    1
   14    13    15    1
   15    13    16    1
   16    16    17    1
   17    16    18    1
   18    16    19    1
   19    19    20    1
   20    19    21    1
   21    19    22    1
   22    22    23    1
   23    22    24    1
   24    22    25    1
@<TRIPOS>SUBSTRUCTURE
       1 MOL1            1 RESIDUE      1      MOL     
@<SCITEGIC>MOL_PROPERTY
VConf Rank
SciTegic.value.IntegerValue
620

@<SCITEGIC>MOL_PROPERTY
Conf_Id
SciTegic.value.IntegerValue
30

@<SCITEGIC>MOL_PROPERTY
Delta U+W
SciTegic.value.DoubleValue
0.843

@<SCITEGIC>MOL_PROPERTY
U+W
SciTegic.value.DoubleValue
-50.787

@<SCITEGIC>MOL_PROPERTY
Grad RMS
SciTegic.value.DoubleValue
0.000000

@<SCITEGIC>MOL_PROPERTY
U
SciTegic.value.DoubleValue
8.647

@<SCITEGIC>MOL_PROPERTY
W
SciTegic.value.DoubleValue
-59.434

@<SCITEGIC>MOL_PROPERTY
W(PB)
SciTegic.value.DoubleValue
-61.861

@<SCITEGIC>MOL_PROPERTY
W(SA)
SciTegic.value.DoubleValue
2.428

@<SCITEGIC>MOL_PROPERTY
Valence
SciTegic.value.DoubleValue
8.924

@<SCITEGIC>MOL_PROPERTY
Coulomb
SciTegic.value.DoubleValue
-1.170

@<SCITEGIC>MOL_PROPERTY
VdW
SciTegic.value.DoubleValue
0.894

@<SCITEGIC>MOL_PROPERTY
VdW6
SciTegic.value.DoubleValue
-10.224

@<SCITEGIC>MOL_PROPERTY
VdW12
SciTegic.value.DoubleValue
11.118

@<SCITEGIC>MOL_PROPERTY
Bond
SciTegic.value.DoubleValue
0.231

@<SCITEGIC>MOL_PROPERTY
Angle
SciTegic.value.DoubleValue
3.232

@<SCITEGIC>MOL_PROPERTY
Pdih
SciTegic.value.DoubleValue
5.460

@<SCITEGIC>MOL_PROPERTY
Idih
SciTegic.value.DoubleValue
0.000

@<SCITEGIC>MOL_PROPERTY
Tether
SciTegic.value.DoubleValue
0.000

@<TRIPOS>MOLECULE
guest-8_confgen4.mol2 : confsearch ligand conformer 621
          25          24           1
SMALL
USER_CHARGES
 
@<TRIPOS>ATOM
       1    C1      24.306554   18.800816   21.114328 C.2        1 MOL1         0.6168
       2    O1      23.999239   19.490005   20.160819 O.co2      1 MOL1        -0.6703
       3    O2      25.408419   18.306898   21.248709 O.co2      1 MOL1        -0.6703
       4    C2      23.279007   18.524226   22.212982 C.3        1 MOL1        -0.1963
       5    H1      23.709479   18.873900   23.158672 H          1 MOL1         0.0750
       6    H2      23.170411   17.436208   22.292558 H          1 MOL1         0.0750
       7    C3      21.887243   19.176047   21.997253 C.3        1 MOL1        -0.1860
       8    H3      22.004194   20.265339   21.911983 H          1 MOL1         0.0752
       9    H4      21.464602   18.826311   21.045116 H          1 MOL1         0.0752
      10    C4      20.913837   18.846677   23.149920 C.3        1 MOL1        -0.1858
      11    H5      21.338443   19.197161   24.100714 H          1 MOL1         0.0752
      12    H6      20.798497   17.757236   23.233289 H          1 MOL1         0.0752
      13    C5      19.530059   19.496074   22.933287 C.3        1 MOL1        -0.1858
      14    H7      19.645085   20.585533   22.849913 H          1 MOL1         0.0752
      15    H8      19.105181   19.145738   21.982578 H          1 MOL1         0.0752
      16    C6      18.556294   19.167151   24.085461 C.3        1 MOL1        -0.1858
      17    H9      18.980956   19.517452   25.036273 H          1 MOL1         0.0752
      18    H10     18.441037   18.077729   24.168948 H          1 MOL1         0.0752
      19    C7      17.173107   19.816243   23.869051 C.3        1 MOL1        -0.1834
      20    H11     17.284209   20.906382   23.786941 H          1 MOL1         0.0752
      21    H12     16.744287   19.466670   22.919630 H          1 MOL1         0.0752
      22    C8      16.203682   19.485470   25.021617 C.3        1 MOL1        -0.2849
      23    H13     16.593404   19.852308   25.980233 H          1 MOL1         0.0764
      24    H14     15.225921   19.954650   24.851497 H          1 MOL1         0.0764
      25    H15     16.049401   18.401768   25.106383 H          1 MOL1         0.0764
@<TRIPOS>BOND
    1     1     2    1
    2     1     3    2
    3     1     4    1
    4     4     5    1
    5     4     6    1
    6     4     7    1
    7     7     8    1
    8     7     9    1
    9     7    10    1
   10    10    11    1
   11    10    12    1
   12    10    13    1
   13    13    14    1
   14    13    15    1
   15    13    16    1
   16    16    17    1
   17    16    18    1
   18    16    19    1
   19    19    20    1
   20    19    21    1
   21    19    22    1
   22    22    23    1
   23    22    24    1
   24    22    25    1
@<TRIPOS>SUBSTRUCTURE
       1 MOL1            1 RESIDUE      1      MOL     
@<SCITEGIC>MOL_PROPERTY
VConf Rank
SciTegic.value.IntegerValue
621

@<SCITEGIC>MOL_PROPERTY
Conf_Id
SciTegic.value.IntegerValue
0

@<SCITEGIC>MOL_PROPERTY
Delta U+W
SciTegic.value.DoubleValue
0.000

@<SCITEGIC>MOL_PROPERTY
U+W
SciTegic.value.DoubleValue
-51.629

@<SCITEGIC>MOL_PROPERTY
Grad RMS
SciTegic.value.DoubleValue
0.000000

@<SCITEGIC>MOL_PROPERTY
U
SciTegic.value.DoubleValue
6.586

@<SCITEGIC>MOL_PROPERTY
W
SciTegic.value.DoubleValue
-58.216

@<SCITEGIC>MOL_PROPERTY
W(PB)
SciTegic.value.DoubleValue
-60.757

@<SCITEGIC>MOL_PROPERTY
W(SA)
SciTegic.value.DoubleValue
2.541

@<SCITEGIC>MOL_PROPERTY
Valence
SciTegic.value.DoubleValue
8.027

@<SCITEGIC>MOL_PROPERTY
Coulomb
SciTegic.value.DoubleValue
-2.892

@<SCITEGIC>MOL_PROPERTY
VdW
SciTegic.value.DoubleValue
1.451

@<SCITEGIC>MOL_PROPERTY
VdW6
SciTegic.value.DoubleValue
-7.931

@<SCITEGIC>MOL_PROPERTY
VdW12
SciTegic.value.DoubleValue
9.383

@<SCITEGIC>MOL_PROPERTY
Bond
SciTegic.value.DoubleValue
0.149

@<SCITEGIC>MOL_PROPERTY
Angle
SciTegic.value.DoubleValue
2.726

@<SCITEGIC>MOL_PROPERTY
Pdih
SciTegic.value.DoubleValue
5.152

@<SCITEGIC>MOL_PROPERTY
Idih
SciTegic.value.DoubleValue
0.000

@<SCITEGIC>MOL_PROPERTY
Tether
SciTegic.value.DoubleValue
0.000

@<TRIPOS>MOLECULE
guest-8_confgen4.mol2 : confsearch ligand conformer 622
          25          24           1
SMALL
USER_CHARGES
 
@<TRIPOS>ATOM
       1    C1      21.517575   22.822337   20.612007 C.2        1 MOL1         0.6168
       2    O1      20.740247   23.156712   19.739897 O.co2      1 MOL1        -0.6703
       3    O2      22.234139   23.600491   21.210032 O.co2      1 MOL1        -0.6703
       4    C2      21.580710   21.347574   20.993016 C.3        1 MOL1        -0.1963
       5    H1      22.606997   21.120117   21.305433 H          1 MOL1         0.0750
       6    H2      21.376480   20.754371   20.093568 H          1 MOL1         0.0750
       7    C3      20.584066   20.973897   22.117778 C.3        1 MOL1        -0.1860
       8    H3      20.793536   21.585701   23.006266 H          1 MOL1         0.0752
       9    H4      19.563064   21.220116   21.794477 H          1 MOL1         0.0752
      10    C4      20.666967   19.476547   22.485330 C.3        1 MOL1        -0.1858
      11    H5      21.689027   19.233446   22.807007 H          1 MOL1         0.0752
      12    H6      20.458436   18.867755   21.594787 H          1 MOL1         0.0752
      13    C5      19.672202   19.106977   23.606636 C.3        1 MOL1        -0.1858
      14    H7      19.880583   19.715585   24.497297 H          1 MOL1         0.0752
      15    H8      18.650093   19.349980   23.285159 H          1 MOL1         0.0752
      16    C6      19.754493   17.609762   23.974677 C.3        1 MOL1        -0.1858
      17    H9      20.776477   17.366452   24.296303 H          1 MOL1         0.0752
      18    H10     19.546141   17.000876   23.084203 H          1 MOL1         0.0752
      19    C7      18.760173   17.240154   25.095426 C.3        1 MOL1        -0.1834
      20    H11     18.966745   17.846002   25.988603 H          1 MOL1         0.0752
      21    H12     17.736424   17.480399   24.776506 H          1 MOL1         0.0752
      22    C8      18.845433   15.744369   25.460062 C.3        1 MOL1        -0.2849
      23    H13     18.132279   15.499344   26.257848 H          1 MOL1         0.0764
      24    H14     18.612078   15.114422   24.591667 H          1 MOL1         0.0764
      25    H15     19.851657   15.482785   25.812885 H          1 MOL1         0.0764
@<TRIPOS>BOND
    1     1     2    1
    2     1     3    2
    3     1     4    1
    4     4     5    1
    5     4     6    1
    6     4     7    1
    7     7     8    1
    8     7     9    1
    9     7    10    1
   10    10    11    1
   11    10    12    1
   12    10    13    1
   13    13    14    1
   14    13    15    1
   15    13    16    1
   16    16    17    1
   17    16    18    1
   18    16    19    1
   19    19    20    1
   20    19    21    1
   21    19    22    1
   22    22    23    1
   23    22    24    1
   24    22    25    1
@<TRIPOS>SUBSTRUCTURE
       1 MOL1            1 RESIDUE      1      MOL     
@<SCITEGIC>MOL_PROPERTY
VConf Rank
SciTegic.value.IntegerValue
622

@<SCITEGIC>MOL_PROPERTY
Conf_Id
SciTegic.value.IntegerValue
27

@<SCITEGIC>MOL_PROPERTY
Delta U+W
SciTegic.value.DoubleValue
-1.297

@<SCITEGIC>MOL_PROPERTY
U+W
SciTegic.value.DoubleValue
-52.926

@<SCITEGIC>MOL_PROPERTY
Grad RMS
SciTegic.value.DoubleValue
0.000000

@<SCITEGIC>MOL_PROPERTY
U
SciTegic.value.DoubleValue
5.617

@<SCITEGIC>MOL_PROPERTY
W
SciTegic.value.DoubleValue
-58.543

@<SCITEGIC>MOL_PROPERTY
W(PB)
SciTegic.value.DoubleValue
-61.065

@<SCITEGIC>MOL_PROPERTY
W(SA)
SciTegic.value.DoubleValue
2.522

@<SCITEGIC>MOL_PROPERTY
Valence
SciTegic.value.DoubleValue
7.531

@<SCITEGIC>MOL_PROPERTY
Coulomb
SciTegic.value.DoubleValue
-2.818

@<SCITEGIC>MOL_PROPERTY
VdW
SciTegic.value.DoubleValue
0.904

@<SCITEGIC>MOL_PROPERTY
VdW6
SciTegic.value.DoubleValue
-7.640

@<SCITEGIC>MOL_PROPERTY
VdW12
SciTegic.value.DoubleValue
8.544

@<SCITEGIC>MOL_PROPERTY
Bond
SciTegic.value.DoubleValue
0.115

@<SCITEGIC>MOL_PROPERTY
Angle
SciTegic.value.DoubleValue
2.271

@<SCITEGIC>MOL_PROPERTY
Pdih
SciTegic.value.DoubleValue
5.144

@<SCITEGIC>MOL_PROPERTY
Idih
SciTegic.value.DoubleValue
0.001

@<SCITEGIC>MOL_PROPERTY
Tether
SciTegic.value.DoubleValue
0.000

@<TRIPOS>MOLECULE
guest-8_confgen4.mol2 : confsearch ligand conformer 623
          25          24           1
SMALL
USER_CHARGES
 
@<TRIPOS>ATOM
       1    C1      16.721679   21.043489   22.971747 C.2        1 MOL1         0.6168
       2    O1      16.739077   21.920481   22.130524 O.co2      1 MOL1        -0.6703
       3    O2      16.054350   20.032338   22.875775 O.co2      1 MOL1        -0.6703
       4    C2      17.572483   21.232346   24.224515 C.3        1 MOL1        -0.1963
       5    H1      17.196526   20.562444   25.007288 H          1 MOL1         0.0750
       6    H2      17.410922   22.257104   24.579132 H          1 MOL1         0.0750
       7    C3      19.088274   20.994996   23.998709 C.3        1 MOL1        -0.1860
       8    H3      19.443696   21.653019   23.193505 H          1 MOL1         0.0752
       9    H4      19.633563   21.284348   24.907269 H          1 MOL1         0.0752
      10    C4      19.414788   19.524226   23.655206 C.3        1 MOL1        -0.1858
      11    H5      18.886400   19.232377   22.737026 H          1 MOL1         0.0752
      12    H6      19.045605   18.869516   24.456507 H          1 MOL1         0.0752
      13    C5      20.931207   19.304286   23.466179 C.3        1 MOL1        -0.1858
      14    H7      21.299446   19.959370   22.664709 H          1 MOL1         0.0752
      15    H8      21.461393   19.592629   24.384220 H          1 MOL1         0.0752
      16    C6      21.258126   17.835074   23.122086 C.3        1 MOL1        -0.1858
      17    H9      20.727927   17.546549   22.204061 H          1 MOL1         0.0752
      18    H10     20.889650   17.179777   23.923268 H          1 MOL1         0.0752
      19    C7      22.773691   17.614842   22.932535 C.3        1 MOL1        -0.1834
      20    H11     23.145409   18.267524   22.130467 H          1 MOL1         0.0752
      21    H12     23.307146   17.900658   23.849712 H          1 MOL1         0.0752
      22    C8      23.095845   16.146596   22.588912 C.3        1 MOL1        -0.2849
      23    H13     22.599809   15.843193   21.657627 H          1 MOL1         0.0764
      24    H14     24.176907   16.008156   22.457685 H          1 MOL1         0.0764
      25    H15     22.762723   15.473534   23.389793 H          1 MOL1         0.0764
@<TRIPOS>BOND
    1     1     2    1
    2     1     3    2
    3     1     4    1
    4     4     5    1
    5     4     6    1
    6     4     7    1
    7     7     8    1
    8     7     9    1
    9     7    10    1
   10    10    11    1
   11    10    12    1
   12    10    13    1
   13    13    14    1
   14    13    15    1
   15    13    16    1
   16    16    17    1
   17    16    18    1
   18    16    19    1
   19    19    20    1
   20    19    21    1
   21    19    22    1
   22    22    23    1
   23    22    24    1
   24    22    25    1
@<TRIPOS>SUBSTRUCTURE
       1 MOL1            1 RESIDUE      1      MOL     
@<SCITEGIC>MOL_PROPERTY
VConf Rank
SciTegic.value.IntegerValue
623

@<SCITEGIC>MOL_PROPERTY
Conf_Id
SciTegic.value.IntegerValue
37

@<SCITEGIC>MOL_PROPERTY
Delta U+W
SciTegic.value.DoubleValue
-0.230

@<SCITEGIC>MOL_PROPERTY
U+W
SciTegic.value.DoubleValue
-51.860

@<SCITEGIC>MOL_PROPERTY
Grad RMS
SciTegic.value.DoubleValue
0.000000

@<SCITEGIC>MOL_PROPERTY
U
SciTegic.value.DoubleValue
7.816

@<SCITEGIC>MOL_PROPERTY
W
SciTegic.value.DoubleValue
-59.675

@<SCITEGIC>MOL_PROPERTY
W(PB)
SciTegic.value.DoubleValue
-62.180

@<SCITEGIC>MOL_PROPERTY
W(SA)
SciTegic.value.DoubleValue
2.505

@<SCITEGIC>MOL_PROPERTY
Valence
SciTegic.value.DoubleValue
7.785

@<SCITEGIC>MOL_PROPERTY
Coulomb
SciTegic.value.DoubleValue
-0.713

@<SCITEGIC>MOL_PROPERTY
VdW
SciTegic.value.DoubleValue
0.744

@<SCITEGIC>MOL_PROPERTY
VdW6
SciTegic.value.DoubleValue
-8.514

@<SCITEGIC>MOL_PROPERTY
VdW12
SciTegic.value.DoubleValue
9.259

@<SCITEGIC>MOL_PROPERTY
Bond
SciTegic.value.DoubleValue
0.136

@<SCITEGIC>MOL_PROPERTY
Angle
SciTegic.value.DoubleValue
2.433

@<SCITEGIC>MOL_PROPERTY
Pdih
SciTegic.value.DoubleValue
5.216

@<SCITEGIC>MOL_PROPERTY
Idih
SciTegic.value.DoubleValue
0.000

@<SCITEGIC>MOL_PROPERTY
Tether
SciTegic.value.DoubleValue
0.000

@<TRIPOS>MOLECULE
guest-8_confgen4.mol2 : confsearch ligand conformer 624
          25          24           1
SMALL
USER_CHARGES
 
@<TRIPOS>ATOM
       1    C1      20.738941   15.573005   24.560954 C.2        1 MOL1         0.6168
       2    O1      19.903268   14.767869   24.199732 O.co2      1 MOL1        -0.6703
       3    O2      20.918170   15.881273   25.722767 O.co2      1 MOL1        -0.6703
       4    C2      21.621639   16.219082   23.496813 C.3        1 MOL1        -0.1963
       5    H1      21.964595   15.421735   22.827036 H          1 MOL1         0.0750
       6    H2      22.513980   16.629957   23.984415 H          1 MOL1         0.0750
       7    C3      20.908351   17.319850   22.669483 C.3        1 MOL1        -0.1860
       8    H3      21.565999   17.629042   21.845803 H          1 MOL1         0.0752
       9    H4      20.002313   16.900376   22.210343 H          1 MOL1         0.0752
      10    C4      20.539924   18.556873   23.519073 C.3        1 MOL1        -0.1858
      11    H5      21.446816   18.964416   23.986492 H          1 MOL1         0.0752
      12    H6      19.867752   18.258454   24.335500 H          1 MOL1         0.0752
      13    C5      19.860062   19.652134   22.669472 C.3        1 MOL1        -0.1858
      14    H7      20.531600   19.954217   21.854109 H          1 MOL1         0.0752
      15    H8      18.953261   19.243698   22.202588 H          1 MOL1         0.0752
      16    C6      19.491002   20.888206   23.517869 C.3        1 MOL1        -0.1858
      17    H9      20.397633   21.296631   23.985084 H          1 MOL1         0.0752
      18    H10     18.819536   20.586253   24.333397 H          1 MOL1         0.0752
      19    C7      18.810865   21.982994   22.669213 C.3        1 MOL1        -0.1834
      20    H11     19.480506   22.288807   21.853409 H          1 MOL1         0.0752
      21    H12     17.902364   21.578439   22.201832 H          1 MOL1         0.0752
      22    C8      18.443951   23.215458   23.520101 C.3        1 MOL1        -0.2849
      23    H13     19.339221   23.659633   23.974628 H          1 MOL1         0.0764
      24    H14     17.961662   23.983234   22.901232 H          1 MOL1         0.0764
      25    H15     17.749246   22.943881   24.325725 H          1 MOL1         0.0764
@<TRIPOS>BOND
    1     1     2    1
    2     1     3    2
    3     1     4    1
    4     4     5    1
    5     4     6    1
    6     4     7    1
    7     7     8    1
    8     7     9    1
    9     7    10    1
   10    10    11    1
   11    10    12    1
   12    10    13    1
   13    13    14    1
   14    13    15    1
   15    13    16    1
   16    16    17    1
   17    16    18    1
   18    16    19    1
   19    19    20    1
   20    19    21    1
   21    19    22    1
   22    22    23    1
   23    22    24    1
   24    22    25    1
@<TRIPOS>SUBSTRUCTURE
       1 MOL1            1 RESIDUE      1      MOL     
@<SCITEGIC>MOL_PROPERTY
VConf Rank
SciTegic.value.IntegerValue
624

@<SCITEGIC>MOL_PROPERTY
Conf_Id
SciTegic.value.IntegerValue
54

@<SCITEGIC>MOL_PROPERTY
Delta U+W
SciTegic.value.DoubleValue
-0.224

@<SCITEGIC>MOL_PROPERTY
U+W
SciTegic.value.DoubleValue
-51.854

@<SCITEGIC>MOL_PROPERTY
Grad RMS
SciTegic.value.DoubleValue
0.000000

@<SCITEGIC>MOL_PROPERTY
U
SciTegic.value.DoubleValue
7.816

@<SCITEGIC>MOL_PROPERTY
W
SciTegic.value.DoubleValue
-59.670

@<SCITEGIC>MOL_PROPERTY
W(PB)
SciTegic.value.DoubleValue
-62.157

@<SCITEGIC>MOL_PROPERTY
W(SA)
SciTegic.value.DoubleValue
2.487

@<SCITEGIC>MOL_PROPERTY
Valence
SciTegic.value.DoubleValue
7.785

@<SCITEGIC>MOL_PROPERTY
Coulomb
SciTegic.value.DoubleValue
-0.713

@<SCITEGIC>MOL_PROPERTY
VdW
SciTegic.value.DoubleValue
0.744

@<SCITEGIC>MOL_PROPERTY
VdW6
SciTegic.value.DoubleValue
-8.515

@<SCITEGIC>MOL_PROPERTY
VdW12
SciTegic.value.DoubleValue
9.259

@<SCITEGIC>MOL_PROPERTY
Bond
SciTegic.value.DoubleValue
0.136

@<SCITEGIC>MOL_PROPERTY
Angle
SciTegic.value.DoubleValue
2.433

@<SCITEGIC>MOL_PROPERTY
Pdih
SciTegic.value.DoubleValue
5.215

@<SCITEGIC>MOL_PROPERTY
Idih
SciTegic.value.DoubleValue
0.000

@<SCITEGIC>MOL_PROPERTY
Tether
SciTegic.value.DoubleValue
0.000

@<TRIPOS>MOLECULE
guest-8_confgen4.mol2 : confsearch ligand conformer 625
          25          24           1
SMALL
USER_CHARGES
 
@<TRIPOS>ATOM
       1    C1      19.839088   22.378368   25.715074 C.2        1 MOL1         0.6168
       2    O1      18.677516   22.724917   25.627299 O.co2      1 MOL1        -0.6703
       3    O2      20.414632   22.216815   26.773261 O.co2      1 MOL1        -0.6703
       4    C2      20.625383   22.150980   24.426968 C.3        1 MOL1        -0.1963
       5    H1      21.592497   22.654558   24.541294 H          1 MOL1         0.0750
       6    H2      20.101968   22.651985   23.603645 H          1 MOL1         0.0750
       7    C3      20.857584   20.656460   24.083225 C.3        1 MOL1        -0.1860
       8    H3      21.556348   20.599635   23.239244 H          1 MOL1         0.0752
       9    H4      21.345029   20.159298   24.933299 H          1 MOL1         0.0752
      10    C4      19.544686   19.918478   23.725968 C.3        1 MOL1        -0.1858
      11    H5      19.081598   20.388408   22.847621 H          1 MOL1         0.0752
      12    H6      18.830069   20.036959   24.551960 H          1 MOL1         0.0752
      13    C5      19.735724   18.405182   23.464446 C.3        1 MOL1        -0.1858
      14    H7      20.216016   17.939277   24.335554 H          1 MOL1         0.0752
      15    H8      18.741438   17.949247   23.376762 H          1 MOL1         0.0752
      16    C6      20.555714   18.096682   22.187233 C.3        1 MOL1        -0.1858
      17    H9      21.553104   18.545328   22.275578 H          1 MOL1         0.0752
      18    H10     20.077713   18.567079   21.317257 H          1 MOL1         0.0752
      19    C7      20.735115   16.583222   21.923147 C.3        1 MOL1        -0.1834
      20    H11     21.436750   16.453324   21.087636 H          1 MOL1         0.0752
      21    H12     21.201732   16.106781   22.796401 H          1 MOL1         0.0752
      22    C8      19.415622   15.858878   21.577891 C.3        1 MOL1        -0.2849
      23    H13     18.724456   15.854994   22.429758 H          1 MOL1         0.0764
      24    H14     18.913677   16.340192   20.728480 H          1 MOL1         0.0764
      25    H15     19.611911   14.813688   21.305946 H          1 MOL1         0.0764
@<TRIPOS>BOND
    1     1     2    1
    2     1     3    2
    3     1     4    1
    4     4     5    1
    5     4     6    1
    6     4     7    1
    7     7     8    1
    8     7     9    1
    9     7    10    1
   10    10    11    1
   11    10    12    1
   12    10    13    1
   13    13    14    1
   14    13    15    1
   15    13    16    1
   16    16    17    1
   17    16    18    1
   18    16    19    1
   19    19    20    1
   20    19    21    1
   21    19    22    1
   22    22    23    1
   23    22    24    1
   24    22    25    1
@<TRIPOS>SUBSTRUCTURE
       1 MOL1            1 RESIDUE      1      MOL     
@<SCITEGIC>MOL_PROPERTY
VConf Rank
SciTegic.value.IntegerValue
625

@<SCITEGIC>MOL_PROPERTY
Conf_Id
SciTegic.value.IntegerValue
101

@<SCITEGIC>MOL_PROPERTY
Delta U+W
SciTegic.value.DoubleValue
1.534

@<SCITEGIC>MOL_PROPERTY
U+W
SciTegic.value.DoubleValue
-50.095

@<SCITEGIC>MOL_PROPERTY
Grad RMS
SciTegic.value.DoubleValue
0.000000

@<SCITEGIC>MOL_PROPERTY
U
SciTegic.value.DoubleValue
9.416

@<SCITEGIC>MOL_PROPERTY
W
SciTegic.value.DoubleValue
-59.512

@<SCITEGIC>MOL_PROPERTY
W(PB)
SciTegic.value.DoubleValue
-61.988

@<SCITEGIC>MOL_PROPERTY
W(SA)
SciTegic.value.DoubleValue
2.476

@<SCITEGIC>MOL_PROPERTY
Valence
SciTegic.value.DoubleValue
8.939

@<SCITEGIC>MOL_PROPERTY
Coulomb
SciTegic.value.DoubleValue
-0.615

@<SCITEGIC>MOL_PROPERTY
VdW
SciTegic.value.DoubleValue
1.092

@<SCITEGIC>MOL_PROPERTY
VdW6
SciTegic.value.DoubleValue
-9.710

@<SCITEGIC>MOL_PROPERTY
VdW12
SciTegic.value.DoubleValue
10.802

@<SCITEGIC>MOL_PROPERTY
Bond
SciTegic.value.DoubleValue
0.216

@<SCITEGIC>MOL_PROPERTY
Angle
SciTegic.value.DoubleValue
2.979

@<SCITEGIC>MOL_PROPERTY
Pdih
SciTegic.value.DoubleValue
5.743

@<SCITEGIC>MOL_PROPERTY
Idih
SciTegic.value.DoubleValue
0.000

@<SCITEGIC>MOL_PROPERTY
Tether
SciTegic.value.DoubleValue
0.000

@<TRIPOS>MOLECULE
guest-8_confgen4.mol2 : confsearch ligand conformer 626
          25          24           1
SMALL
USER_CHARGES
 
@<TRIPOS>ATOM
       1    C1      22.230911   16.724870   25.893037 C.2        1 MOL1         0.6168
       2    O1      23.389906   16.722967   25.527709 O.co2      1 MOL1        -0.6703
       3    O2      21.878435   16.419120   27.015113 O.co2      1 MOL1        -0.6703
       4    C2      21.162007   17.156369   24.895329 C.3        1 MOL1        -0.1963
       5    H1      20.240753   16.608240   25.125944 H          1 MOL1         0.0750
       6    H2      21.489535   16.838547   23.899299 H          1 MOL1         0.0750
       7    C3      20.897205   18.684306   24.924386 C.3        1 MOL1        -0.1860
       8    H3      20.667865   18.981095   25.957220 H          1 MOL1         0.0752
       9    H4      21.813590   19.221827   24.644009 H          1 MOL1         0.0752
      10    C4      19.729596   19.129905   24.011787 C.3        1 MOL1        -0.1858
      11    H5      19.531065   20.190924   24.210063 H          1 MOL1         0.0752
      12    H6      18.817021   18.584214   24.287460 H          1 MOL1         0.0752
      13    C5      20.019343   18.936782   22.502929 C.3        1 MOL1        -0.1858
      14    H7      20.930893   19.482748   22.227222 H          1 MOL1         0.0752
      15    H8      20.226574   17.878025   22.303415 H          1 MOL1         0.0752
      16    C6      18.845927   19.369498   21.587391 C.3        1 MOL1        -0.1858
      17    H9      17.967701   18.751825   21.819500 H          1 MOL1         0.0752
      18    H10     19.110649   19.139511   20.546383 H          1 MOL1         0.0752
      19    C7      18.443672   20.862533   21.679567 C.3        1 MOL1        -0.1834
      20    H11     17.605702   21.041053   20.991831 H          1 MOL1         0.0752
      21    H12     18.064073   21.092498   22.683740 H          1 MOL1         0.0752
      22    C8      19.592924   21.829879   21.322631 C.3        1 MOL1        -0.2849
      23    H13     20.004363   21.602335   20.330704 H          1 MOL1         0.0764
      24    H14     19.232768   22.866654   21.310386 H          1 MOL1         0.0764
      25    H15     20.406824   21.769398   22.056107 H          1 MOL1         0.0764
@<TRIPOS>BOND
    1     1     2    1
    2     1     3    2
    3     1     4    1
    4     4     5    1
    5     4     6    1
    6     4     7    1
    7     7     8    1
    8     7     9    1
    9     7    10    1
   10    10    11    1
   11    10    12    1
   12    10    13    1
   13    13    14    1
   14    13    15    1
   15    13    16    1
   16    16    17    1
   17    16    18    1
   18    16    19    1
   19    19    20    1
   20    19    21    1
   21    19    22    1
   22    22    23    1
   23    22    24    1
   24    22    25    1
@<TRIPOS>SUBSTRUCTURE
       1 MOL1            1 RESIDUE      1      MOL     
@<SCITEGIC>MOL_PROPERTY
VConf Rank
SciTegic.value.IntegerValue
626

@<SCITEGIC>MOL_PROPERTY
Conf_Id
SciTegic.value.IntegerValue
75

@<SCITEGIC>MOL_PROPERTY
Delta U+W
SciTegic.value.DoubleValue
1.014

@<SCITEGIC>MOL_PROPERTY
U+W
SciTegic.value.DoubleValue
-50.615

@<SCITEGIC>MOL_PROPERTY
Grad RMS
SciTegic.value.DoubleValue
0.000000

@<SCITEGIC>MOL_PROPERTY
U
SciTegic.value.DoubleValue
8.474

@<SCITEGIC>MOL_PROPERTY
W
SciTegic.value.DoubleValue
-59.089

@<SCITEGIC>MOL_PROPERTY
W(PB)
SciTegic.value.DoubleValue
-61.530

@<SCITEGIC>MOL_PROPERTY
W(SA)
SciTegic.value.DoubleValue
2.441

@<SCITEGIC>MOL_PROPERTY
Valence
SciTegic.value.DoubleValue
9.080

@<SCITEGIC>MOL_PROPERTY
Coulomb
SciTegic.value.DoubleValue
-1.772

@<SCITEGIC>MOL_PROPERTY
VdW
SciTegic.value.DoubleValue
1.165

@<SCITEGIC>MOL_PROPERTY
VdW6
SciTegic.value.DoubleValue
-9.830

@<SCITEGIC>MOL_PROPERTY
VdW12
SciTegic.value.DoubleValue
10.996

@<SCITEGIC>MOL_PROPERTY
Bond
SciTegic.value.DoubleValue
0.240

@<SCITEGIC>MOL_PROPERTY
Angle
SciTegic.value.DoubleValue
3.225

@<SCITEGIC>MOL_PROPERTY
Pdih
SciTegic.value.DoubleValue
5.615

@<SCITEGIC>MOL_PROPERTY
Idih
SciTegic.value.DoubleValue
0.001

@<SCITEGIC>MOL_PROPERTY
Tether
SciTegic.value.DoubleValue
0.000

@<TRIPOS>MOLECULE
guest-8_confgen4.mol2 : confsearch ligand conformer 627
          25          24           1
SMALL
USER_CHARGES
 
@<TRIPOS>ATOM
       1    C1      21.638684   18.150663   27.089517 C.2        1 MOL1         0.6168
       2    O1      22.851809   18.149355   27.018976 O.co2      1 MOL1        -0.6703
       3    O2      21.024328   18.343037   28.120161 O.co2      1 MOL1        -0.6703
       4    C2      20.843040   17.919271   25.809873 C.3        1 MOL1        -0.1963
       5    H1      19.914230   17.400225   26.075323 H          1 MOL1         0.0750
       6    H2      21.420144   17.243335   25.167480 H          1 MOL1         0.0750
       7    C3      20.524291   19.232679   25.053936 C.3        1 MOL1        -0.1860
       8    H3      19.957725   19.903542   25.714574 H          1 MOL1         0.0752
       9    H4      21.463881   19.746326   24.807216 H          1 MOL1         0.0752
      10    C4      19.720053   18.971768   23.761931 C.3        1 MOL1        -0.1858
      11    H5      18.782189   18.457924   24.013306 H          1 MOL1         0.0752
      12    H6      20.286376   18.292956   23.113313 H          1 MOL1         0.0752
      13    C5      19.399063   20.287054   23.013784 C.3        1 MOL1        -0.1858
      14    H7      18.805986   20.925104   23.683163 H          1 MOL1         0.0752
      15    H8      20.323198   20.841781   22.801483 H          1 MOL1         0.0752
      16    C6      18.597570   20.069550   21.705073 C.3        1 MOL1        -0.1858
      17    H9      17.892310   20.904507   21.594061 H          1 MOL1         0.0752
      18    H10     17.978942   19.165062   21.782778 H          1 MOL1         0.0752
      19    C7      19.460273   20.015141   20.419893 C.3        1 MOL1        -0.1834
      20    H11     18.789523   19.941141   19.552835 H          1 MOL1         0.0752
      21    H12     20.008411   20.960342   20.304231 H          1 MOL1         0.0752
      22    C8      20.456108   18.837534   20.375981 C.3        1 MOL1        -0.2849
      23    H13     19.945474   17.882530   20.555377 H          1 MOL1         0.0764
      24    H14     20.942398   18.782527   19.393509 H          1 MOL1         0.0764
      25    H15     21.245173   18.958696   21.128525 H          1 MOL1         0.0764
@<TRIPOS>BOND
    1     1     2    1
    2     1     3    2
    3     1     4    1
    4     4     5    1
    5     4     6    1
    6     4     7    1
    7     7     8    1
    8     7     9    1
    9     7    10    1
   10    10    11    1
   11    10    12    1
   12    10    13    1
   13    13    14    1
   14    13    15    1
   15    13    16    1
   16    16    17    1
   17    16    18    1
   18    16    19    1
   19    19    20    1
   20    19    21    1
   21    19    22    1
   22    22    23    1
   23    22    24    1
   24    22    25    1
@<TRIPOS>SUBSTRUCTURE
       1 MOL1            1 RESIDUE      1      MOL     
@<SCITEGIC>MOL_PROPERTY
VConf Rank
SciTegic.value.IntegerValue
627

@<SCITEGIC>MOL_PROPERTY
Conf_Id
SciTegic.value.IntegerValue
125

@<SCITEGIC>MOL_PROPERTY
Delta U+W
SciTegic.value.DoubleValue
2.314

@<SCITEGIC>MOL_PROPERTY
U+W
SciTegic.value.DoubleValue
-49.315

@<SCITEGIC>MOL_PROPERTY
Grad RMS
SciTegic.value.DoubleValue
0.000000

@<SCITEGIC>MOL_PROPERTY
U
SciTegic.value.DoubleValue
9.740

@<SCITEGIC>MOL_PROPERTY
W
SciTegic.value.DoubleValue
-59.054

@<SCITEGIC>MOL_PROPERTY
W(PB)
SciTegic.value.DoubleValue
-61.488

@<SCITEGIC>MOL_PROPERTY
W(SA)
SciTegic.value.DoubleValue
2.433

@<SCITEGIC>MOL_PROPERTY
Valence
SciTegic.value.DoubleValue
10.506

@<SCITEGIC>MOL_PROPERTY
Coulomb
SciTegic.value.DoubleValue
-1.761

@<SCITEGIC>MOL_PROPERTY
VdW
SciTegic.value.DoubleValue
0.994

@<SCITEGIC>MOL_PROPERTY
VdW6
SciTegic.value.DoubleValue
-9.209

@<SCITEGIC>MOL_PROPERTY
VdW12
SciTegic.value.DoubleValue
10.203

@<SCITEGIC>MOL_PROPERTY
Bond
SciTegic.value.DoubleValue
0.193

@<SCITEGIC>MOL_PROPERTY
Angle
SciTegic.value.DoubleValue
2.979

@<SCITEGIC>MOL_PROPERTY
Pdih
SciTegic.value.DoubleValue
7.334

@<SCITEGIC>MOL_PROPERTY
Idih
SciTegic.value.DoubleValue
0.001

@<SCITEGIC>MOL_PROPERTY
Tether
SciTegic.value.DoubleValue
0.000

@<TRIPOS>MOLECULE
guest-8_confgen4.mol2 : confsearch ligand conformer 628
          25          24           1
SMALL
USER_CHARGES
 
@<TRIPOS>ATOM
       1    C1      20.995026   19.415893   19.318498 C.2        1 MOL1         0.6168
       2    O1      21.179979   20.598829   19.110781 O.co2      1 MOL1        -0.6703
       3    O2      20.950583   18.577158   18.440266 O.co2      1 MOL1        -0.6703
       4    C2      20.782929   18.962123   20.758333 C.3        1 MOL1        -0.1963
       5    H1      21.386897   19.609725   21.403743 H          1 MOL1         0.0750
       6    H2      21.178733   17.944197   20.855911 H          1 MOL1         0.0750
       7    C3      19.292535   19.000219   21.185553 C.3        1 MOL1        -0.1860
       8    H3      18.920788   20.032625   21.128372 H          1 MOL1         0.0752
       9    H4      18.703766   18.418290   20.462949 H          1 MOL1         0.0752
      10    C4      19.040594   18.431438   22.602298 C.3        1 MOL1        -0.1858
      11    H5      19.404552   17.396112   22.653350 H          1 MOL1         0.0752
      12    H6      17.956052   18.388364   22.772072 H          1 MOL1         0.0752
      13    C5      19.693509   19.268831   23.726428 C.3        1 MOL1        -0.1858
      14    H7      20.783313   19.261303   23.604367 H          1 MOL1         0.0752
      15    H8      19.366309   20.314052   23.642663 H          1 MOL1         0.0752
      16    C6      19.328592   18.724555   25.127072 C.3        1 MOL1        -0.1858
      17    H9      19.696172   17.694511   25.230905 H          1 MOL1         0.0752
      18    H10     18.234918   18.675232   25.218124 H          1 MOL1         0.0752
      19    C7      19.878300   19.589180   26.285547 C.3        1 MOL1        -0.1834
      20    H11     19.508145   20.619105   26.187832 H          1 MOL1         0.0752
      21    H12     19.477380   19.204204   27.233324 H          1 MOL1         0.0752
      22    C8      21.420437   19.596774   26.365178 C.3        1 MOL1        -0.2849
      23    H13     21.864800   20.081855   25.487154 H          1 MOL1         0.0764
      24    H14     21.756083   20.147112   27.253640 H          1 MOL1         0.0764
      25    H15     21.815562   18.574724   26.431490 H          1 MOL1         0.0764
@<TRIPOS>BOND
    1     1     2    1
    2     1     3    2
    3     1     4    1
    4     4     5    1
    5     4     6    1
    6     4     7    1
    7     7     8    1
    8     7     9    1
    9     7    10    1
   10    10    11    1
   11    10    12    1
   12    10    13    1
   13    13    14    1
   14    13    15    1
   15    13    16    1
   16    16    17    1
   17    16    18    1
   18    16    19    1
   19    19    20    1
   20    19    21    1
   21    19    22    1
   22    22    23    1
   23    22    24    1
   24    22    25    1
@<TRIPOS>SUBSTRUCTURE
       1 MOL1            1 RESIDUE      1      MOL     
@<SCITEGIC>MOL_PROPERTY
VConf Rank
SciTegic.value.IntegerValue
628

@<SCITEGIC>MOL_PROPERTY
Conf_Id
SciTegic.value.IntegerValue
4

@<SCITEGIC>MOL_PROPERTY
Delta U+W
SciTegic.value.DoubleValue
0.189

@<SCITEGIC>MOL_PROPERTY
U+W
SciTegic.value.DoubleValue
-51.441

@<SCITEGIC>MOL_PROPERTY
Grad RMS
SciTegic.value.DoubleValue
0.000000

@<SCITEGIC>MOL_PROPERTY
U
SciTegic.value.DoubleValue
7.701

@<SCITEGIC>MOL_PROPERTY
W
SciTegic.value.DoubleValue
-59.141

@<SCITEGIC>MOL_PROPERTY
W(PB)
SciTegic.value.DoubleValue
-61.609

@<SCITEGIC>MOL_PROPERTY
W(SA)
SciTegic.value.DoubleValue
2.467

@<SCITEGIC>MOL_PROPERTY
Valence
SciTegic.value.DoubleValue
8.550

@<SCITEGIC>MOL_PROPERTY
Coulomb
SciTegic.value.DoubleValue
-1.988

@<SCITEGIC>MOL_PROPERTY
VdW
SciTegic.value.DoubleValue
1.139

@<SCITEGIC>MOL_PROPERTY
VdW6
SciTegic.value.DoubleValue
-8.988

@<SCITEGIC>MOL_PROPERTY
VdW12
SciTegic.value.DoubleValue
10.127

@<SCITEGIC>MOL_PROPERTY
Bond
SciTegic.value.DoubleValue
0.191

@<SCITEGIC>MOL_PROPERTY
Angle
SciTegic.value.DoubleValue
2.738

@<SCITEGIC>MOL_PROPERTY
Pdih
SciTegic.value.DoubleValue
5.621

@<SCITEGIC>MOL_PROPERTY
Idih
SciTegic.value.DoubleValue
0.001

@<SCITEGIC>MOL_PROPERTY
Tether
SciTegic.value.DoubleValue
0.000

@<TRIPOS>MOLECULE
guest-8_confgen4.mol2 : confsearch ligand conformer 629
          25          24           1
SMALL
USER_CHARGES
 
@<TRIPOS>ATOM
       1    C1      19.148395   22.798906   21.546876 C.2        1 MOL1         0.6168
       2    O1      18.031810   23.079673   21.935595 O.co2      1 MOL1        -0.6703
       3    O2      19.845620   23.554807   20.899394 O.co2      1 MOL1        -0.6703
       4    C2      19.715275   21.431560   21.911612 C.3        1 MOL1        -0.1963
       5    H1      20.385373   21.114656   21.103592 H          1 MOL1         0.0750
       6    H2      18.880694   20.722053   21.939808 H          1 MOL1         0.0750
       7    C3      20.473730   21.438442   23.264364 C.3        1 MOL1        -0.1860
       8    H3      21.240541   22.224926   23.234517 H          1 MOL1         0.0752
       9    H4      19.780740   21.711686   24.072097 H          1 MOL1         0.0752
      10    C4      21.158492   20.091191   23.596286 C.3        1 MOL1        -0.1858
      11    H5      21.763903   20.222884   24.503504 H          1 MOL1         0.0752
      12    H6      21.857888   19.825732   22.791706 H          1 MOL1         0.0752
      13    C5      20.159597   18.932380   23.821148 C.3        1 MOL1        -0.1858
      14    H7      19.431051   19.220103   24.591213 H          1 MOL1         0.0752
      15    H8      19.597162   18.747889   22.897971 H          1 MOL1         0.0752
      16    C6      20.881012   17.634441   24.252561 C.3        1 MOL1        -0.1858
      17    H9      21.492392   17.843172   25.141093 H          1 MOL1         0.0752
      18    H10     21.576844   17.318257   23.463427 H          1 MOL1         0.0752
      19    C7      19.913832   16.474238   24.584689 C.3        1 MOL1        -0.1834
      20    H11     20.495765   15.636553   24.993180 H          1 MOL1         0.0752
      21    H12     19.219619   16.785325   25.377532 H          1 MOL1         0.0752
      22    C8      19.114948   15.974209   23.361438 C.3        1 MOL1        -0.2849
      23    H13     19.788030   15.687065   22.543135 H          1 MOL1         0.0764
      24    H14     18.513953   15.095437   23.628757 H          1 MOL1         0.0764
      25    H15     18.428395   16.744598   22.988836 H          1 MOL1         0.0764
@<TRIPOS>BOND
    1     1     2    1
    2     1     3    2
    3     1     4    1
    4     4     5    1
    5     4     6    1
    6     4     7    1
    7     7     8    1
    8     7     9    1
    9     7    10    1
   10    10    11    1
   11    10    12    1
   12    10    13    1
   13    13    14    1
   14    13    15    1
   15    13    16    1
   16    16    17    1
   17    16    18    1
   18    16    19    1
   19    19    20    1
   20    19    21    1
   21    19    22    1
   22    22    23    1
   23    22    24    1
   24    22    25    1
@<TRIPOS>SUBSTRUCTURE
       1 MOL1            1 RESIDUE      1      MOL     
@<SCITEGIC>MOL_PROPERTY
VConf Rank
SciTegic.value.IntegerValue
629

@<SCITEGIC>MOL_PROPERTY
Conf_Id
SciTegic.value.IntegerValue
17

@<SCITEGIC>MOL_PROPERTY
Delta U+W
SciTegic.value.DoubleValue
0.219

@<SCITEGIC>MOL_PROPERTY
U+W
SciTegic.value.DoubleValue
-51.411

@<SCITEGIC>MOL_PROPERTY
Grad RMS
SciTegic.value.DoubleValue
0.000000

@<SCITEGIC>MOL_PROPERTY
U
SciTegic.value.DoubleValue
7.701

@<SCITEGIC>MOL_PROPERTY
W
SciTegic.value.DoubleValue
-59.111

@<SCITEGIC>MOL_PROPERTY
W(PB)
SciTegic.value.DoubleValue
-61.599

@<SCITEGIC>MOL_PROPERTY
W(SA)
SciTegic.value.DoubleValue
2.488

@<SCITEGIC>MOL_PROPERTY
Valence
SciTegic.value.DoubleValue
8.550

@<SCITEGIC>MOL_PROPERTY
Coulomb
SciTegic.value.DoubleValue
-1.988

@<SCITEGIC>MOL_PROPERTY
VdW
SciTegic.value.DoubleValue
1.139

@<SCITEGIC>MOL_PROPERTY
VdW6
SciTegic.value.DoubleValue
-8.988

@<SCITEGIC>MOL_PROPERTY
VdW12
SciTegic.value.DoubleValue
10.127

@<SCITEGIC>MOL_PROPERTY
Bond
SciTegic.value.DoubleValue
0.191

@<SCITEGIC>MOL_PROPERTY
Angle
SciTegic.value.DoubleValue
2.738

@<SCITEGIC>MOL_PROPERTY
Pdih
SciTegic.value.DoubleValue
5.621

@<SCITEGIC>MOL_PROPERTY
Idih
SciTegic.value.DoubleValue
0.001

@<SCITEGIC>MOL_PROPERTY
Tether
SciTegic.value.DoubleValue
0.000

@<TRIPOS>MOLECULE
guest-8_confgen4.mol2 : confsearch ligand conformer 630
          25          24           1
SMALL
USER_CHARGES
 
@<TRIPOS>ATOM
       1    C1      20.764409   23.013008   23.000663 C.2        1 MOL1         0.6168
       2    O1      20.297004   23.433796   21.960696 O.co2      1 MOL1        -0.6703
       3    O2      21.956471   22.968825   23.233283 O.co2      1 MOL1        -0.6703
       4    C2      19.802568   22.531057   24.083029 C.3        1 MOL1        -0.1963
       5    H1      18.811193   22.956071   23.884756 H          1 MOL1         0.0750
       6    H2      20.143337   22.951971   25.036282 H          1 MOL1         0.0750
       7    C3      19.710994   20.987514   24.201302 C.3        1 MOL1        -0.1860
       8    H3      20.716625   20.584543   24.380152 H          1 MOL1         0.0752
       9    H4      19.105020   20.732372   25.081054 H          1 MOL1         0.0752
      10    C4      19.088132   20.333543   22.944674 C.3        1 MOL1        -0.1858
      11    H5      19.725566   20.523749   22.070134 H          1 MOL1         0.0752
      12    H6      18.122843   20.813694   22.733679 H          1 MOL1         0.0752
      13    C5      18.857526   18.810838   23.092699 C.3        1 MOL1        -0.1858
      14    H7      18.213108   18.618763   23.961424 H          1 MOL1         0.0752
      15    H8      18.305473   18.455667   22.211819 H          1 MOL1         0.0752
      16    C6      20.167250   17.999612   23.225244 C.3        1 MOL1        -0.1858
      17    H9      20.696078   18.288872   24.142631 H          1 MOL1         0.0752
      18    H10     20.832184   18.236034   22.383306 H          1 MOL1         0.0752
      19    C7      19.896495   16.480588   23.256957 C.3        1 MOL1        -0.1834
      20    H11     19.230035   16.240989   24.097124 H          1 MOL1         0.0752
      21    H12     19.374459   16.177583   22.338757 H          1 MOL1         0.0752
      22    C8      21.203144   15.673177   23.392892 C.3        1 MOL1        -0.2849
      23    H13     21.730731   15.932892   24.320028 H          1 MOL1         0.0764
      24    H14     20.992102   14.596099   23.413390 H          1 MOL1         0.0764
      25    H15     21.876456   15.870678   22.548484 H          1 MOL1         0.0764
@<TRIPOS>BOND
    1     1     2    1
    2     1     3    2
    3     1     4    1
    4     4     5    1
    5     4     6    1
    6     4     7    1
    7     7     8    1
    8     7     9    1
    9     7    10    1
   10    10    11    1
   11    10    12    1
   12    10    13    1
   13    13    14    1
   14    13    15    1
   15    13    16    1
   16    16    17    1
   17    16    18    1
   18    16    19    1
   19    19    20    1
   20    19    21    1
   21    19    22    1
   22    22    23    1
   23    22    24    1
   24    22    25    1
@<TRIPOS>SUBSTRUCTURE
       1 MOL1            1 RESIDUE      1      MOL     
@<SCITEGIC>MOL_PROPERTY
VConf Rank
SciTegic.value.IntegerValue
630

@<SCITEGIC>MOL_PROPERTY
Conf_Id
SciTegic.value.IntegerValue
142

@<SCITEGIC>MOL_PROPERTY
Delta U+W
SciTegic.value.DoubleValue
0.593

@<SCITEGIC>MOL_PROPERTY
U+W
SciTegic.value.DoubleValue
-51.037

@<SCITEGIC>MOL_PROPERTY
Grad RMS
SciTegic.value.DoubleValue
0.000000

@<SCITEGIC>MOL_PROPERTY
U
SciTegic.value.DoubleValue
8.903

@<SCITEGIC>MOL_PROPERTY
W
SciTegic.value.DoubleValue
-59.940

@<SCITEGIC>MOL_PROPERTY
W(PB)
SciTegic.value.DoubleValue
-62.418

@<SCITEGIC>MOL_PROPERTY
W(SA)
SciTegic.value.DoubleValue
2.478

@<SCITEGIC>MOL_PROPERTY
Valence
SciTegic.value.DoubleValue
8.305

@<SCITEGIC>MOL_PROPERTY
Coulomb
SciTegic.value.DoubleValue
-0.223

@<SCITEGIC>MOL_PROPERTY
VdW
SciTegic.value.DoubleValue
0.821

@<SCITEGIC>MOL_PROPERTY
VdW6
SciTegic.value.DoubleValue
-9.236

@<SCITEGIC>MOL_PROPERTY
VdW12
SciTegic.value.DoubleValue
10.057

@<SCITEGIC>MOL_PROPERTY
Bond
SciTegic.value.DoubleValue
0.173

@<SCITEGIC>MOL_PROPERTY
Angle
SciTegic.value.DoubleValue
2.663

@<SCITEGIC>MOL_PROPERTY
Pdih
SciTegic.value.DoubleValue
5.469

@<SCITEGIC>MOL_PROPERTY
Idih
SciTegic.value.DoubleValue
0.001

@<SCITEGIC>MOL_PROPERTY
Tether
SciTegic.value.DoubleValue
0.000

@<TRIPOS>MOLECULE
guest-8_confgen4.mol2 : confsearch ligand conformer 631
          25          24           1
SMALL
USER_CHARGES
 
@<TRIPOS>ATOM
       1    C1      23.638757   18.514446   24.089356 C.2        1 MOL1         0.6168
       2    O1      24.331233   18.091110   24.994244 O.co2      1 MOL1        -0.6703
       3    O2      23.785687   18.196640   22.925540 O.co2      1 MOL1        -0.6703
       4    C2      22.544013   19.520687   24.432795 C.3        1 MOL1        -0.1963
       5    H1      22.208759   20.004491   23.508221 H          1 MOL1         0.0750
       6    H2      23.002686   20.305539   25.045286 H          1 MOL1         0.0750
       7    C3      21.338605   18.909533   25.198050 C.3        1 MOL1        -0.1860
       8    H3      21.699414   18.495062   26.149474 H          1 MOL1         0.0752
       9    H4      20.636952   19.709978   25.466042 H          1 MOL1         0.0752
      10    C4      20.587772   17.794454   24.425074 C.3        1 MOL1        -0.1858
      11    H5      19.762888   17.426298   25.050075 H          1 MOL1         0.0752
      12    H6      21.263689   16.939827   24.284241 H          1 MOL1         0.0752
      13    C5      20.023198   18.211478   23.043889 C.3        1 MOL1        -0.1858
      14    H7      20.847392   18.476406   22.368114 H          1 MOL1         0.0752
      15    H8      19.531970   17.338044   22.594067 H          1 MOL1         0.0752
      16    C6      19.009101   19.376374   23.116641 C.3        1 MOL1        -0.1858
      17    H9      19.504454   20.279175   23.497008 H          1 MOL1         0.0752
      18    H10     18.210341   19.123945   23.827230 H          1 MOL1         0.0752
      19    C7      18.393147   19.683407   21.735421 C.3        1 MOL1        -0.1834
      20    H11     19.190867   19.933618   21.022320 H          1 MOL1         0.0752
      21    H12     17.887298   18.788351   21.347651 H          1 MOL1         0.0752
      22    C8      17.386626   20.849283   21.808503 C.3        1 MOL1        -0.2849
      23    H13     17.873770   21.767001   22.163256 H          1 MOL1         0.0764
      24    H14     16.958705   21.053655   20.818477 H          1 MOL1         0.0764
      25    H15     16.561020   20.612960   22.492520 H          1 MOL1         0.0764
@<TRIPOS>BOND
    1     1     2    1
    2     1     3    2
    3     1     4    1
    4     4     5    1
    5     4     6    1
    6     4     7    1
    7     7     8    1
    8     7     9    1
    9     7    10    1
   10    10    11    1
   11    10    12    1
   12    10    13    1
   13    13    14    1
   14    13    15    1
   15    13    16    1
   16    16    17    1
   17    16    18    1
   18    16    19    1
   19    19    20    1
   20    19    21    1
   21    19    22    1
   22    22    23    1
   23    22    24    1
   24    22    25    1
@<TRIPOS>SUBSTRUCTURE
       1 MOL1            1 RESIDUE      1      MOL     
@<SCITEGIC>MOL_PROPERTY
VConf Rank
SciTegic.value.IntegerValue
631

@<SCITEGIC>MOL_PROPERTY
Conf_Id
SciTegic.value.IntegerValue
135

@<SCITEGIC>MOL_PROPERTY
Delta U+W
SciTegic.value.DoubleValue
1.314

@<SCITEGIC>MOL_PROPERTY
U+W
SciTegic.value.DoubleValue
-50.316

@<SCITEGIC>MOL_PROPERTY
Grad RMS
SciTegic.value.DoubleValue
0.000000

@<SCITEGIC>MOL_PROPERTY
U
SciTegic.value.DoubleValue
9.773

@<SCITEGIC>MOL_PROPERTY
W
SciTegic.value.DoubleValue
-60.088

@<SCITEGIC>MOL_PROPERTY
W(PB)
SciTegic.value.DoubleValue
-62.535

@<SCITEGIC>MOL_PROPERTY
W(SA)
SciTegic.value.DoubleValue
2.447

@<SCITEGIC>MOL_PROPERTY
Valence
SciTegic.value.DoubleValue
8.741

@<SCITEGIC>MOL_PROPERTY
Coulomb
SciTegic.value.DoubleValue
0.479

@<SCITEGIC>MOL_PROPERTY
VdW
SciTegic.value.DoubleValue
0.552

@<SCITEGIC>MOL_PROPERTY
VdW6
SciTegic.value.DoubleValue
-10.627

@<SCITEGIC>MOL_PROPERTY
VdW12
SciTegic.value.DoubleValue
11.179

@<SCITEGIC>MOL_PROPERTY
Bond
SciTegic.value.DoubleValue
0.227

@<SCITEGIC>MOL_PROPERTY
Angle
SciTegic.value.DoubleValue
3.155

@<SCITEGIC>MOL_PROPERTY
Pdih
SciTegic.value.DoubleValue
5.358

@<SCITEGIC>MOL_PROPERTY
Idih
SciTegic.value.DoubleValue
0.001

@<SCITEGIC>MOL_PROPERTY
Tether
SciTegic.value.DoubleValue
0.000

@<TRIPOS>MOLECULE
guest-8_confgen4.mol2 : confsearch ligand conformer 632
          25          24           1
SMALL
USER_CHARGES
 
@<TRIPOS>ATOM
       1    C1      18.697090   15.508149   21.780152 C.2        1 MOL1         0.6168
       2    O1      17.858965   15.619879   20.907338 O.co2      1 MOL1        -0.6703
       3    O2      19.348206   14.498450   21.962711 O.co2      1 MOL1        -0.6703
       4    C2      18.962568   16.708634   22.681561 C.3        1 MOL1        -0.1963
       5    H1      19.258627   16.333496   23.668460 H          1 MOL1         0.0750
       6    H2      18.015655   17.244908   22.807806 H          1 MOL1         0.0750
       7    C3      20.057388   17.651184   22.116940 C.3        1 MOL1        -0.1860
       8    H3      20.959069   17.057294   21.912698 H          1 MOL1         0.0752
       9    H4      19.729968   18.059116   21.150675 H          1 MOL1         0.0752
      10    C4      20.435108   18.807883   23.073134 C.3        1 MOL1        -0.1858
      11    H5      21.313834   19.315708   22.656066 H          1 MOL1         0.0752
      12    H6      20.738021   18.398911   24.046563 H          1 MOL1         0.0752
      13    C5      19.301020   19.842521   23.267637 C.3        1 MOL1        -0.1858
      14    H7      19.045185   20.289317   22.297319 H          1 MOL1         0.0752
      15    H8      18.395863   19.333142   23.620762 H          1 MOL1         0.0752
      16    C6      19.634658   20.967530   24.279817 C.3        1 MOL1        -0.1858
      17    H9      19.800646   20.538601   25.277502 H          1 MOL1         0.0752
      18    H10     18.742871   21.602225   24.373370 H          1 MOL1         0.0752
      19    C7      20.828036   21.870216   23.878311 C.3        1 MOL1        -0.1834
      20    H11     20.944936   21.884520   22.785899 H          1 MOL1         0.0752
      21    H12     20.602230   22.903986   24.174339 H          1 MOL1         0.0752
      22    C8      22.155144   21.459021   24.554306 C.3        1 MOL1        -0.2849
      23    H13     22.446132   20.435143   24.293309 H          1 MOL1         0.0764
      24    H14     22.967820   22.128360   24.243901 H          1 MOL1         0.0764
      25    H15     22.070675   21.518184   25.647213 H          1 MOL1         0.0764
@<TRIPOS>BOND
    1     1     2    1
    2     1     3    2
    3     1     4    1
    4     4     5    1
    5     4     6    1
    6     4     7    1
    7     7     8    1
    8     7     9    1
    9     7    10    1
   10    10    11    1
   11    10    12    1
   12    10    13    1
   13    13    14    1
   14    13    15    1
   15    13    16    1
   16    16    17    1
   17    16    18    1
   18    16    19    1
   19    19    20    1
   20    19    21    1
   21    19    22    1
   22    22    23    1
   23    22    24    1
   24    22    25    1
@<TRIPOS>SUBSTRUCTURE
       1 MOL1            1 RESIDUE      1      MOL     
@<SCITEGIC>MOL_PROPERTY
VConf Rank
SciTegic.value.IntegerValue
632

@<SCITEGIC>MOL_PROPERTY
Conf_Id
SciTegic.value.IntegerValue
19

@<SCITEGIC>MOL_PROPERTY
Delta U+W
SciTegic.value.DoubleValue
3.222

@<SCITEGIC>MOL_PROPERTY
U+W
SciTegic.value.DoubleValue
-48.407

@<SCITEGIC>MOL_PROPERTY
Grad RMS
SciTegic.value.DoubleValue
0.000000

@<SCITEGIC>MOL_PROPERTY
U
SciTegic.value.DoubleValue
10.617

@<SCITEGIC>MOL_PROPERTY
W
SciTegic.value.DoubleValue
-59.025

@<SCITEGIC>MOL_PROPERTY
W(PB)
SciTegic.value.DoubleValue
-61.462

@<SCITEGIC>MOL_PROPERTY
W(SA)
SciTegic.value.DoubleValue
2.437

@<SCITEGIC>MOL_PROPERTY
Valence
SciTegic.value.DoubleValue
11.188

@<SCITEGIC>MOL_PROPERTY
Coulomb
SciTegic.value.DoubleValue
-1.778

@<SCITEGIC>MOL_PROPERTY
VdW
SciTegic.value.DoubleValue
1.208

@<SCITEGIC>MOL_PROPERTY
VdW6
SciTegic.value.DoubleValue
-9.786

@<SCITEGIC>MOL_PROPERTY
VdW12
SciTegic.value.DoubleValue
10.993

@<SCITEGIC>MOL_PROPERTY
Bond
SciTegic.value.DoubleValue
0.241

@<SCITEGIC>MOL_PROPERTY
Angle
SciTegic.value.DoubleValue
3.294

@<SCITEGIC>MOL_PROPERTY
Pdih
SciTegic.value.DoubleValue
7.653

@<SCITEGIC>MOL_PROPERTY
Idih
SciTegic.value.DoubleValue
0.001

@<SCITEGIC>MOL_PROPERTY
Tether
SciTegic.value.DoubleValue
0.000

@<TRIPOS>MOLECULE
guest-8_confgen4.mol2 : confsearch ligand conformer 633
          25          24           1
SMALL
USER_CHARGES
 
@<TRIPOS>ATOM
       1    C1      19.307413   16.086739   20.526863 C.2        1 MOL1         0.6168
       2    O1      18.238032   16.196682   19.960226 O.co2      1 MOL1        -0.6703
       3    O2      19.922227   15.041595   20.607142 O.co2      1 MOL1        -0.6703
       4    C2      19.899367   17.323130   21.194029 C.3        1 MOL1        -0.1963
       5    H1      19.611380   18.193812   20.594739 H          1 MOL1         0.0750
       6    H2      20.992031   17.243326   21.148596 H          1 MOL1         0.0750
       7    C3      19.435794   17.490104   22.664759 C.3        1 MOL1        -0.1860
       8    H3      18.344855   17.617438   22.695098 H          1 MOL1         0.0752
       9    H4      19.654170   16.560338   23.208169 H          1 MOL1         0.0752
      10    C4      20.121233   18.665018   23.402788 C.3        1 MOL1        -0.1858
      11    H5      21.212230   18.548962   23.349511 H          1 MOL1         0.0752
      12    H6      19.847747   18.601297   24.463511 H          1 MOL1         0.0752
      13    C5      19.713526   20.055787   22.860569 C.3        1 MOL1        -0.1858
      14    H7      19.921024   20.105628   21.784494 H          1 MOL1         0.0752
      15    H8      18.628607   20.186549   22.972147 H          1 MOL1         0.0752
      16    C6      20.446694   21.241191   23.537884 C.3        1 MOL1        -0.1858
      17    H9      20.118083   22.161977   23.036846 H          1 MOL1         0.0752
      18    H10     21.527156   21.170620   23.352066 H          1 MOL1         0.0752
      19    C7      20.171832   21.394175   25.054871 C.3        1 MOL1        -0.1834
      20    H11     20.111245   22.464649   25.295111 H          1 MOL1         0.0752
      21    H12     19.191477   20.968547   25.309778 H          1 MOL1         0.0752
      22    C8      21.274262   20.768245   25.938118 C.3        1 MOL1        -0.2849
      23    H13     22.244835   21.243636   25.745576 H          1 MOL1         0.0764
      24    H14     21.038581   20.905337   27.001352 H          1 MOL1         0.0764
      25    H15     21.382845   19.693191   25.754847 H          1 MOL1         0.0764
@<TRIPOS>BOND
    1     1     2    1
    2     1     3    2
    3     1     4    1
    4     4     5    1
    5     4     6    1
    6     4     7    1
    7     7     8    1
    8     7     9    1
    9     7    10    1
   10    10    11    1
   11    10    12    1
   12    10    13    1
   13    13    14    1
   14    13    15    1
   15    13    16    1
   16    16    17    1
   17    16    18    1
   18    16    19    1
   19    19    20    1
   20    19    21    1
   21    19    22    1
   22    22    23    1
   23    22    24    1
   24    22    25    1
@<TRIPOS>SUBSTRUCTURE
       1 MOL1            1 RESIDUE      1      MOL     
@<SCITEGIC>MOL_PROPERTY
VConf Rank
SciTegic.value.IntegerValue
633

@<SCITEGIC>MOL_PROPERTY
Conf_Id
SciTegic.value.IntegerValue
20

@<SCITEGIC>MOL_PROPERTY
Delta U+W
SciTegic.value.DoubleValue
3.224

@<SCITEGIC>MOL_PROPERTY
U+W
SciTegic.value.DoubleValue
-48.406

@<SCITEGIC>MOL_PROPERTY
Grad RMS
SciTegic.value.DoubleValue
0.000000

@<SCITEGIC>MOL_PROPERTY
U
SciTegic.value.DoubleValue
10.617

@<SCITEGIC>MOL_PROPERTY
W
SciTegic.value.DoubleValue
-59.023

@<SCITEGIC>MOL_PROPERTY
W(PB)
SciTegic.value.DoubleValue
-61.467

@<SCITEGIC>MOL_PROPERTY
W(SA)
SciTegic.value.DoubleValue
2.444

@<SCITEGIC>MOL_PROPERTY
Valence
SciTegic.value.DoubleValue
11.188

@<SCITEGIC>MOL_PROPERTY
Coulomb
SciTegic.value.DoubleValue
-1.778

@<SCITEGIC>MOL_PROPERTY
VdW
SciTegic.value.DoubleValue
1.208

@<SCITEGIC>MOL_PROPERTY
VdW6
SciTegic.value.DoubleValue
-9.786

@<SCITEGIC>MOL_PROPERTY
VdW12
SciTegic.value.DoubleValue
10.993

@<SCITEGIC>MOL_PROPERTY
Bond
SciTegic.value.DoubleValue
0.241

@<SCITEGIC>MOL_PROPERTY
Angle
SciTegic.value.DoubleValue
3.294

@<SCITEGIC>MOL_PROPERTY
Pdih
SciTegic.value.DoubleValue
7.653

@<SCITEGIC>MOL_PROPERTY
Idih
SciTegic.value.DoubleValue
0.001

@<SCITEGIC>MOL_PROPERTY
Tether
SciTegic.value.DoubleValue
0.000

@<TRIPOS>MOLECULE
guest-8_confgen4.mol2 : confsearch ligand conformer 634
          25          24           1
SMALL
USER_CHARGES
 
@<TRIPOS>ATOM
       1    C1      20.789854   21.740259   21.740069 C.2        1 MOL1         0.6168
       2    O1      20.793469   22.714578   22.466935 O.co2      1 MOL1        -0.6703
       3    O2      19.904813   21.502445   20.941717 O.co2      1 MOL1        -0.6703
       4    C2      21.991960   20.798754   21.783640 C.3        1 MOL1        -0.1963
       5    H1      22.856887   21.388366   21.458485 H          1 MOL1         0.0750
       6    H2      21.852620   20.007872   21.036726 H          1 MOL1         0.0750
       7    C3      22.297763   20.177298   23.175540 C.3        1 MOL1        -0.1860
       8    H3      23.343349   19.840882   23.174315 H          1 MOL1         0.0752
       9    H4      22.230235   20.950178   23.953801 H          1 MOL1         0.0752
      10    C4      21.412471   18.963980   23.553965 C.3        1 MOL1        -0.1858
      11    H5      21.815663   18.520554   24.474721 H          1 MOL1         0.0752
      12    H6      21.493697   18.190677   22.777924 H          1 MOL1         0.0752
      13    C5      19.925035   19.316018   23.782508 C.3        1 MOL1        -0.1858
      14    H7      19.848936   20.160696   24.480917 H          1 MOL1         0.0752
      15    H8      19.468754   19.637646   22.837857 H          1 MOL1         0.0752
      16    C6      19.131932   18.112710   24.337131 C.3        1 MOL1        -0.1858
      17    H9      19.574948   17.786812   25.288180 H          1 MOL1         0.0752
      18    H10     19.213193   17.267604   23.639833 H          1 MOL1         0.0752
      19    C7      17.644164   18.459824   24.554923 C.3        1 MOL1        -0.1834
      20    H11     17.559403   19.304451   25.252690 H          1 MOL1         0.0752
      21    H12     17.197061   18.784742   23.605117 H          1 MOL1         0.0752
      22    C8      16.854698   17.256368   25.108192 C.3        1 MOL1        -0.2849
      23    H13     17.261639   16.930333   26.074355 H          1 MOL1         0.0764
      24    H14     15.799724   17.521008   25.256715 H          1 MOL1         0.0764
      25    H15     16.896541   16.406670   24.414191 H          1 MOL1         0.0764
@<TRIPOS>BOND
    1     1     2    1
    2     1     3    2
    3     1     4    1
    4     4     5    1
    5     4     6    1
    6     4     7    1
    7     7     8    1
    8     7     9    1
    9     7    10    1
   10    10    11    1
   11    10    12    1
   12    10    13    1
   13    13    14    1
   14    13    15    1
   15    13    16    1
   16    16    17    1
   17    16    18    1
   18    16    19    1
   19    19    20    1
   20    19    21    1
   21    19    22    1
   22    22    23    1
   23    22    24    1
   24    22    25    1
@<TRIPOS>SUBSTRUCTURE
       1 MOL1            1 RESIDUE      1      MOL     
@<SCITEGIC>MOL_PROPERTY
VConf Rank
SciTegic.value.IntegerValue
634

@<SCITEGIC>MOL_PROPERTY
Conf_Id
SciTegic.value.IntegerValue
24

@<SCITEGIC>MOL_PROPERTY
Delta U+W
SciTegic.value.DoubleValue
1.784

@<SCITEGIC>MOL_PROPERTY
U+W
SciTegic.value.DoubleValue
-49.846

@<SCITEGIC>MOL_PROPERTY
Grad RMS
SciTegic.value.DoubleValue
0.000000

@<SCITEGIC>MOL_PROPERTY
U
SciTegic.value.DoubleValue
10.904

@<SCITEGIC>MOL_PROPERTY
W
SciTegic.value.DoubleValue
-60.749

@<SCITEGIC>MOL_PROPERTY
W(PB)
SciTegic.value.DoubleValue
-63.220

@<SCITEGIC>MOL_PROPERTY
W(SA)
SciTegic.value.DoubleValue
2.471

@<SCITEGIC>MOL_PROPERTY
Valence
SciTegic.value.DoubleValue
9.445

@<SCITEGIC>MOL_PROPERTY
Coulomb
SciTegic.value.DoubleValue
0.780

@<SCITEGIC>MOL_PROPERTY
VdW
SciTegic.value.DoubleValue
0.679

@<SCITEGIC>MOL_PROPERTY
VdW6
SciTegic.value.DoubleValue
-10.008

@<SCITEGIC>MOL_PROPERTY
VdW12
SciTegic.value.DoubleValue
10.687

@<SCITEGIC>MOL_PROPERTY
Bond
SciTegic.value.DoubleValue
0.201

@<SCITEGIC>MOL_PROPERTY
Angle
SciTegic.value.DoubleValue
3.198

@<SCITEGIC>MOL_PROPERTY
Pdih
SciTegic.value.DoubleValue
6.039

@<SCITEGIC>MOL_PROPERTY
Idih
SciTegic.value.DoubleValue
0.006

@<SCITEGIC>MOL_PROPERTY
Tether
SciTegic.value.DoubleValue
0.000

@<TRIPOS>MOLECULE
guest-8_confgen4.mol2 : confsearch ligand conformer 635
          25          24           1
SMALL
USER_CHARGES
 
@<TRIPOS>ATOM
       1    C1      20.541863   17.202013   20.949206 C.2        1 MOL1         0.6168
       2    O1      21.182090   16.228938   21.296880 O.co2      1 MOL1        -0.6703
       3    O2      19.341933   17.181581   20.756935 O.co2      1 MOL1        -0.6703
       4    C2      21.292775   18.503547   20.674379 C.3        1 MOL1        -0.1963
       5    H1      20.579584   19.259458   20.324033 H          1 MOL1         0.0750
       6    H2      21.968857   18.298007   19.836445 H          1 MOL1         0.0750
       7    C3      22.120670   19.056580   21.868468 C.3        1 MOL1        -0.1860
       8    H3      22.678878   18.240030   22.347262 H          1 MOL1         0.0752
       9    H4      22.877118   19.744315   21.466927 H          1 MOL1         0.0752
      10    C4      21.296300   19.828931   22.928172 C.3        1 MOL1        -0.1858
      11    H5      20.750480   20.650781   22.444976 H          1 MOL1         0.0752
      12    H6      21.997716   20.296599   23.632647 H          1 MOL1         0.0752
      13    C5      20.308045   18.946362   23.723817 C.3        1 MOL1        -0.1858
      14    H7      19.519776   18.575122   23.056869 H          1 MOL1         0.0752
      15    H8      20.834975   18.067506   24.120053 H          1 MOL1         0.0752
      16    C6      19.654465   19.725503   24.885860 C.3        1 MOL1        -0.1858
      17    H9      19.132216   20.606525   24.488259 H          1 MOL1         0.0752
      18    H10     20.434342   20.095299   25.565571 H          1 MOL1         0.0752
      19    C7      18.658912   18.848443   25.673902 C.3        1 MOL1        -0.1834
      20    H11     17.876093   18.478056   24.997431 H          1 MOL1         0.0752
      21    H12     19.178440   17.966510   26.073580 H          1 MOL1         0.0752
      22    C8      18.007614   19.629106   26.833232 C.3        1 MOL1        -0.2849
      23    H13     17.454181   20.500002   26.458231 H          1 MOL1         0.0764
      24    H14     17.303244   18.990577   27.382057 H          1 MOL1         0.0764
      25    H15     18.766440   19.984513   27.542626 H          1 MOL1         0.0764
@<TRIPOS>BOND
    1     1     2    1
    2     1     3    2
    3     1     4    1
    4     4     5    1
    5     4     6    1
    6     4     7    1
    7     7     8    1
    8     7     9    1
    9     7    10    1
   10    10    11    1
   11    10    12    1
   12    10    13    1
   13    13    14    1
   14    13    15    1
   15    13    16    1
   16    16    17    1
   17    16    18    1
   18    16    19    1
   19    19    20    1
   20    19    21    1
   21    19    22    1
   22    22    23    1
   23    22    24    1
   24    22    25    1
@<TRIPOS>SUBSTRUCTURE
       1 MOL1            1 RESIDUE      1      MOL     
@<SCITEGIC>MOL_PROPERTY
VConf Rank
SciTegic.value.IntegerValue
635

@<SCITEGIC>MOL_PROPERTY
Conf_Id
SciTegic.value.IntegerValue
9

@<SCITEGIC>MOL_PROPERTY
Delta U+W
SciTegic.value.DoubleValue
1.764

@<SCITEGIC>MOL_PROPERTY
U+W
SciTegic.value.DoubleValue
-49.865

@<SCITEGIC>MOL_PROPERTY
Grad RMS
SciTegic.value.DoubleValue
0.000000

@<SCITEGIC>MOL_PROPERTY
U
SciTegic.value.DoubleValue
10.902

@<SCITEGIC>MOL_PROPERTY
W
SciTegic.value.DoubleValue
-60.768

@<SCITEGIC>MOL_PROPERTY
W(PB)
SciTegic.value.DoubleValue
-63.223

@<SCITEGIC>MOL_PROPERTY
W(SA)
SciTegic.value.DoubleValue
2.456

@<SCITEGIC>MOL_PROPERTY
Valence
SciTegic.value.DoubleValue
9.445

@<SCITEGIC>MOL_PROPERTY
Coulomb
SciTegic.value.DoubleValue
0.778

@<SCITEGIC>MOL_PROPERTY
VdW
SciTegic.value.DoubleValue
0.679

@<SCITEGIC>MOL_PROPERTY
VdW6
SciTegic.value.DoubleValue
-10.007

@<SCITEGIC>MOL_PROPERTY
VdW12
SciTegic.value.DoubleValue
10.687

@<SCITEGIC>MOL_PROPERTY
Bond
SciTegic.value.DoubleValue
0.201

@<SCITEGIC>MOL_PROPERTY
Angle
SciTegic.value.DoubleValue
3.198

@<SCITEGIC>MOL_PROPERTY
Pdih
SciTegic.value.DoubleValue
6.040

@<SCITEGIC>MOL_PROPERTY
Idih
SciTegic.value.DoubleValue
0.006

@<SCITEGIC>MOL_PROPERTY
Tether
SciTegic.value.DoubleValue
0.000

@<TRIPOS>MOLECULE
guest-8_confgen4.mol2 : confsearch ligand conformer 636
          25          24           1
SMALL
USER_CHARGES
 
@<TRIPOS>ATOM
       1    C1      17.828862   21.208842   21.212120 C.2        1 MOL1         0.6168
       2    O1      17.539168   20.243005   20.534004 O.co2      1 MOL1        -0.6703
       3    O2      17.216209   22.258042   21.185984 O.co2      1 MOL1        -0.6703
       4    C2      19.014086   21.091430   22.163526 C.3        1 MOL1        -0.1963
       5    H1      19.488923   22.077168   22.234992 H          1 MOL1         0.0750
       6    H2      19.745011   20.417841   21.705824 H          1 MOL1         0.0750
       7    C3      18.602836   20.595736   23.575195 C.3        1 MOL1        -0.1860
       8    H3      17.877117   21.311303   23.985966 H          1 MOL1         0.0752
       9    H4      18.075104   19.634872   23.500001 H          1 MOL1         0.0752
      10    C4      19.793795   20.477995   24.560103 C.3        1 MOL1        -0.1858
      11    H5      19.436406   20.752643   25.561981 H          1 MOL1         0.0752
      12    H6      20.570688   21.212957   24.308889 H          1 MOL1         0.0752
      13    C5      20.412535   19.060965   24.659838 C.3        1 MOL1        -0.1858
      14    H7      21.184248   19.075916   25.441365 H          1 MOL1         0.0752
      15    H8      19.641752   18.356886   24.999827 H          1 MOL1         0.0752
      16    C6      21.042163   18.548612   23.342934 C.3        1 MOL1        -0.1858
      17    H9      21.697161   19.327918   22.930557 H          1 MOL1         0.0752
      18    H10     20.254039   18.368563   22.600175 H          1 MOL1         0.0752
      19    C7      21.868904   17.254194   23.523254 C.3        1 MOL1        -0.1834
      20    H11     22.359679   17.013279   22.570225 H          1 MOL1         0.0752
      21    H12     22.673374   17.425871   24.251669 H          1 MOL1         0.0752
      22    C8      21.017681   16.044122   23.965372 C.3        1 MOL1        -0.2849
      23    H13     20.190961   15.868696   23.264726 H          1 MOL1         0.0764
      24    H14     21.631234   15.134583   23.999158 H          1 MOL1         0.0764
      25    H15     20.594415   16.197170   24.966019 H          1 MOL1         0.0764
@<TRIPOS>BOND
    1     1     2    1
    2     1     3    2
    3     1     4    1
    4     4     5    1
    5     4     6    1
    6     4     7    1
    7     7     8    1
    8     7     9    1
    9     7    10    1
   10    10    11    1
   11    10    12    1
   12    10    13    1
   13    13    14    1
   14    13    15    1
   15    13    16    1
   16    16    17    1
   17    16    18    1
   18    16    19    1
   19    19    20    1
   20    19    21    1
   21    19    22    1
   22    22    23    1
   23    22    24    1
   24    22    25    1
@<TRIPOS>SUBSTRUCTURE
       1 MOL1            1 RESIDUE      1      MOL     
@<SCITEGIC>MOL_PROPERTY
VConf Rank
SciTegic.value.IntegerValue
636

@<SCITEGIC>MOL_PROPERTY
Conf_Id
SciTegic.value.IntegerValue
89

@<SCITEGIC>MOL_PROPERTY
Delta U+W
SciTegic.value.DoubleValue
2.903

@<SCITEGIC>MOL_PROPERTY
U+W
SciTegic.value.DoubleValue
-48.726

@<SCITEGIC>MOL_PROPERTY
Grad RMS
SciTegic.value.DoubleValue
0.000000

@<SCITEGIC>MOL_PROPERTY
U
SciTegic.value.DoubleValue
10.996

@<SCITEGIC>MOL_PROPERTY
W
SciTegic.value.DoubleValue
-59.723

@<SCITEGIC>MOL_PROPERTY
W(PB)
SciTegic.value.DoubleValue
-62.151

@<SCITEGIC>MOL_PROPERTY
W(SA)
SciTegic.value.DoubleValue
2.428

@<SCITEGIC>MOL_PROPERTY
Valence
SciTegic.value.DoubleValue
10.985

@<SCITEGIC>MOL_PROPERTY
Coulomb
SciTegic.value.DoubleValue
-0.995

@<SCITEGIC>MOL_PROPERTY
VdW
SciTegic.value.DoubleValue
1.006

@<SCITEGIC>MOL_PROPERTY
VdW6
SciTegic.value.DoubleValue
-10.062

@<SCITEGIC>MOL_PROPERTY
VdW12
SciTegic.value.DoubleValue
11.069

@<SCITEGIC>MOL_PROPERTY
Bond
SciTegic.value.DoubleValue
0.238

@<SCITEGIC>MOL_PROPERTY
Angle
SciTegic.value.DoubleValue
3.202

@<SCITEGIC>MOL_PROPERTY
Pdih
SciTegic.value.DoubleValue
7.544

@<SCITEGIC>MOL_PROPERTY
Idih
SciTegic.value.DoubleValue
0.001

@<SCITEGIC>MOL_PROPERTY
Tether
SciTegic.value.DoubleValue
0.000

@<TRIPOS>MOLECULE
guest-8_confgen4.mol2 : confsearch ligand conformer 637
          25          24           1
SMALL
USER_CHARGES
 
@<TRIPOS>ATOM
       1    C1      22.399553   21.557046   22.925254 C.2        1 MOL1         0.6168
       2    O1      22.546118   21.417787   21.726761 O.co2      1 MOL1        -0.6703
       3    O2      21.920526   22.553300   23.430841 O.co2      1 MOL1        -0.6703
       4    C2      22.903861   20.447360   23.845862 C.3        1 MOL1        -0.1963
       5    H1      23.718116   20.883919   24.435677 H          1 MOL1         0.0750
       6    H2      23.349869   19.652565   23.235822 H          1 MOL1         0.0750
       7    C3      21.841553   19.852990   24.813233 C.3        1 MOL1        -0.1860
       8    H3      22.373809   19.378392   25.648639 H          1 MOL1         0.0752
       9    H4      21.243943   20.661361   25.257048 H          1 MOL1         0.0752
      10    C4      20.909652   18.787382   24.183969 C.3        1 MOL1        -0.1858
      11    H5      20.332191   18.329735   24.996752 H          1 MOL1         0.0752
      12    H6      21.513510   17.982771   23.742935 H          1 MOL1         0.0752
      13    C5      19.936964   19.350702   23.119576 C.3        1 MOL1        -0.1858
      14    H7      19.373836   20.196037   23.537984 H          1 MOL1         0.0752
      15    H8      20.514884   19.747831   22.276290 H          1 MOL1         0.0752
      16    C6      18.952942   18.294771   22.560929 C.3        1 MOL1        -0.1858
      17    H9      19.516245   17.435400   22.172345 H          1 MOL1         0.0752
      18    H10     18.426118   18.733614   21.702573 H          1 MOL1         0.0752
      19    C7      17.907814   17.812612   23.592758 C.3        1 MOL1        -0.1834
      20    H11     18.404300   17.295256   24.423767 H          1 MOL1         0.0752
      21    H12     17.383607   18.678037   24.021050 H          1 MOL1         0.0752
      22    C8      16.880247   16.857709   22.952164 C.3        1 MOL1        -0.2849
      23    H13     17.374970   15.969030   22.538802 H          1 MOL1         0.0764
      24    H14     16.147353   16.521913   23.697253 H          1 MOL1         0.0764
      25    H15     16.333916   17.355071   22.140070 H          1 MOL1         0.0764
@<TRIPOS>BOND
    1     1     2    1
    2     1     3    2
    3     1     4    1
    4     4     5    1
    5     4     6    1
    6     4     7    1
    7     7     8    1
    8     7     9    1
    9     7    10    1
   10    10    11    1
   11    10    12    1
   12    10    13    1
   13    13    14    1
   14    13    15    1
   15    13    16    1
   16    16    17    1
   17    16    18    1
   18    16    19    1
   19    19    20    1
   20    19    21    1
   21    19    22    1
   22    22    23    1
   23    22    24    1
   24    22    25    1
@<TRIPOS>SUBSTRUCTURE
       1 MOL1            1 RESIDUE      1      MOL     
@<SCITEGIC>MOL_PROPERTY
VConf Rank
SciTegic.value.IntegerValue
637

@<SCITEGIC>MOL_PROPERTY
Conf_Id
SciTegic.value.IntegerValue
114

@<SCITEGIC>MOL_PROPERTY
Delta U+W
SciTegic.value.DoubleValue
2.758

@<SCITEGIC>MOL_PROPERTY
U+W
SciTegic.value.DoubleValue
-48.871

@<SCITEGIC>MOL_PROPERTY
Grad RMS
SciTegic.value.DoubleValue
0.000000

@<SCITEGIC>MOL_PROPERTY
U
SciTegic.value.DoubleValue
11.422

@<SCITEGIC>MOL_PROPERTY
W
SciTegic.value.DoubleValue
-60.293

@<SCITEGIC>MOL_PROPERTY
W(PB)
SciTegic.value.DoubleValue
-62.719

@<SCITEGIC>MOL_PROPERTY
W(SA)
SciTegic.value.DoubleValue
2.425

@<SCITEGIC>MOL_PROPERTY
Valence
SciTegic.value.DoubleValue
10.135

@<SCITEGIC>MOL_PROPERTY
Coulomb
SciTegic.value.DoubleValue
0.369

@<SCITEGIC>MOL_PROPERTY
VdW
SciTegic.value.DoubleValue
0.918

@<SCITEGIC>MOL_PROPERTY
VdW6
SciTegic.value.DoubleValue
-10.482

@<SCITEGIC>MOL_PROPERTY
VdW12
SciTegic.value.DoubleValue
11.400

@<SCITEGIC>MOL_PROPERTY
Bond
SciTegic.value.DoubleValue
0.245

@<SCITEGIC>MOL_PROPERTY
Angle
SciTegic.value.DoubleValue
3.539

@<SCITEGIC>MOL_PROPERTY
Pdih
SciTegic.value.DoubleValue
6.346

@<SCITEGIC>MOL_PROPERTY
Idih
SciTegic.value.DoubleValue
0.006

@<SCITEGIC>MOL_PROPERTY
Tether
SciTegic.value.DoubleValue
0.000

@<TRIPOS>MOLECULE
guest-8_confgen4.mol2 : confsearch ligand conformer 638
          25          24           1
SMALL
USER_CHARGES
 
@<TRIPOS>ATOM
       1    C1      22.727050   17.996926   20.728823 C.2        1 MOL1         0.6168
       2    O1      23.126454   16.905218   21.083382 O.co2      1 MOL1        -0.6703
       3    O2      22.134774   18.190299   19.685313 O.co2      1 MOL1        -0.6703
       4    C2      23.001330   19.195791   21.632394 C.3        1 MOL1        -0.1963
       5    H1      23.363127   20.011295   20.995185 H          1 MOL1         0.0750
       6    H2      23.820363   18.939308   22.315166 H          1 MOL1         0.0750
       7    C3      21.763775   19.675051   22.434732 C.3        1 MOL1        -0.1860
       8    H3      22.014743   20.610700   22.952249 H          1 MOL1         0.0752
       9    H4      20.953651   19.908059   21.731359 H          1 MOL1         0.0752
      10    C4      21.289630   18.628678   23.471817 C.3        1 MOL1        -0.1858
      11    H5      22.141876   18.342628   24.103240 H          1 MOL1         0.0752
      12    H6      20.965336   17.713259   22.957869 H          1 MOL1         0.0752
      13    C5      20.150482   19.136743   24.387729 C.3        1 MOL1        -0.1858
      14    H7      19.988348   18.388000   25.173401 H          1 MOL1         0.0752
      15    H8      20.469021   20.057162   24.895554 H          1 MOL1         0.0752
      16    C6      18.820303   19.387904   23.635343 C.3        1 MOL1        -0.1858
      17    H9      18.504141   18.468119   23.124739 H          1 MOL1         0.0752
      18    H10     18.979831   20.139772   22.852202 H          1 MOL1         0.0752
      19    C7      17.680228   19.888299   24.553096 C.3        1 MOL1        -0.1834
      20    H11     17.997353   20.802051   25.074420 H          1 MOL1         0.0752
      21    H12     16.823233   20.170876   23.926238 H          1 MOL1         0.0752
      22    C8      17.213982   18.836381   25.583139 C.3        1 MOL1        -0.2849
      23    H13     16.343783   19.205642   26.141084 H          1 MOL1         0.0764
      24    H14     16.924518   17.901247   25.086301 H          1 MOL1         0.0764
      25    H15     18.002480   18.610112   26.311481 H          1 MOL1         0.0764
@<TRIPOS>BOND
    1     1     2    1
    2     1     3    2
    3     1     4    1
    4     4     5    1
    5     4     6    1
    6     4     7    1
    7     7     8    1
    8     7     9    1
    9     7    10    1
   10    10    11    1
   11    10    12    1
   12    10    13    1
   13    13    14    1
   14    13    15    1
   15    13    16    1
   16    16    17    1
   17    16    18    1
   18    16    19    1
   19    19    20    1
   20    19    21    1
   21    19    22    1
   22    22    23    1
   23    22    24    1
   24    22    25    1
@<TRIPOS>SUBSTRUCTURE
       1 MOL1            1 RESIDUE      1      MOL     
@<SCITEGIC>MOL_PROPERTY
VConf Rank
SciTegic.value.IntegerValue
638

@<SCITEGIC>MOL_PROPERTY
Conf_Id
SciTegic.value.IntegerValue
87

@<SCITEGIC>MOL_PROPERTY
Delta U+W
SciTegic.value.DoubleValue
1.453

@<SCITEGIC>MOL_PROPERTY
U+W
SciTegic.value.DoubleValue
-50.176

@<SCITEGIC>MOL_PROPERTY
Grad RMS
SciTegic.value.DoubleValue
0.000000

@<SCITEGIC>MOL_PROPERTY
U
SciTegic.value.DoubleValue
9.763

@<SCITEGIC>MOL_PROPERTY
W
SciTegic.value.DoubleValue
-59.940

@<SCITEGIC>MOL_PROPERTY
W(PB)
SciTegic.value.DoubleValue
-62.392

@<SCITEGIC>MOL_PROPERTY
W(SA)
SciTegic.value.DoubleValue
2.452

@<SCITEGIC>MOL_PROPERTY
Valence
SciTegic.value.DoubleValue
8.883

@<SCITEGIC>MOL_PROPERTY
Coulomb
SciTegic.value.DoubleValue
-0.122

@<SCITEGIC>MOL_PROPERTY
VdW
SciTegic.value.DoubleValue
1.003

@<SCITEGIC>MOL_PROPERTY
VdW6
SciTegic.value.DoubleValue
-9.782

@<SCITEGIC>MOL_PROPERTY
VdW12
SciTegic.value.DoubleValue
10.785

@<SCITEGIC>MOL_PROPERTY
Bond
SciTegic.value.DoubleValue
0.212

@<SCITEGIC>MOL_PROPERTY
Angle
SciTegic.value.DoubleValue
2.940

@<SCITEGIC>MOL_PROPERTY
Pdih
SciTegic.value.DoubleValue
5.730

@<SCITEGIC>MOL_PROPERTY
Idih
SciTegic.value.DoubleValue
0.001

@<SCITEGIC>MOL_PROPERTY
Tether
SciTegic.value.DoubleValue
0.000

@<TRIPOS>MOLECULE
guest-8_confgen4.mol2 : confsearch ligand conformer 639
          25          24           1
SMALL
USER_CHARGES
 
@<TRIPOS>ATOM
       1    C1      16.419062   18.439489   24.735329 C.2        1 MOL1         0.6168
       2    O1      16.316028   17.235367   24.608209 O.co2      1 MOL1        -0.6703
       3    O2      15.884678   19.070683   25.625706 O.co2      1 MOL1        -0.6703
       4    C2      17.281517   19.198084   23.732896 C.3        1 MOL1        -0.1963
       5    H1      16.849801   20.197255   23.599633 H          1 MOL1         0.0750
       6    H2      17.213560   18.683574   22.766854 H          1 MOL1         0.0750
       7    C3      18.761318   19.308890   24.175456 C.3        1 MOL1        -0.1860
       8    H3      18.813045   19.818275   25.147564 H          1 MOL1         0.0752
       9    H4      19.164913   18.298132   24.321276 H          1 MOL1         0.0752
      10    C4      19.614280   20.075765   23.138641 C.3        1 MOL1        -0.1858
      11    H5      19.155948   21.056890   22.954395 H          1 MOL1         0.0752
      12    H6      19.595854   19.545862   22.177251 H          1 MOL1         0.0752
      13    C5      21.079575   20.298937   23.589685 C.3        1 MOL1        -0.1858
      14    H7      21.597168   20.898340   22.829295 H          1 MOL1         0.0752
      15    H8      21.079983   20.911677   24.501288 H          1 MOL1         0.0752
      16    C6      21.893358   19.006164   23.862293 C.3        1 MOL1        -0.1858
      17    H9      21.470681   18.487438   24.732657 H          1 MOL1         0.0752
      18    H10     22.913643   19.290158   24.153591 H          1 MOL1         0.0752
      19    C7      21.971805   18.013846   22.676004 C.3        1 MOL1        -0.1834
      20    H11     22.546803   17.133215   22.993451 H          1 MOL1         0.0752
      21    H12     20.968202   17.646414   22.423800 H          1 MOL1         0.0752
      22    C8      22.637743   18.616001   21.419829 C.3        1 MOL1        -0.2849
      23    H13     23.637327   19.004844   21.653425 H          1 MOL1         0.0764
      24    H14     22.745172   17.852708   20.638438 H          1 MOL1         0.0764
      25    H15     22.037546   19.435366   21.004677 H          1 MOL1         0.0764
@<TRIPOS>BOND
    1     1     2    1
    2     1     3    2
    3     1     4    1
    4     4     5    1
    5     4     6    1
    6     4     7    1
    7     7     8    1
    8     7     9    1
    9     7    10    1
   10    10    11    1
   11    10    12    1
   12    10    13    1
   13    13    14    1
   14    13    15    1
   15    13    16    1
   16    16    17    1
   17    16    18    1
   18    16    19    1
   19    19    20    1
   20    19    21    1
   21    19    22    1
   22    22    23    1
   23    22    24    1
   24    22    25    1
@<TRIPOS>SUBSTRUCTURE
       1 MOL1            1 RESIDUE      1      MOL     
@<SCITEGIC>MOL_PROPERTY
VConf Rank
SciTegic.value.IntegerValue
639

@<SCITEGIC>MOL_PROPERTY
Conf_Id
SciTegic.value.IntegerValue
29

@<SCITEGIC>MOL_PROPERTY
Delta U+W
SciTegic.value.DoubleValue
0.850

@<SCITEGIC>MOL_PROPERTY
U+W
SciTegic.value.DoubleValue
-50.780

@<SCITEGIC>MOL_PROPERTY
Grad RMS
SciTegic.value.DoubleValue
0.000000

@<SCITEGIC>MOL_PROPERTY
U
SciTegic.value.DoubleValue
8.646

@<SCITEGIC>MOL_PROPERTY
W
SciTegic.value.DoubleValue
-59.426

@<SCITEGIC>MOL_PROPERTY
W(PB)
SciTegic.value.DoubleValue
-61.868

@<SCITEGIC>MOL_PROPERTY
W(SA)
SciTegic.value.DoubleValue
2.442

@<SCITEGIC>MOL_PROPERTY
Valence
SciTegic.value.DoubleValue
8.924

@<SCITEGIC>MOL_PROPERTY
Coulomb
SciTegic.value.DoubleValue
-1.171

@<SCITEGIC>MOL_PROPERTY
VdW
SciTegic.value.DoubleValue
0.894

@<SCITEGIC>MOL_PROPERTY
VdW6
SciTegic.value.DoubleValue
-10.223

@<SCITEGIC>MOL_PROPERTY
VdW12
SciTegic.value.DoubleValue
11.117

@<SCITEGIC>MOL_PROPERTY
Bond
SciTegic.value.DoubleValue
0.231

@<SCITEGIC>MOL_PROPERTY
Angle
SciTegic.value.DoubleValue
3.232

@<SCITEGIC>MOL_PROPERTY
Pdih
SciTegic.value.DoubleValue
5.461

@<SCITEGIC>MOL_PROPERTY
Idih
SciTegic.value.DoubleValue
0.001

@<SCITEGIC>MOL_PROPERTY
Tether
SciTegic.value.DoubleValue
0.000

@<TRIPOS>MOLECULE
guest-8_confgen4.mol2 : confsearch ligand conformer 640
          25          24           1
SMALL
USER_CHARGES
 
@<TRIPOS>ATOM
       1    C1      19.319737   15.301815   22.864309 C.2        1 MOL1         0.6168
       2    O1      18.127390   15.281097   22.630715 O.co2      1 MOL1        -0.6703
       3    O2      19.907005   14.412361   23.448029 O.co2      1 MOL1        -0.6703
       4    C2      20.119949   16.519894   22.416965 C.3        1 MOL1        -0.1963
       5    H1      19.664892   16.907673   21.497659 H          1 MOL1         0.0750
       6    H2      21.133216   16.186928   22.162201 H          1 MOL1         0.0750
       7    C3      20.176447   17.630971   23.494124 C.3        1 MOL1        -0.1860
       8    H3      19.151393   17.933199   23.746528 H          1 MOL1         0.0752
       9    H4      20.626470   17.226097   24.411020 H          1 MOL1         0.0752
      10    C4      20.986931   18.856372   23.012312 C.3        1 MOL1        -0.1858
      11    H5      20.515161   19.286096   22.118904 H          1 MOL1         0.0752
      12    H6      21.985724   18.523439   22.698961 H          1 MOL1         0.0752
      13    C5      21.155296   19.949578   24.097159 C.3        1 MOL1        -0.1858
      14    H7      21.713173   19.525877   24.943163 H          1 MOL1         0.0752
      15    H8      21.788500   20.752025   23.696519 H          1 MOL1         0.0752
      16    C6      19.833496   20.560948   24.632785 C.3        1 MOL1        -0.1858
      17    H9      20.080424   21.331413   25.375686 H          1 MOL1         0.0752
      18    H10     19.272629   19.791671   25.179509 H          1 MOL1         0.0752
      19    C7      18.911314   21.184233   23.556111 C.3        1 MOL1        -0.1834
      20    H11     18.578477   20.411503   22.850460 H          1 MOL1         0.0752
      21    H12     18.002780   21.558687   24.047286 H          1 MOL1         0.0752
      22    C8      19.573497   22.345643   22.783662 C.3        1 MOL1        -0.2849
      23    H13     20.427165   21.994196   22.190634 H          1 MOL1         0.0764
      24    H14     18.855572   22.806779   22.093252 H          1 MOL1         0.0764
      25    H15     19.928784   23.123157   23.472268 H          1 MOL1         0.0764
@<TRIPOS>BOND
    1     1     2    1
    2     1     3    2
    3     1     4    1
    4     4     5    1
    5     4     6    1
    6     4     7    1
    7     7     8    1
    8     7     9    1
    9     7    10    1
   10    10    11    1
   11    10    12    1
   12    10    13    1
   13    13    14    1
   14    13    15    1
   15    13    16    1
   16    16    17    1
   17    16    18    1
   18    16    19    1
   19    19    20    1
   20    19    21    1
   21    19    22    1
   22    22    23    1
   23    22    24    1
   24    22    25    1
@<TRIPOS>SUBSTRUCTURE
       1 MOL1            1 RESIDUE      1      MOL     
@<SCITEGIC>MOL_PROPERTY
VConf Rank
SciTegic.value.IntegerValue
640

@<SCITEGIC>MOL_PROPERTY
Conf_Id
SciTegic.value.IntegerValue
30

@<SCITEGIC>MOL_PROPERTY
Delta U+W
SciTegic.value.DoubleValue
0.843

@<SCITEGIC>MOL_PROPERTY
U+W
SciTegic.value.DoubleValue
-50.787

@<SCITEGIC>MOL_PROPERTY
Grad RMS
SciTegic.value.DoubleValue
0.000000

@<SCITEGIC>MOL_PROPERTY
U
SciTegic.value.DoubleValue
8.647

@<SCITEGIC>MOL_PROPERTY
W
SciTegic.value.DoubleValue
-59.434

@<SCITEGIC>MOL_PROPERTY
W(PB)
SciTegic.value.DoubleValue
-61.861

@<SCITEGIC>MOL_PROPERTY
W(SA)
SciTegic.value.DoubleValue
2.428

@<SCITEGIC>MOL_PROPERTY
Valence
SciTegic.value.DoubleValue
8.924

@<SCITEGIC>MOL_PROPERTY
Coulomb
SciTegic.value.DoubleValue
-1.170

@<SCITEGIC>MOL_PROPERTY
VdW
SciTegic.value.DoubleValue
0.894

@<SCITEGIC>MOL_PROPERTY
VdW6
SciTegic.value.DoubleValue
-10.224

@<SCITEGIC>MOL_PROPERTY
VdW12
SciTegic.value.DoubleValue
11.118

@<SCITEGIC>MOL_PROPERTY
Bond
SciTegic.value.DoubleValue
0.231

@<SCITEGIC>MOL_PROPERTY
Angle
SciTegic.value.DoubleValue
3.232

@<SCITEGIC>MOL_PROPERTY
Pdih
SciTegic.value.DoubleValue
5.460

@<SCITEGIC>MOL_PROPERTY
Idih
SciTegic.value.DoubleValue
0.000

@<SCITEGIC>MOL_PROPERTY
Tether
SciTegic.value.DoubleValue
0.000

@<TRIPOS>MOLECULE
guest-8_confgen4.mol2 : confsearch ligand conformer 641
          25          24           1
SMALL
USER_CHARGES
 
@<TRIPOS>ATOM
       1    C1      23.801324   22.038419   23.275273 C.2        1 MOL1         0.6168
       2    O1      24.033542   21.802457   24.445315 O.co2      1 MOL1        -0.6703
       3    O2      24.470514   22.800502   22.606295 O.co2      1 MOL1        -0.6703
       4    C2      22.617405   21.359330   22.584931 C.3        1 MOL1        -0.1963
       5    H1      23.012230   20.815050   21.719032 H          1 MOL1         0.0750
       6    H2      21.966954   22.151831   22.196650 H          1 MOL1         0.0750
       7    C3      21.793315   20.395354   23.479382 C.3        1 MOL1        -0.1860
       8    H3      22.452401   19.607676   23.870119 H          1 MOL1         0.0752
       9    H4      21.406125   20.945667   24.348143 H          1 MOL1         0.0752
      10    C4      20.620615   19.754898   22.705279 C.3        1 MOL1        -0.1858
      11    H5      21.010060   19.205363   21.837247 H          1 MOL1         0.0752
      12    H6      19.963120   20.544189   22.315589 H          1 MOL1         0.0752
      13    C5      19.802245   18.796379   23.596906 C.3        1 MOL1        -0.1858
      14    H7      20.459482   18.006954   23.986716 H          1 MOL1         0.0752
      15    H8      19.412629   19.345651   24.465009 H          1 MOL1         0.0752
      16    C6      18.629540   18.155650   22.823509 C.3        1 MOL1        -0.1858
      17    H9      19.018939   17.606275   21.955380 H          1 MOL1         0.0752
      18    H10     17.972107   18.944903   22.433693 H          1 MOL1         0.0752
      19    C7      17.811486   17.197501   23.714631 C.3        1 MOL1        -0.1834
      20    H11     18.465528   16.405432   24.104943 H          1 MOL1         0.0752
      21    H12     17.418698   17.744045   24.583248 H          1 MOL1         0.0752
      22    C8      16.641486   16.559762   22.938750 C.3        1 MOL1        -0.2849
      23    H13     17.008230   15.980014   22.081552 H          1 MOL1         0.0764
      24    H14     16.071063   15.881999   23.587087 H          1 MOL1         0.0764
      25    H15     15.953511   17.328694   22.563475 H          1 MOL1         0.0764
@<TRIPOS>BOND
    1     1     2    1
    2     1     3    2
    3     1     4    1
    4     4     5    1
    5     4     6    1
    6     4     7    1
    7     7     8    1
    8     7     9    1
    9     7    10    1
   10    10    11    1
   11    10    12    1
   12    10    13    1
   13    13    14    1
   14    13    15    1
   15    13    16    1
   16    16    17    1
   17    16    18    1
   18    16    19    1
   19    19    20    1
   20    19    21    1
   21    19    22    1
   22    22    23    1
   23    22    24    1
   24    22    25    1
@<TRIPOS>SUBSTRUCTURE
       1 MOL1            1 RESIDUE      1      MOL     
@<SCITEGIC>MOL_PROPERTY
VConf Rank
SciTegic.value.IntegerValue
641

@<SCITEGIC>MOL_PROPERTY
Conf_Id
SciTegic.value.IntegerValue
0

@<SCITEGIC>MOL_PROPERTY
Delta U+W
SciTegic.value.DoubleValue
0.000

@<SCITEGIC>MOL_PROPERTY
U+W
SciTegic.value.DoubleValue
-51.629

@<SCITEGIC>MOL_PROPERTY
Grad RMS
SciTegic.value.DoubleValue
0.000000

@<SCITEGIC>MOL_PROPERTY
U
SciTegic.value.DoubleValue
6.586

@<SCITEGIC>MOL_PROPERTY
W
SciTegic.value.DoubleValue
-58.216

@<SCITEGIC>MOL_PROPERTY
W(PB)
SciTegic.value.DoubleValue
-60.757

@<SCITEGIC>MOL_PROPERTY
W(SA)
SciTegic.value.DoubleValue
2.541

@<SCITEGIC>MOL_PROPERTY
Valence
SciTegic.value.DoubleValue
8.027

@<SCITEGIC>MOL_PROPERTY
Coulomb
SciTegic.value.DoubleValue
-2.892

@<SCITEGIC>MOL_PROPERTY
VdW
SciTegic.value.DoubleValue
1.451

@<SCITEGIC>MOL_PROPERTY
VdW6
SciTegic.value.DoubleValue
-7.931

@<SCITEGIC>MOL_PROPERTY
VdW12
SciTegic.value.DoubleValue
9.383

@<SCITEGIC>MOL_PROPERTY
Bond
SciTegic.value.DoubleValue
0.149

@<SCITEGIC>MOL_PROPERTY
Angle
SciTegic.value.DoubleValue
2.726

@<SCITEGIC>MOL_PROPERTY
Pdih
SciTegic.value.DoubleValue
5.152

@<SCITEGIC>MOL_PROPERTY
Idih
SciTegic.value.DoubleValue
0.000

@<SCITEGIC>MOL_PROPERTY
Tether
SciTegic.value.DoubleValue
0.000

@<TRIPOS>MOLECULE
guest-8_confgen4.mol2 : confsearch ligand conformer 642
          25          24           1
SMALL
USER_CHARGES
 
@<TRIPOS>ATOM
       1    C1      24.029986   18.800434   20.604269 C.2        1 MOL1         0.6168
       2    O1      24.367243   19.831823   20.057356 O.co2      1 MOL1        -0.6703
       3    O2      24.814002   17.961645   21.002233 O.co2      1 MOL1        -0.6703
       4    C2      22.541369   18.555843   20.823986 C.3        1 MOL1        -0.1963
       5    H1      22.362363   17.475188   20.771568 H          1 MOL1         0.0750
       6    H2      21.994222   19.015940   19.992393 H          1 MOL1         0.0750
       7    C3      22.032649   19.117284   22.174546 C.3        1 MOL1        -0.1860
       8    H3      22.599358   18.656564   22.995625 H          1 MOL1         0.0752
       9    H4      22.231376   20.197255   22.216520 H          1 MOL1         0.0752
      10    C4      20.523688   18.857440   22.373395 C.3        1 MOL1        -0.1858
      11    H5      20.328239   17.777125   22.329802 H          1 MOL1         0.0752
      12    H6      19.960171   19.318065   21.550321 H          1 MOL1         0.0752
      13    C5      20.019400   19.418397   23.720425 C.3        1 MOL1        -0.1858
      14    H7      20.582716   18.957867   24.543645 H          1 MOL1         0.0752
      15    H8      20.214736   20.498688   23.764214 H          1 MOL1         0.0752
      16    C6      18.510502   19.158976   23.919943 C.3        1 MOL1        -0.1858
      17    H9      18.314843   18.078741   23.876310 H          1 MOL1         0.0752
      18    H10     17.946899   19.619406   23.096868 H          1 MOL1         0.0752
      19    C7      18.006241   19.719691   25.266302 C.3        1 MOL1        -0.1834
      20    H11     18.566532   19.259941   26.092251 H          1 MOL1         0.0752
      21    H12     18.198560   20.800589   25.312806 H          1 MOL1         0.0752
      22    C8      16.499178   19.458629   25.461771 C.3        1 MOL1        -0.2849
      23    H13     16.157875   19.863585   26.423338 H          1 MOL1         0.0764
      24    H14     15.911563   19.934648   24.665836 H          1 MOL1         0.0764
      25    H15     16.282311   18.382408   25.451147 H          1 MOL1         0.0764
@<TRIPOS>BOND
    1     1     2    1
    2     1     3    2
    3     1     4    1
    4     4     5    1
    5     4     6    1
    6     4     7    1
    7     7     8    1
    8     7     9    1
    9     7    10    1
   10    10    11    1
   11    10    12    1
   12    10    13    1
   13    13    14    1
   14    13    15    1
   15    13    16    1
   16    16    17    1
   17    16    18    1
   18    16    19    1
   19    19    20    1
   20    19    21    1
   21    19    22    1
   22    22    23    1
   23    22    24    1
   24    22    25    1
@<TRIPOS>SUBSTRUCTURE
       1 MOL1            1 RESIDUE      1      MOL     
@<SCITEGIC>MOL_PROPERTY
VConf Rank
SciTegic.value.IntegerValue
642

@<SCITEGIC>MOL_PROPERTY
Conf_Id
SciTegic.value.IntegerValue
27

@<SCITEGIC>MOL_PROPERTY
Delta U+W
SciTegic.value.DoubleValue
-1.297

@<SCITEGIC>MOL_PROPERTY
U+W
SciTegic.value.DoubleValue
-52.926

@<SCITEGIC>MOL_PROPERTY
Grad RMS
SciTegic.value.DoubleValue
0.000000

@<SCITEGIC>MOL_PROPERTY
U
SciTegic.value.DoubleValue
5.617

@<SCITEGIC>MOL_PROPERTY
W
SciTegic.value.DoubleValue
-58.543

@<SCITEGIC>MOL_PROPERTY
W(PB)
SciTegic.value.DoubleValue
-61.065

@<SCITEGIC>MOL_PROPERTY
W(SA)
SciTegic.value.DoubleValue
2.522

@<SCITEGIC>MOL_PROPERTY
Valence
SciTegic.value.DoubleValue
7.531

@<SCITEGIC>MOL_PROPERTY
Coulomb
SciTegic.value.DoubleValue
-2.818

@<SCITEGIC>MOL_PROPERTY
VdW
SciTegic.value.DoubleValue
0.904

@<SCITEGIC>MOL_PROPERTY
VdW6
SciTegic.value.DoubleValue
-7.640

@<SCITEGIC>MOL_PROPERTY
VdW12
SciTegic.value.DoubleValue
8.544

@<SCITEGIC>MOL_PROPERTY
Bond
SciTegic.value.DoubleValue
0.115

@<SCITEGIC>MOL_PROPERTY
Angle
SciTegic.value.DoubleValue
2.271

@<SCITEGIC>MOL_PROPERTY
Pdih
SciTegic.value.DoubleValue
5.144

@<SCITEGIC>MOL_PROPERTY
Idih
SciTegic.value.DoubleValue
0.001

@<SCITEGIC>MOL_PROPERTY
Tether
SciTegic.value.DoubleValue
0.000

@<TRIPOS>MOLECULE
guest-8_confgen4.mol2 : confsearch ligand conformer 643
          25          24           1
SMALL
USER_CHARGES
 
@<TRIPOS>ATOM
       1    C1      21.896424   20.383058   19.910633 C.2        1 MOL1         0.6168
       2    O1      21.305682   21.315601   19.402240 O.co2      1 MOL1        -0.6703
       3    O2      23.017394   20.468071   20.372328 O.co2      1 MOL1        -0.6703
       4    C2      21.196659   19.027593   19.955441 C.3        1 MOL1        -0.1963
       5    H1      21.952515   18.248394   20.111570 H          1 MOL1         0.0750
       6    H2      20.759098   18.851648   18.965710 H          1 MOL1         0.0750
       7    C3      20.090034   18.924977   21.037013 C.3        1 MOL1        -0.1860
       8    H3      19.355943   19.728317   20.883954 H          1 MOL1         0.0752
       9    H4      19.551940   17.976179   20.907457 H          1 MOL1         0.0752
      10    C4      20.654485   18.998518   22.473591 C.3        1 MOL1        -0.1858
      11    H5      21.179592   19.953096   22.616649 H          1 MOL1         0.0752
      12    H6      21.397478   18.202052   22.617213 H          1 MOL1         0.0752
      13    C5      19.540121   18.862366   23.533443 C.3        1 MOL1        -0.1858
      14    H7      18.797660   19.659226   23.389034 H          1 MOL1         0.0752
      15    H8      19.015587   17.907107   23.394224 H          1 MOL1         0.0752
      16    C6      20.103291   18.936613   24.969126 C.3        1 MOL1        -0.1858
      17    H9      20.627942   19.891835   25.108480 H          1 MOL1         0.0752
      18    H10     20.846045   18.140049   25.113638 H          1 MOL1         0.0752
      19    C7      18.989747   18.801094   26.028855 C.3        1 MOL1        -0.1834
      20    H11     18.245820   19.597548   25.888435 H          1 MOL1         0.0752
      21    H12     18.463969   17.845709   25.893668 H          1 MOL1         0.0752
      22    C8      19.556249   18.875927   27.461014 C.3        1 MOL1        -0.2849
      23    H13     20.060859   19.835498   27.634188 H          1 MOL1         0.0764
      24    H14     18.751411   18.777901   28.201087 H          1 MOL1         0.0764
      25    H15     20.280700   18.070496   27.639467 H          1 MOL1         0.0764
@<TRIPOS>BOND
    1     1     2    1
    2     1     3    2
    3     1     4    1
    4     4     5    1
    5     4     6    1
    6     4     7    1
    7     7     8    1
    8     7     9    1
    9     7    10    1
   10    10    11    1
   11    10    12    1
   12    10    13    1
   13    13    14    1
   14    13    15    1
   15    13    16    1
   16    16    17    1
   17    16    18    1
   18    16    19    1
   19    19    20    1
   20    19    21    1
   21    19    22    1
   22    22    23    1
   23    22    24    1
   24    22    25    1
@<TRIPOS>SUBSTRUCTURE
       1 MOL1            1 RESIDUE      1      MOL     
@<SCITEGIC>MOL_PROPERTY
VConf Rank
SciTegic.value.IntegerValue
643

@<SCITEGIC>MOL_PROPERTY
Conf_Id
SciTegic.value.IntegerValue
37

@<SCITEGIC>MOL_PROPERTY
Delta U+W
SciTegic.value.DoubleValue
-0.230

@<SCITEGIC>MOL_PROPERTY
U+W
SciTegic.value.DoubleValue
-51.860

@<SCITEGIC>MOL_PROPERTY
Grad RMS
SciTegic.value.DoubleValue
0.000000

@<SCITEGIC>MOL_PROPERTY
U
SciTegic.value.DoubleValue
7.816

@<SCITEGIC>MOL_PROPERTY
W
SciTegic.value.DoubleValue
-59.675

@<SCITEGIC>MOL_PROPERTY
W(PB)
SciTegic.value.DoubleValue
-62.180

@<SCITEGIC>MOL_PROPERTY
W(SA)
SciTegic.value.DoubleValue
2.505

@<SCITEGIC>MOL_PROPERTY
Valence
SciTegic.value.DoubleValue
7.785

@<SCITEGIC>MOL_PROPERTY
Coulomb
SciTegic.value.DoubleValue
-0.713

@<SCITEGIC>MOL_PROPERTY
VdW
SciTegic.value.DoubleValue
0.744

@<SCITEGIC>MOL_PROPERTY
VdW6
SciTegic.value.DoubleValue
-8.514

@<SCITEGIC>MOL_PROPERTY
VdW12
SciTegic.value.DoubleValue
9.259

@<SCITEGIC>MOL_PROPERTY
Bond
SciTegic.value.DoubleValue
0.136

@<SCITEGIC>MOL_PROPERTY
Angle
SciTegic.value.DoubleValue
2.433

@<SCITEGIC>MOL_PROPERTY
Pdih
SciTegic.value.DoubleValue
5.216

@<SCITEGIC>MOL_PROPERTY
Idih
SciTegic.value.DoubleValue
0.000

@<SCITEGIC>MOL_PROPERTY
Tether
SciTegic.value.DoubleValue
0.000

@<TRIPOS>MOLECULE
guest-8_confgen4.mol2 : confsearch ligand conformer 644
          25          24           1
SMALL
USER_CHARGES
 
@<TRIPOS>ATOM
       1    C1      18.337326   22.773212   24.630746 C.2        1 MOL1         0.6168
       2    O1      17.911320   22.710213   25.767243 O.co2      1 MOL1        -0.6703
       3    O2      17.628992   22.917263   23.653773 O.co2      1 MOL1        -0.6703
       4    C2      19.846474   22.682505   24.422874 C.3        1 MOL1        -0.1963
       5    H1      20.319321   23.339707   25.162120 H          1 MOL1         0.0750
       6    H2      20.088816   23.090555   23.434132 H          1 MOL1         0.0750
       7    C3      20.417207   21.247568   24.564884 C.3        1 MOL1        -0.1860
       8    H3      21.514236   21.296055   24.537964 H          1 MOL1         0.0752
       9    H4      20.142614   20.842411   25.548814 H          1 MOL1         0.0752
      10    C4      19.921731   20.298022   23.451046 C.3        1 MOL1        -0.1858
      11    H5      20.186834   20.713976   22.469350 H          1 MOL1         0.0752
      12    H6      18.825425   20.230610   23.482540 H          1 MOL1         0.0752
      13    C5      20.526723   18.884757   23.593501 C.3        1 MOL1        -0.1858
      14    H7      21.622943   18.949358   23.559349 H          1 MOL1         0.0752
      15    H8      20.260991   18.469611   24.575401 H          1 MOL1         0.0752
      16    C6      20.031536   17.935213   22.481290 C.3        1 MOL1        -0.1858
      17    H9      20.296914   18.350322   21.499282 H          1 MOL1         0.0752
      18    H10     18.935270   17.870602   22.515224 H          1 MOL1         0.0752
      19    C7      20.635503   16.522297   22.623616 C.3        1 MOL1        -0.1834
      20    H11     21.732116   16.582880   22.588282 H          1 MOL1         0.0752
      21    H12     20.370363   16.103146   23.604175 H          1 MOL1         0.0752
      22    C8      20.138509   15.577282   21.511165 C.3        1 MOL1        -0.2849
      23    H13     20.418022   15.956673   20.519535 H          1 MOL1         0.0764
      24    H14     20.577476   14.577880   21.627718 H          1 MOL1         0.0764
      25    H15     19.045994   15.473396   21.543045 H          1 MOL1         0.0764
@<TRIPOS>BOND
    1     1     2    1
    2     1     3    2
    3     1     4    1
    4     4     5    1
    5     4     6    1
    6     4     7    1
    7     7     8    1
    8     7     9    1
    9     7    10    1
   10    10    11    1
   11    10    12    1
   12    10    13    1
   13    13    14    1
   14    13    15    1
   15    13    16    1
   16    16    17    1
   17    16    18    1
   18    16    19    1
   19    19    20    1
   20    19    21    1
   21    19    22    1
   22    22    23    1
   23    22    24    1
   24    22    25    1
@<TRIPOS>SUBSTRUCTURE
       1 MOL1            1 RESIDUE      1      MOL     
@<SCITEGIC>MOL_PROPERTY
VConf Rank
SciTegic.value.IntegerValue
644

@<SCITEGIC>MOL_PROPERTY
Conf_Id
SciTegic.value.IntegerValue
54

@<SCITEGIC>MOL_PROPERTY
Delta U+W
SciTegic.value.DoubleValue
-0.224

@<SCITEGIC>MOL_PROPERTY
U+W
SciTegic.value.DoubleValue
-51.854

@<SCITEGIC>MOL_PROPERTY
Grad RMS
SciTegic.value.DoubleValue
0.000000

@<SCITEGIC>MOL_PROPERTY
U
SciTegic.value.DoubleValue
7.816

@<SCITEGIC>MOL_PROPERTY
W
SciTegic.value.DoubleValue
-59.670

@<SCITEGIC>MOL_PROPERTY
W(PB)
SciTegic.value.DoubleValue
-62.157

@<SCITEGIC>MOL_PROPERTY
W(SA)
SciTegic.value.DoubleValue
2.487

@<SCITEGIC>MOL_PROPERTY
Valence
SciTegic.value.DoubleValue
7.785

@<SCITEGIC>MOL_PROPERTY
Coulomb
SciTegic.value.DoubleValue
-0.713

@<SCITEGIC>MOL_PROPERTY
VdW
SciTegic.value.DoubleValue
0.744

@<SCITEGIC>MOL_PROPERTY
VdW6
SciTegic.value.DoubleValue
-8.515

@<SCITEGIC>MOL_PROPERTY
VdW12
SciTegic.value.DoubleValue
9.259

@<SCITEGIC>MOL_PROPERTY
Bond
SciTegic.value.DoubleValue
0.136

@<SCITEGIC>MOL_PROPERTY
Angle
SciTegic.value.DoubleValue
2.433

@<SCITEGIC>MOL_PROPERTY
Pdih
SciTegic.value.DoubleValue
5.215

@<SCITEGIC>MOL_PROPERTY
Idih
SciTegic.value.DoubleValue
0.000

@<SCITEGIC>MOL_PROPERTY
Tether
SciTegic.value.DoubleValue
0.000

@<TRIPOS>MOLECULE
guest-8_confgen4.mol2 : confsearch ligand conformer 645
          25          24           1
SMALL
USER_CHARGES
 
@<TRIPOS>ATOM
       1    C1      16.732675   18.789955   21.132566 C.2        1 MOL1         0.6168
       2    O1      16.188914   17.788292   21.554519 O.co2      1 MOL1        -0.6703
       3    O2      16.168302   19.858791   21.005358 O.co2      1 MOL1        -0.6703
       4    C2      18.199674   18.698189   20.721862 C.3        1 MOL1        -0.1963
       5    H1      18.297817   19.191938   19.747927 H          1 MOL1         0.0750
       6    H2      18.455828   17.642667   20.569912 H          1 MOL1         0.0750
       7    C3      19.181115   19.347292   21.732359 C.3        1 MOL1        -0.1860
       8    H3      20.180070   19.370117   21.279177 H          1 MOL1         0.0752
       9    H4      18.886817   20.391722   21.905432 H          1 MOL1         0.0752
      10    C4      19.235113   18.587028   23.079590 C.3        1 MOL1        -0.1858
      11    H5      19.573524   17.555640   22.910786 H          1 MOL1         0.0752
      12    H6      18.219407   18.514844   23.492034 H          1 MOL1         0.0752
      13    C5      20.140092   19.263434   24.137154 C.3        1 MOL1        -0.1858
      14    H7      19.813007   20.300596   24.291712 H          1 MOL1         0.0752
      15    H8      19.989750   18.744423   25.092243 H          1 MOL1         0.0752
      16    C6      21.644823   19.238097   23.771132 C.3        1 MOL1        -0.1858
      17    H9      21.798846   19.762949   22.819984 H          1 MOL1         0.0752
      18    H10     21.970099   18.201080   23.611734 H          1 MOL1         0.0752
      19    C7      22.547205   19.905180   24.835648 C.3        1 MOL1        -0.1834
      20    H11     23.570008   19.968332   24.439252 H          1 MOL1         0.0752
      21    H12     22.217039   20.939068   25.007011 H          1 MOL1         0.0752
      22    C8      22.583168   19.140979   26.177156 C.3        1 MOL1        -0.2849
      23    H13     21.605464   19.155699   26.674432 H          1 MOL1         0.0764
      24    H14     22.877411   18.094309   26.025455 H          1 MOL1         0.0764
      25    H15     23.309200   19.600116   26.860512 H          1 MOL1         0.0764
@<TRIPOS>BOND
    1     1     2    1
    2     1     3    2
    3     1     4    1
    4     4     5    1
    5     4     6    1
    6     4     7    1
    7     7     8    1
    8     7     9    1
    9     7    10    1
   10    10    11    1
   11    10    12    1
   12    10    13    1
   13    13    14    1
   14    13    15    1
   15    13    16    1
   16    16    17    1
   17    16    18    1
   18    16    19    1
   19    19    20    1
   20    19    21    1
   21    19    22    1
   22    22    23    1
   23    22    24    1
   24    22    25    1
@<TRIPOS>SUBSTRUCTURE
       1 MOL1            1 RESIDUE      1      MOL     
@<SCITEGIC>MOL_PROPERTY
VConf Rank
SciTegic.value.IntegerValue
645

@<SCITEGIC>MOL_PROPERTY
Conf_Id
SciTegic.value.IntegerValue
101

@<SCITEGIC>MOL_PROPERTY
Delta U+W
SciTegic.value.DoubleValue
1.534

@<SCITEGIC>MOL_PROPERTY
U+W
SciTegic.value.DoubleValue
-50.095

@<SCITEGIC>MOL_PROPERTY
Grad RMS
SciTegic.value.DoubleValue
0.000000

@<SCITEGIC>MOL_PROPERTY
U
SciTegic.value.DoubleValue
9.416

@<SCITEGIC>MOL_PROPERTY
W
SciTegic.value.DoubleValue
-59.512

@<SCITEGIC>MOL_PROPERTY
W(PB)
SciTegic.value.DoubleValue
-61.988

@<SCITEGIC>MOL_PROPERTY
W(SA)
SciTegic.value.DoubleValue
2.476

@<SCITEGIC>MOL_PROPERTY
Valence
SciTegic.value.DoubleValue
8.939

@<SCITEGIC>MOL_PROPERTY
Coulomb
SciTegic.value.DoubleValue
-0.615

@<SCITEGIC>MOL_PROPERTY
VdW
SciTegic.value.DoubleValue
1.092

@<SCITEGIC>MOL_PROPERTY
VdW6
SciTegic.value.DoubleValue
-9.710

@<SCITEGIC>MOL_PROPERTY
VdW12
SciTegic.value.DoubleValue
10.802

@<SCITEGIC>MOL_PROPERTY
Bond
SciTegic.value.DoubleValue
0.216

@<SCITEGIC>MOL_PROPERTY
Angle
SciTegic.value.DoubleValue
2.979

@<SCITEGIC>MOL_PROPERTY
Pdih
SciTegic.value.DoubleValue
5.743

@<SCITEGIC>MOL_PROPERTY
Idih
SciTegic.value.DoubleValue
0.000

@<SCITEGIC>MOL_PROPERTY
Tether
SciTegic.value.DoubleValue
0.000

@<TRIPOS>MOLECULE
guest-8_confgen4.mol2 : confsearch ligand conformer 646
          25          24           1
SMALL
USER_CHARGES
 
@<TRIPOS>ATOM
       1    C1      18.757900   18.664906   27.206760 C.2        1 MOL1         0.6168
       2    O1      19.385180   19.431977   27.910220 O.co2      1 MOL1        -0.6703
       3    O2      17.693281   18.174776   27.527911 O.co2      1 MOL1        -0.6703
       4    C2      19.326808   18.315674   25.836159 C.3        1 MOL1        -0.1963
       5    H1      19.018400   17.292423   25.590841 H          1 MOL1         0.0750
       6    H2      20.419198   18.315414   25.920100 H          1 MOL1         0.0750
       7    C3      18.861828   19.295212   24.727171 C.3        1 MOL1        -0.1860
       8    H3      17.764099   19.342984   24.738896 H          1 MOL1         0.0752
       9    H4      19.218322   20.308519   24.958301 H          1 MOL1         0.0752
      10    C4      19.323249   18.889812   23.306802 C.3        1 MOL1        -0.1858
      11    H5      18.829661   19.555921   22.587664 H          1 MOL1         0.0752
      12    H6      18.974095   17.872950   23.081745 H          1 MOL1         0.0752
      13    C5      20.857139   18.971916   23.110986 C.3        1 MOL1        -0.1858
      14    H7      21.206006   19.988315   23.335132 H          1 MOL1         0.0752
      15    H8      21.353469   18.313247   23.834539 H          1 MOL1         0.0752
      16    C6      21.323039   18.553059   21.693294 C.3        1 MOL1        -0.1858
      17    H9      21.040743   17.505446   21.521560 H          1 MOL1         0.0752
      18    H10     22.420807   18.579114   21.663387 H          1 MOL1         0.0752
      19    C7      20.773664   19.414600   20.529080 C.3        1 MOL1        -0.1834
      20    H11     21.170049   19.017802   19.584371 H          1 MOL1         0.0752
      21    H12     19.682310   19.314200   20.464195 H          1 MOL1         0.0752
      22    C8      21.154183   20.906959   20.638676 C.3        1 MOL1        -0.2849
      23    H13     22.241258   21.029738   20.729066 H          1 MOL1         0.0764
      24    H14     20.824433   21.454195   19.746171 H          1 MOL1         0.0764
      25    H15     20.680180   21.375965   21.510131 H          1 MOL1         0.0764
@<TRIPOS>BOND
    1     1     2    1
    2     1     3    2
    3     1     4    1
    4     4     5    1
    5     4     6    1
    6     4     7    1
    7     7     8    1
    8     7     9    1
    9     7    10    1
   10    10    11    1
   11    10    12    1
   12    10    13    1
   13    13    14    1
   14    13    15    1
   15    13    16    1
   16    16    17    1
   17    16    18    1
   18    16    19    1
   19    19    20    1
   20    19    21    1
   21    19    22    1
   22    22    23    1
   23    22    24    1
   24    22    25    1
@<TRIPOS>SUBSTRUCTURE
       1 MOL1            1 RESIDUE      1      MOL     
@<SCITEGIC>MOL_PROPERTY
VConf Rank
SciTegic.value.IntegerValue
646

@<SCITEGIC>MOL_PROPERTY
Conf_Id
SciTegic.value.IntegerValue
75

@<SCITEGIC>MOL_PROPERTY
Delta U+W
SciTegic.value.DoubleValue
1.014

@<SCITEGIC>MOL_PROPERTY
U+W
SciTegic.value.DoubleValue
-50.615

@<SCITEGIC>MOL_PROPERTY
Grad RMS
SciTegic.value.DoubleValue
0.000000

@<SCITEGIC>MOL_PROPERTY
U
SciTegic.value.DoubleValue
8.474

@<SCITEGIC>MOL_PROPERTY
W
SciTegic.value.DoubleValue
-59.089

@<SCITEGIC>MOL_PROPERTY
W(PB)
SciTegic.value.DoubleValue
-61.530

@<SCITEGIC>MOL_PROPERTY
W(SA)
SciTegic.value.DoubleValue
2.441

@<SCITEGIC>MOL_PROPERTY
Valence
SciTegic.value.DoubleValue
9.080

@<SCITEGIC>MOL_PROPERTY
Coulomb
SciTegic.value.DoubleValue
-1.772

@<SCITEGIC>MOL_PROPERTY
VdW
SciTegic.value.DoubleValue
1.165

@<SCITEGIC>MOL_PROPERTY
VdW6
SciTegic.value.DoubleValue
-9.830

@<SCITEGIC>MOL_PROPERTY
VdW12
SciTegic.value.DoubleValue
10.996

@<SCITEGIC>MOL_PROPERTY
Bond
SciTegic.value.DoubleValue
0.240

@<SCITEGIC>MOL_PROPERTY
Angle
SciTegic.value.DoubleValue
3.225

@<SCITEGIC>MOL_PROPERTY
Pdih
SciTegic.value.DoubleValue
5.615

@<SCITEGIC>MOL_PROPERTY
Idih
SciTegic.value.DoubleValue
0.001

@<SCITEGIC>MOL_PROPERTY
Tether
SciTegic.value.DoubleValue
0.000

@<TRIPOS>MOLECULE
guest-8_confgen4.mol2 : confsearch ligand conformer 647
          25          24           1
SMALL
USER_CHARGES
 
@<TRIPOS>ATOM
       1    C1      20.454055   16.715236   26.711123 C.2        1 MOL1         0.6168
       2    O1      20.719822   17.424396   27.661445 O.co2      1 MOL1        -0.6703
       3    O2      19.896126   15.640101   26.808434 O.co2      1 MOL1        -0.6703
       4    C2      20.821882   17.211659   25.317442 C.3        1 MOL1        -0.1963
       5    H1      21.060293   16.339446   24.696988 H          1 MOL1         0.0750
       6    H2      21.736580   17.810960   25.399732 H          1 MOL1         0.0750
       7    C3      19.694731   18.044456   24.658608 C.3        1 MOL1        -0.1860
       8    H3      18.782564   17.434999   24.595295 H          1 MOL1         0.0752
       9    H4      19.459092   18.906162   25.298508 H          1 MOL1         0.0752
      10    C4      20.091801   18.536569   23.249953 C.3        1 MOL1        -0.1858
      11    H5      20.326849   17.672099   22.614140 H          1 MOL1         0.0752
      12    H6      21.008540   19.134004   23.319769 H          1 MOL1         0.0752
      13    C5      18.960521   19.362671   22.593830 C.3        1 MOL1        -0.1858
      14    H7      18.071945   18.721725   22.512969 H          1 MOL1         0.0752
      15    H8      18.674414   20.202146   23.242091 H          1 MOL1         0.0752
      16    C6      19.321039   19.883010   21.179016 C.3        1 MOL1        -0.1858
      17    H9      18.412276   19.852819   20.562488 H          1 MOL1         0.0752
      18    H10     20.033840   19.202967   20.692918 H          1 MOL1         0.0752
      19    C7      19.860556   21.334369   21.141834 C.3        1 MOL1        -0.1834
      20    H11     20.004425   21.625854   20.092305 H          1 MOL1         0.0752
      21    H12     19.103981   22.018864   21.549631 H          1 MOL1         0.0752
      22    C8      21.191158   21.534049   21.896816 C.3        1 MOL1        -0.2849
      23    H13     21.949208   20.816949   21.556096 H          1 MOL1         0.0764
      24    H14     21.580995   22.545869   21.726515 H          1 MOL1         0.0764
      25    H15     21.054487   21.410670   22.978354 H          1 MOL1         0.0764
@<TRIPOS>BOND
    1     1     2    1
    2     1     3    2
    3     1     4    1
    4     4     5    1
    5     4     6    1
    6     4     7    1
    7     7     8    1
    8     7     9    1
    9     7    10    1
   10    10    11    1
   11    10    12    1
   12    10    13    1
   13    13    14    1
   14    13    15    1
   15    13    16    1
   16    16    17    1
   17    16    18    1
   18    16    19    1
   19    19    20    1
   20    19    21    1
   21    19    22    1
   22    22    23    1
   23    22    24    1
   24    22    25    1
@<TRIPOS>SUBSTRUCTURE
       1 MOL1            1 RESIDUE      1      MOL     
@<SCITEGIC>MOL_PROPERTY
VConf Rank
SciTegic.value.IntegerValue
647

@<SCITEGIC>MOL_PROPERTY
Conf_Id
SciTegic.value.IntegerValue
125

@<SCITEGIC>MOL_PROPERTY
Delta U+W
SciTegic.value.DoubleValue
2.314

@<SCITEGIC>MOL_PROPERTY
U+W
SciTegic.value.DoubleValue
-49.315

@<SCITEGIC>MOL_PROPERTY
Grad RMS
SciTegic.value.DoubleValue
0.000000

@<SCITEGIC>MOL_PROPERTY
U
SciTegic.value.DoubleValue
9.740

@<SCITEGIC>MOL_PROPERTY
W
SciTegic.value.DoubleValue
-59.054

@<SCITEGIC>MOL_PROPERTY
W(PB)
SciTegic.value.DoubleValue
-61.488

@<SCITEGIC>MOL_PROPERTY
W(SA)
SciTegic.value.DoubleValue
2.433

@<SCITEGIC>MOL_PROPERTY
Valence
SciTegic.value.DoubleValue
10.506

@<SCITEGIC>MOL_PROPERTY
Coulomb
SciTegic.value.DoubleValue
-1.761

@<SCITEGIC>MOL_PROPERTY
VdW
SciTegic.value.DoubleValue
0.994

@<SCITEGIC>MOL_PROPERTY
VdW6
SciTegic.value.DoubleValue
-9.209

@<SCITEGIC>MOL_PROPERTY
VdW12
SciTegic.value.DoubleValue
10.203

@<SCITEGIC>MOL_PROPERTY
Bond
SciTegic.value.DoubleValue
0.193

@<SCITEGIC>MOL_PROPERTY
Angle
SciTegic.value.DoubleValue
2.979

@<SCITEGIC>MOL_PROPERTY
Pdih
SciTegic.value.DoubleValue
7.334

@<SCITEGIC>MOL_PROPERTY
Idih
SciTegic.value.DoubleValue
0.001

@<SCITEGIC>MOL_PROPERTY
Tether
SciTegic.value.DoubleValue
0.000

@<TRIPOS>MOLECULE
guest-8_confgen4.mol2 : confsearch ligand conformer 648
          25          24           1
SMALL
USER_CHARGES
 
@<TRIPOS>ATOM
       1    C1      17.653004   16.616814   25.381229 C.2        1 MOL1         0.6168
       2    O1      16.530861   17.056233   25.225025 O.co2      1 MOL1        -0.6703
       3    O2      17.919452   15.705292   26.139435 O.co2      1 MOL1        -0.6703
       4    C2      18.793532   17.260541   24.600953 C.3        1 MOL1        -0.1963
       5    H1      18.393055   17.586821   23.634578 H          1 MOL1         0.0750
       6    H2      19.545280   16.488418   24.398334 H          1 MOL1         0.0750
       7    C3      19.439314   18.451376   25.356015 C.3        1 MOL1        -0.1860
       8    H3      18.688009   19.237927   25.511602 H          1 MOL1         0.0752
       9    H4      19.743803   18.111468   26.355613 H          1 MOL1         0.0752
      10    C4      20.674613   19.043192   24.636333 C.3        1 MOL1        -0.1858
      11    H5      21.427737   18.256661   24.490917 H          1 MOL1         0.0752
      12    H6      21.133069   19.794831   25.293422 H          1 MOL1         0.0752
      13    C5      20.338696   19.699988   23.277299 C.3        1 MOL1        -0.1858
      14    H7      19.943114   18.941864   22.590720 H          1 MOL1         0.0752
      15    H8      19.549975   20.451467   23.417876 H          1 MOL1         0.0752
      16    C6      21.581626   20.368483   22.645284 C.3        1 MOL1        -0.1858
      17    H9      22.355152   19.610697   22.460065 H          1 MOL1         0.0752
      18    H10     22.009498   21.080525   23.364149 H          1 MOL1         0.0752
      19    C7      21.272749   21.124134   21.331738 C.3        1 MOL1        -0.1834
      20    H11     20.503124   21.886733   21.514569 H          1 MOL1         0.0752
      21    H12     22.175697   21.664440   21.015537 H          1 MOL1         0.0752
      22    C8      20.821658   20.195778   20.183149 C.3        1 MOL1        -0.2849
      23    H13     19.857780   19.721512   20.406076 H          1 MOL1         0.0764
      24    H14     20.703483   20.766078   19.252725 H          1 MOL1         0.0764
      25    H15     21.561671   19.405138   20.003212 H          1 MOL1         0.0764
@<TRIPOS>BOND
    1     1     2    1
    2     1     3    2
    3     1     4    1
    4     4     5    1
    5     4     6    1
    6     4     7    1
    7     7     8    1
    8     7     9    1
    9     7    10    1
   10    10    11    1
   11    10    12    1
   12    10    13    1
   13    13    14    1
   14    13    15    1
   15    13    16    1
   16    16    17    1
   17    16    18    1
   18    16    19    1
   19    19    20    1
   20    19    21    1
   21    19    22    1
   22    22    23    1
   23    22    24    1
   24    22    25    1
@<TRIPOS>SUBSTRUCTURE
       1 MOL1            1 RESIDUE      1      MOL     
@<SCITEGIC>MOL_PROPERTY
VConf Rank
SciTegic.value.IntegerValue
648

@<SCITEGIC>MOL_PROPERTY
Conf_Id
SciTegic.value.IntegerValue
4

@<SCITEGIC>MOL_PROPERTY
Delta U+W
SciTegic.value.DoubleValue
0.189

@<SCITEGIC>MOL_PROPERTY
U+W
SciTegic.value.DoubleValue
-51.441

@<SCITEGIC>MOL_PROPERTY
Grad RMS
SciTegic.value.DoubleValue
0.000000

@<SCITEGIC>MOL_PROPERTY
U
SciTegic.value.DoubleValue
7.701

@<SCITEGIC>MOL_PROPERTY
W
SciTegic.value.DoubleValue
-59.141

@<SCITEGIC>MOL_PROPERTY
W(PB)
SciTegic.value.DoubleValue
-61.609

@<SCITEGIC>MOL_PROPERTY
W(SA)
SciTegic.value.DoubleValue
2.467

@<SCITEGIC>MOL_PROPERTY
Valence
SciTegic.value.DoubleValue
8.550

@<SCITEGIC>MOL_PROPERTY
Coulomb
SciTegic.value.DoubleValue
-1.988

@<SCITEGIC>MOL_PROPERTY
VdW
SciTegic.value.DoubleValue
1.139

@<SCITEGIC>MOL_PROPERTY
VdW6
SciTegic.value.DoubleValue
-8.988

@<SCITEGIC>MOL_PROPERTY
VdW12
SciTegic.value.DoubleValue
10.127

@<SCITEGIC>MOL_PROPERTY
Bond
SciTegic.value.DoubleValue
0.191

@<SCITEGIC>MOL_PROPERTY
Angle
SciTegic.value.DoubleValue
2.738

@<SCITEGIC>MOL_PROPERTY
Pdih
SciTegic.value.DoubleValue
5.621

@<SCITEGIC>MOL_PROPERTY
Idih
SciTegic.value.DoubleValue
0.001

@<SCITEGIC>MOL_PROPERTY
Tether
SciTegic.value.DoubleValue
0.000

@<TRIPOS>MOLECULE
guest-8_confgen4.mol2 : confsearch ligand conformer 649
          25          24           1
SMALL
USER_CHARGES
 
@<TRIPOS>ATOM
       1    C1      21.984534   22.736198   22.589638 C.2        1 MOL1         0.6168
       2    O1      21.307714   23.591859   23.124851 O.co2      1 MOL1        -0.6703
       3    O2      23.076614   22.949587   22.101206 O.co2      1 MOL1        -0.6703
       4    C2      21.444218   21.311255   22.549425 C.3        1 MOL1        -0.1963
       5    H1      21.817158   20.831752   21.636546 H          1 MOL1         0.0750
       6    H2      20.353460   21.371248   22.463581 H          1 MOL1         0.0750
       7    C3      21.850371   20.480721   23.794613 C.3        1 MOL1        -0.1860
       8    H3      22.943046   20.520591   23.903792 H          1 MOL1         0.0752
       9    H4      21.431447   20.945214   24.697983 H          1 MOL1         0.0752
      10    C4      21.413837   18.998226   23.718427 C.3        1 MOL1        -0.1858
      11    H5      21.842286   18.464813   24.577969 H          1 MOL1         0.0752
      12    H6      21.842312   18.534100   22.819557 H          1 MOL1         0.0752
      13    C5      19.879249   18.807890   23.721469 C.3        1 MOL1        -0.1858
      14    H7      19.448228   19.315491   24.595039 H          1 MOL1         0.0752
      15    H8      19.448874   19.279267   22.829725 H          1 MOL1         0.0752
      16    C6      19.491188   17.311310   23.750761 C.3        1 MOL1        -0.1858
      17    H9      19.977703   16.832182   24.611333 H          1 MOL1         0.0752
      18    H10     19.881337   16.810439   22.854212 H          1 MOL1         0.0752
      19    C7      17.966634   17.072923   23.854323 C.3        1 MOL1        -0.1834
      20    H11     17.786668   15.997460   23.989305 H          1 MOL1         0.0752
      21    H12     17.573838   17.568251   24.753026 H          1 MOL1         0.0752
      22    C8      17.186015   17.555082   22.612250 C.3        1 MOL1        -0.2849
      23    H13     17.582236   17.096828   21.696761 H          1 MOL1         0.0764
      24    H14     16.126087   17.282060   22.695354 H          1 MOL1         0.0764
      25    H15     17.240009   18.645438   22.503184 H          1 MOL1         0.0764
@<TRIPOS>BOND
    1     1     2    1
    2     1     3    2
    3     1     4    1
    4     4     5    1
    5     4     6    1
    6     4     7    1
    7     7     8    1
    8     7     9    1
    9     7    10    1
   10    10    11    1
   11    10    12    1
   12    10    13    1
   13    13    14    1
   14    13    15    1
   15    13    16    1
   16    16    17    1
   17    16    18    1
   18    16    19    1
   19    19    20    1
   20    19    21    1
   21    19    22    1
   22    22    23    1
   23    22    24    1
   24    22    25    1
@<TRIPOS>SUBSTRUCTURE
       1 MOL1            1 RESIDUE      1      MOL     
@<SCITEGIC>MOL_PROPERTY
VConf Rank
SciTegic.value.IntegerValue
649

@<SCITEGIC>MOL_PROPERTY
Conf_Id
SciTegic.value.IntegerValue
17

@<SCITEGIC>MOL_PROPERTY
Delta U+W
SciTegic.value.DoubleValue
0.219

@<SCITEGIC>MOL_PROPERTY
U+W
SciTegic.value.DoubleValue
-51.411

@<SCITEGIC>MOL_PROPERTY
Grad RMS
SciTegic.value.DoubleValue
0.000000

@<SCITEGIC>MOL_PROPERTY
U
SciTegic.value.DoubleValue
7.701

@<SCITEGIC>MOL_PROPERTY
W
SciTegic.value.DoubleValue
-59.111

@<SCITEGIC>MOL_PROPERTY
W(PB)
SciTegic.value.DoubleValue
-61.599

@<SCITEGIC>MOL_PROPERTY
W(SA)
SciTegic.value.DoubleValue
2.488

@<SCITEGIC>MOL_PROPERTY
Valence
SciTegic.value.DoubleValue
8.550

@<SCITEGIC>MOL_PROPERTY
Coulomb
SciTegic.value.DoubleValue
-1.988

@<SCITEGIC>MOL_PROPERTY
VdW
SciTegic.value.DoubleValue
1.139

@<SCITEGIC>MOL_PROPERTY
VdW6
SciTegic.value.DoubleValue
-8.988

@<SCITEGIC>MOL_PROPERTY
VdW12
SciTegic.value.DoubleValue
10.127

@<SCITEGIC>MOL_PROPERTY
Bond
SciTegic.value.DoubleValue
0.191

@<SCITEGIC>MOL_PROPERTY
Angle
SciTegic.value.DoubleValue
2.738

@<SCITEGIC>MOL_PROPERTY
Pdih
SciTegic.value.DoubleValue
5.621

@<SCITEGIC>MOL_PROPERTY
Idih
SciTegic.value.DoubleValue
0.001

@<SCITEGIC>MOL_PROPERTY
Tether
SciTegic.value.DoubleValue
0.000

@<TRIPOS>MOLECULE
guest-8_confgen4.mol2 : confsearch ligand conformer 650
          25          24           1
SMALL
USER_CHARGES
 
@<TRIPOS>ATOM
       1    C1      21.782172   16.078283   24.140367 C.2        1 MOL1         0.6168
       2    O1      22.653274   15.879677   23.316475 O.co2      1 MOL1        -0.6703
       3    O2      20.808634   15.363474   24.275821 O.co2      1 MOL1        -0.6703
       4    C2      21.926483   17.279904   25.069998 C.3        1 MOL1        -0.1963
       5    H1      22.977265   17.593911   25.075536 H          1 MOL1         0.0750
       6    H2      21.691703   16.939590   26.085404 H          1 MOL1         0.0750
       7    C3      21.010923   18.475456   24.699454 C.3        1 MOL1        -0.1860
       8    H3      19.968064   18.132241   24.681648 H          1 MOL1         0.0752
       9    H4      21.081745   19.236880   25.487796 H          1 MOL1         0.0752
      10    C4      21.388444   19.110901   23.339881 C.3        1 MOL1        -0.1858
      11    H5      21.252758   18.376333   22.534077 H          1 MOL1         0.0752
      12    H6      22.457097   19.365341   23.349254 H          1 MOL1         0.0752
      13    C5      20.581727   20.389829   23.012358 C.3        1 MOL1        -0.1858
      14    H7      20.722929   21.129231   23.812481 H          1 MOL1         0.0752
      15    H8      20.996099   20.837711   22.098817 H          1 MOL1         0.0752
      16    C6      19.071945   20.129064   22.803573 C.3        1 MOL1        -0.1858
      17    H9      18.624896   19.751327   23.732223 H          1 MOL1         0.0752
      18    H10     18.936097   19.349412   22.041613 H          1 MOL1         0.0752
      19    C7      18.326822   21.408943   22.369467 C.3        1 MOL1        -0.1834
      20    H11     18.462291   22.191544   23.128836 H          1 MOL1         0.0752
      21    H12     18.760526   21.791896   21.435299 H          1 MOL1         0.0752
      22    C8      16.820828   21.148149   22.165281 C.3        1 MOL1        -0.2849
      23    H13     16.353979   20.794442   23.093896 H          1 MOL1         0.0764
      24    H14     16.307183   22.067941   21.856725 H          1 MOL1         0.0764
      25    H15     16.655317   20.390454   21.388181 H          1 MOL1         0.0764
@<TRIPOS>BOND
    1     1     2    1
    2     1     3    2
    3     1     4    1
    4     4     5    1
    5     4     6    1
    6     4     7    1
    7     7     8    1
    8     7     9    1
    9     7    10    1
   10    10    11    1
   11    10    12    1
   12    10    13    1
   13    13    14    1
   14    13    15    1
   15    13    16    1
   16    16    17    1
   17    16    18    1
   18    16    19    1
   19    19    20    1
   20    19    21    1
   21    19    22    1
   22    22    23    1
   23    22    24    1
   24    22    25    1
@<TRIPOS>SUBSTRUCTURE
       1 MOL1            1 RESIDUE      1      MOL     
@<SCITEGIC>MOL_PROPERTY
VConf Rank
SciTegic.value.IntegerValue
650

@<SCITEGIC>MOL_PROPERTY
Conf_Id
SciTegic.value.IntegerValue
142

@<SCITEGIC>MOL_PROPERTY
Delta U+W
SciTegic.value.DoubleValue
0.593

@<SCITEGIC>MOL_PROPERTY
U+W
SciTegic.value.DoubleValue
-51.037

@<SCITEGIC>MOL_PROPERTY
Grad RMS
SciTegic.value.DoubleValue
0.000000

@<SCITEGIC>MOL_PROPERTY
U
SciTegic.value.DoubleValue
8.903

@<SCITEGIC>MOL_PROPERTY
W
SciTegic.value.DoubleValue
-59.940

@<SCITEGIC>MOL_PROPERTY
W(PB)
SciTegic.value.DoubleValue
-62.418

@<SCITEGIC>MOL_PROPERTY
W(SA)
SciTegic.value.DoubleValue
2.478

@<SCITEGIC>MOL_PROPERTY
Valence
SciTegic.value.DoubleValue
8.305

@<SCITEGIC>MOL_PROPERTY
Coulomb
SciTegic.value.DoubleValue
-0.223

@<SCITEGIC>MOL_PROPERTY
VdW
SciTegic.value.DoubleValue
0.821

@<SCITEGIC>MOL_PROPERTY
VdW6
SciTegic.value.DoubleValue
-9.236

@<SCITEGIC>MOL_PROPERTY
VdW12
SciTegic.value.DoubleValue
10.057

@<SCITEGIC>MOL_PROPERTY
Bond
SciTegic.value.DoubleValue
0.173

@<SCITEGIC>MOL_PROPERTY
Angle
SciTegic.value.DoubleValue
2.663

@<SCITEGIC>MOL_PROPERTY
Pdih
SciTegic.value.DoubleValue
5.469

@<SCITEGIC>MOL_PROPERTY
Idih
SciTegic.value.DoubleValue
0.001

@<SCITEGIC>MOL_PROPERTY
Tether
SciTegic.value.DoubleValue
0.000

@<TRIPOS>MOLECULE
guest-8_confgen4.mol2 : confsearch ligand conformer 651
          25          24           1
SMALL
USER_CHARGES
 
@<TRIPOS>ATOM
       1    C1      23.767362   19.181533   23.371010 C.2        1 MOL1         0.6168
       2    O1      24.696047   19.472044   24.099506 O.co2      1 MOL1        -0.6703
       3    O2      23.738865   18.177805   22.686338 O.co2      1 MOL1        -0.6703
       4    C2      22.586676   20.145296   23.293060 C.3        1 MOL1        -0.1963
       5    H1      21.985020   19.893447   22.412220 H          1 MOL1         0.0750
       6    H2      22.994371   21.147017   23.114568 H          1 MOL1         0.0750
       7    C3      21.702852   20.169655   24.569929 C.3        1 MOL1        -0.1860
       8    H3      22.320722   20.491761   25.419436 H          1 MOL1         0.0752
       9    H4      20.925002   20.935809   24.456778 H          1 MOL1         0.0752
      10    C4      21.047824   18.808847   24.921759 C.3        1 MOL1        -0.1858
      11    H5      20.453349   18.929958   25.837471 H          1 MOL1         0.0752
      12    H6      21.837025   18.085369   25.168391 H          1 MOL1         0.0752
      13    C5      20.148124   18.201742   23.816186 C.3        1 MOL1        -0.1858
      14    H7      20.752163   17.969553   22.928842 H          1 MOL1         0.0752
      15    H8      19.759103   17.240142   24.177462 H          1 MOL1         0.0752
      16    C6      18.959556   19.107658   23.419586 C.3        1 MOL1        -0.1858
      17    H9      19.332890   20.045604   22.988327 H          1 MOL1         0.0752
      18    H10     18.384413   19.372639   24.317177 H          1 MOL1         0.0752
      19    C7      18.032221   18.416971   22.397610 C.3        1 MOL1        -0.1834
      20    H11     18.606303   18.148648   21.499885 H          1 MOL1         0.0752
      21    H12     17.645809   17.479783   22.821566 H          1 MOL1         0.0752
      22    C8      16.850798   19.323972   21.998511 C.3        1 MOL1        -0.2849
      23    H13     17.208201   20.256097   21.541594 H          1 MOL1         0.0764
      24    H14     16.202238   18.817339   21.272063 H          1 MOL1         0.0764
      25    H15     16.241409   19.583072   22.874219 H          1 MOL1         0.0764
@<TRIPOS>BOND
    1     1     2    1
    2     1     3    2
    3     1     4    1
    4     4     5    1
    5     4     6    1
    6     4     7    1
    7     7     8    1
    8     7     9    1
    9     7    10    1
   10    10    11    1
   11    10    12    1
   12    10    13    1
   13    13    14    1
   14    13    15    1
   15    13    16    1
   16    16    17    1
   17    16    18    1
   18    16    19    1
   19    19    20    1
   20    19    21    1
   21    19    22    1
   22    22    23    1
   23    22    24    1
   24    22    25    1
@<TRIPOS>SUBSTRUCTURE
       1 MOL1            1 RESIDUE      1      MOL     
@<SCITEGIC>MOL_PROPERTY
VConf Rank
SciTegic.value.IntegerValue
651

@<SCITEGIC>MOL_PROPERTY
Conf_Id
SciTegic.value.IntegerValue
135

@<SCITEGIC>MOL_PROPERTY
Delta U+W
SciTegic.value.DoubleValue
1.314

@<SCITEGIC>MOL_PROPERTY
U+W
SciTegic.value.DoubleValue
-50.316

@<SCITEGIC>MOL_PROPERTY
Grad RMS
SciTegic.value.DoubleValue
0.000000

@<SCITEGIC>MOL_PROPERTY
U
SciTegic.value.DoubleValue
9.773

@<SCITEGIC>MOL_PROPERTY
W
SciTegic.value.DoubleValue
-60.088

@<SCITEGIC>MOL_PROPERTY
W(PB)
SciTegic.value.DoubleValue
-62.535

@<SCITEGIC>MOL_PROPERTY
W(SA)
SciTegic.value.DoubleValue
2.447

@<SCITEGIC>MOL_PROPERTY
Valence
SciTegic.value.DoubleValue
8.741

@<SCITEGIC>MOL_PROPERTY
Coulomb
SciTegic.value.DoubleValue
0.479

@<SCITEGIC>MOL_PROPERTY
VdW
SciTegic.value.DoubleValue
0.552

@<SCITEGIC>MOL_PROPERTY
VdW6
SciTegic.value.DoubleValue
-10.627

@<SCITEGIC>MOL_PROPERTY
VdW12
SciTegic.value.DoubleValue
11.179

@<SCITEGIC>MOL_PROPERTY
Bond
SciTegic.value.DoubleValue
0.227

@<SCITEGIC>MOL_PROPERTY
Angle
SciTegic.value.DoubleValue
3.155

@<SCITEGIC>MOL_PROPERTY
Pdih
SciTegic.value.DoubleValue
5.358

@<SCITEGIC>MOL_PROPERTY
Idih
SciTegic.value.DoubleValue
0.001

@<SCITEGIC>MOL_PROPERTY
Tether
SciTegic.value.DoubleValue
0.000

@<TRIPOS>MOLECULE
guest-8_confgen4.mol2 : confsearch ligand conformer 652
          25          24           1
SMALL
USER_CHARGES
 
@<TRIPOS>ATOM
       1    C1      24.198889   20.133414   23.123291 C.2        1 MOL1         0.6168
       2    O1      24.825248   19.457163   22.331395 O.co2      1 MOL1        -0.6703
       3    O2      24.591313   21.198727   23.556745 O.co2      1 MOL1        -0.6703
       4    C2      22.835168   19.628460   23.580967 C.3        1 MOL1        -0.1963
       5    H1      22.670996   19.976834   24.607627 H          1 MOL1         0.0750
       6    H2      22.879439   18.534262   23.611679 H          1 MOL1         0.0750
       7    C3      21.680263   20.106601   22.662597 C.3        1 MOL1        -0.1860
       8    H3      21.729413   21.201207   22.579718 H          1 MOL1         0.0752
       9    H4      21.829020   19.712344   21.647849 H          1 MOL1         0.0752
      10    C4      20.274371   19.713791   23.176505 C.3        1 MOL1        -0.1858
      11    H5      19.532410   20.225891   22.551016 H          1 MOL1         0.0752
      12    H6      20.137330   20.087253   24.200382 H          1 MOL1         0.0752
      13    C5      20.004865   18.190683   23.132121 C.3        1 MOL1        -0.1858
      14    H7      20.086002   17.836446   22.095526 H          1 MOL1         0.0752
      15    H8      20.781718   17.663635   23.699742 H          1 MOL1         0.0752
      16    C6      18.630371   17.771934   23.712538 C.3        1 MOL1        -0.1858
      17    H9      18.574754   18.038314   24.776894 H          1 MOL1         0.0752
      18    H10     18.577621   16.675195   23.677105 H          1 MOL1         0.0752
      19    C7      17.404382   18.337663   22.952865 C.3        1 MOL1        -0.1834
      20    H11     17.664755   18.538967   21.904572 H          1 MOL1         0.0752
      21    H12     16.619531   17.569039   22.929887 H          1 MOL1         0.0752
      22    C8      16.813176   19.604232   23.611306 C.3        1 MOL1        -0.2849
      23    H13     17.544712   20.418910   23.658988 H          1 MOL1         0.0764
      24    H14     15.946547   19.964239   23.041959 H          1 MOL1         0.0764
      25    H15     16.477422   19.391176   24.634516 H          1 MOL1         0.0764
@<TRIPOS>BOND
    1     1     2    1
    2     1     3    2
    3     1     4    1
    4     4     5    1
    5     4     6    1
    6     4     7    1
    7     7     8    1
    8     7     9    1
    9     7    10    1
   10    10    11    1
   11    10    12    1
   12    10    13    1
   13    13    14    1
   14    13    15    1
   15    13    16    1
   16    16    17    1
   17    16    18    1
   18    16    19    1
   19    19    20    1
   20    19    21    1
   21    19    22    1
   22    22    23    1
   23    22    24    1
   24    22    25    1
@<TRIPOS>SUBSTRUCTURE
       1 MOL1            1 RESIDUE      1      MOL     
@<SCITEGIC>MOL_PROPERTY
VConf Rank
SciTegic.value.IntegerValue
652

@<SCITEGIC>MOL_PROPERTY
Conf_Id
SciTegic.value.IntegerValue
19

@<SCITEGIC>MOL_PROPERTY
Delta U+W
SciTegic.value.DoubleValue
3.222

@<SCITEGIC>MOL_PROPERTY
U+W
SciTegic.value.DoubleValue
-48.407

@<SCITEGIC>MOL_PROPERTY
Grad RMS
SciTegic.value.DoubleValue
0.000000

@<SCITEGIC>MOL_PROPERTY
U
SciTegic.value.DoubleValue
10.617

@<SCITEGIC>MOL_PROPERTY
W
SciTegic.value.DoubleValue
-59.025

@<SCITEGIC>MOL_PROPERTY
W(PB)
SciTegic.value.DoubleValue
-61.462

@<SCITEGIC>MOL_PROPERTY
W(SA)
SciTegic.value.DoubleValue
2.437

@<SCITEGIC>MOL_PROPERTY
Valence
SciTegic.value.DoubleValue
11.188

@<SCITEGIC>MOL_PROPERTY
Coulomb
SciTegic.value.DoubleValue
-1.778

@<SCITEGIC>MOL_PROPERTY
VdW
SciTegic.value.DoubleValue
1.208

@<SCITEGIC>MOL_PROPERTY
VdW6
SciTegic.value.DoubleValue
-9.786

@<SCITEGIC>MOL_PROPERTY
VdW12
SciTegic.value.DoubleValue
10.993

@<SCITEGIC>MOL_PROPERTY
Bond
SciTegic.value.DoubleValue
0.241

@<SCITEGIC>MOL_PROPERTY
Angle
SciTegic.value.DoubleValue
3.294

@<SCITEGIC>MOL_PROPERTY
Pdih
SciTegic.value.DoubleValue
7.653

@<SCITEGIC>MOL_PROPERTY
Idih
SciTegic.value.DoubleValue
0.001

@<SCITEGIC>MOL_PROPERTY
Tether
SciTegic.value.DoubleValue
0.000

@<TRIPOS>MOLECULE
guest-8_confgen4.mol2 : confsearch ligand conformer 653
          25          24           1
SMALL
USER_CHARGES
 
@<TRIPOS>ATOM
       1    C1      19.985512   22.003772   20.117414 C.2        1 MOL1         0.6168
       2    O1      20.263763   21.530653   19.033221 O.co2      1 MOL1        -0.6703
       3    O2      20.036811   23.192116   20.366366 O.co2      1 MOL1        -0.6703
       4    C2      19.571609   21.051685   21.233836 C.3        1 MOL1        -0.1963
       5    H1      19.032369   20.215927   20.774596 H          1 MOL1         0.0750
       6    H2      18.863201   21.578440   21.884246 H          1 MOL1         0.0750
       7    C3      20.778668   20.538759   22.061933 C.3        1 MOL1        -0.1860
       8    H3      21.457943   19.971501   21.410712 H          1 MOL1         0.0752
       9    H4      21.348669   21.405817   22.423534 H          1 MOL1         0.0752
      10    C4      20.374215   19.672436   23.278830 C.3        1 MOL1        -0.1858
      11    H5      19.675492   20.232193   23.915256 H          1 MOL1         0.0752
      12    H6      21.275278   19.494006   23.879028 H          1 MOL1         0.0752
      13    C5      19.752623   18.310608   22.887026 C.3        1 MOL1        -0.1858
      14    H7      18.889516   18.476240   22.230452 H          1 MOL1         0.0752
      15    H8      20.480259   17.733262   22.300668 H          1 MOL1         0.0752
      16    C6      19.273188   17.461502   24.091449 C.3        1 MOL1        -0.1858
      17    H9      18.806046   16.552295   23.688964 H          1 MOL1         0.0752
      18    H10     18.476615   17.991246   24.631585 H          1 MOL1         0.0752
      19    C7      20.393654   17.033434   25.072019 C.3        1 MOL1        -0.1834
      20    H11     20.184570   16.012753   25.421010 H          1 MOL1         0.0752
      21    H12     21.359414   16.985401   24.550258 H          1 MOL1         0.0752
      22    C8      20.498823   17.949744   26.311608 C.3        1 MOL1        -0.2849
      23    H13     19.561622   17.941500   26.883156 H          1 MOL1         0.0764
      24    H14     21.300706   17.605019   26.977156 H          1 MOL1         0.0764
      25    H15     20.716080   18.987664   26.034769 H          1 MOL1         0.0764
@<TRIPOS>BOND
    1     1     2    1
    2     1     3    2
    3     1     4    1
    4     4     5    1
    5     4     6    1
    6     4     7    1
    7     7     8    1
    8     7     9    1
    9     7    10    1
   10    10    11    1
   11    10    12    1
   12    10    13    1
   13    13    14    1
   14    13    15    1
   15    13    16    1
   16    16    17    1
   17    16    18    1
   18    16    19    1
   19    19    20    1
   20    19    21    1
   21    19    22    1
   22    22    23    1
   23    22    24    1
   24    22    25    1
@<TRIPOS>SUBSTRUCTURE
       1 MOL1            1 RESIDUE      1      MOL     
@<SCITEGIC>MOL_PROPERTY
VConf Rank
SciTegic.value.IntegerValue
653

@<SCITEGIC>MOL_PROPERTY
Conf_Id
SciTegic.value.IntegerValue
20

@<SCITEGIC>MOL_PROPERTY
Delta U+W
SciTegic.value.DoubleValue
3.224

@<SCITEGIC>MOL_PROPERTY
U+W
SciTegic.value.DoubleValue
-48.406

@<SCITEGIC>MOL_PROPERTY
Grad RMS
SciTegic.value.DoubleValue
0.000000

@<SCITEGIC>MOL_PROPERTY
U
SciTegic.value.DoubleValue
10.617

@<SCITEGIC>MOL_PROPERTY
W
SciTegic.value.DoubleValue
-59.023

@<SCITEGIC>MOL_PROPERTY
W(PB)
SciTegic.value.DoubleValue
-61.467

@<SCITEGIC>MOL_PROPERTY
W(SA)
SciTegic.value.DoubleValue
2.444

@<SCITEGIC>MOL_PROPERTY
Valence
SciTegic.value.DoubleValue
11.188

@<SCITEGIC>MOL_PROPERTY
Coulomb
SciTegic.value.DoubleValue
-1.778

@<SCITEGIC>MOL_PROPERTY
VdW
SciTegic.value.DoubleValue
1.208

@<SCITEGIC>MOL_PROPERTY
VdW6
SciTegic.value.DoubleValue
-9.786

@<SCITEGIC>MOL_PROPERTY
VdW12
SciTegic.value.DoubleValue
10.993

@<SCITEGIC>MOL_PROPERTY
Bond
SciTegic.value.DoubleValue
0.241

@<SCITEGIC>MOL_PROPERTY
Angle
SciTegic.value.DoubleValue
3.294

@<SCITEGIC>MOL_PROPERTY
Pdih
SciTegic.value.DoubleValue
7.653

@<SCITEGIC>MOL_PROPERTY
Idih
SciTegic.value.DoubleValue
0.001

@<SCITEGIC>MOL_PROPERTY
Tether
SciTegic.value.DoubleValue
0.000

@<TRIPOS>MOLECULE
guest-8_confgen4.mol2 : confsearch ligand conformer 654
          25          24           1
SMALL
USER_CHARGES
 
@<TRIPOS>ATOM
       1    C1      21.427422   17.201810   21.667722 C.2        1 MOL1         0.6168
       2    O1      22.491501   16.973798   22.209380 O.co2      1 MOL1        -0.6703
       3    O2      21.305349   17.949360   20.717204 O.co2      1 MOL1        -0.6703
       4    C2      20.187632   16.460193   22.164024 C.3        1 MOL1        -0.1963
       5    H1      20.372561   15.395162   21.982425 H          1 MOL1         0.0750
       6    H2      19.330656   16.740793   21.539809 H          1 MOL1         0.0750
       7    C3      19.849171   16.665719   23.667458 C.3        1 MOL1        -0.1860
       8    H3      19.203817   15.836047   23.986193 H          1 MOL1         0.0752
       9    H4      20.763685   16.586078   24.271539 H          1 MOL1         0.0752
      10    C4      19.111709   17.988454   23.992427 C.3        1 MOL1        -0.1858
      11    H5      18.793488   17.953158   25.043365 H          1 MOL1         0.0752
      12    H6      18.192921   18.056170   23.394030 H          1 MOL1         0.0752
      13    C5      19.967502   19.256942   23.775203 C.3        1 MOL1        -0.1858
      14    H7      20.931676   19.144041   24.289661 H          1 MOL1         0.0752
      15    H8      20.185514   19.381031   22.706991 H          1 MOL1         0.0752
      16    C6      19.251259   20.524336   24.290256 C.3        1 MOL1        -0.1858
      17    H9      19.035120   20.415084   25.361850 H          1 MOL1         0.0752
      18    H10     18.285293   20.632892   23.778243 H          1 MOL1         0.0752
      19    C7      20.100099   21.792961   24.063462 C.3        1 MOL1        -0.1834
      20    H11     21.066865   21.687856   24.575103 H          1 MOL1         0.0752
      21    H12     20.316952   21.906526   22.992162 H          1 MOL1         0.0752
      22    C8      19.382229   23.056844   24.578176 C.3        1 MOL1        -0.2849
      23    H13     19.181160   22.983307   25.654992 H          1 MOL1         0.0764
      24    H14     19.999700   23.948534   24.408816 H          1 MOL1         0.0764
      25    H15     18.425528   23.203628   24.059956 H          1 MOL1         0.0764
@<TRIPOS>BOND
    1     1     2    1
    2     1     3    2
    3     1     4    1
    4     4     5    1
    5     4     6    1
    6     4     7    1
    7     7     8    1
    8     7     9    1
    9     7    10    1
   10    10    11    1
   11    10    12    1
   12    10    13    1
   13    13    14    1
   14    13    15    1
   15    13    16    1
   16    16    17    1
   17    16    18    1
   18    16    19    1
   19    19    20    1
   20    19    21    1
   21    19    22    1
   22    22    23    1
   23    22    24    1
   24    22    25    1
@<TRIPOS>SUBSTRUCTURE
       1 MOL1            1 RESIDUE      1      MOL     
@<SCITEGIC>MOL_PROPERTY
VConf Rank
SciTegic.value.IntegerValue
654

@<SCITEGIC>MOL_PROPERTY
Conf_Id
SciTegic.value.IntegerValue
24

@<SCITEGIC>MOL_PROPERTY
Delta U+W
SciTegic.value.DoubleValue
1.784

@<SCITEGIC>MOL_PROPERTY
U+W
SciTegic.value.DoubleValue
-49.846

@<SCITEGIC>MOL_PROPERTY
Grad RMS
SciTegic.value.DoubleValue
0.000000

@<SCITEGIC>MOL_PROPERTY
U
SciTegic.value.DoubleValue
10.904

@<SCITEGIC>MOL_PROPERTY
W
SciTegic.value.DoubleValue
-60.749

@<SCITEGIC>MOL_PROPERTY
W(PB)
SciTegic.value.DoubleValue
-63.220

@<SCITEGIC>MOL_PROPERTY
W(SA)
SciTegic.value.DoubleValue
2.471

@<SCITEGIC>MOL_PROPERTY
Valence
SciTegic.value.DoubleValue
9.445

@<SCITEGIC>MOL_PROPERTY
Coulomb
SciTegic.value.DoubleValue
0.780

@<SCITEGIC>MOL_PROPERTY
VdW
SciTegic.value.DoubleValue
0.679

@<SCITEGIC>MOL_PROPERTY
VdW6
SciTegic.value.DoubleValue
-10.008

@<SCITEGIC>MOL_PROPERTY
VdW12
SciTegic.value.DoubleValue
10.687

@<SCITEGIC>MOL_PROPERTY
Bond
SciTegic.value.DoubleValue
0.201

@<SCITEGIC>MOL_PROPERTY
Angle
SciTegic.value.DoubleValue
3.198

@<SCITEGIC>MOL_PROPERTY
Pdih
SciTegic.value.DoubleValue
6.039

@<SCITEGIC>MOL_PROPERTY
Idih
SciTegic.value.DoubleValue
0.006

@<SCITEGIC>MOL_PROPERTY
Tether
SciTegic.value.DoubleValue
0.000

@<TRIPOS>MOLECULE
guest-8_confgen4.mol2 : confsearch ligand conformer 655
          25          24           1
SMALL
USER_CHARGES
 
@<TRIPOS>ATOM
       1    C1      18.303582   16.423180   24.049182 C.2        1 MOL1         0.6168
       2    O1      18.326070   16.206914   25.245161 O.co2      1 MOL1        -0.6703
       3    O2      17.371831   16.959275   23.482031 O.co2      1 MOL1        -0.6703
       4    C2      19.478011   15.936575   23.202234 C.3        1 MOL1        -0.1963
       5    H1      19.276405   16.164689   22.148619 H          1 MOL1         0.0750
       6    H2      19.489224   14.844039   23.290023 H          1 MOL1         0.0750
       7    C3      20.869793   16.491718   23.616799 C.3        1 MOL1        -0.1860
       8    H3      20.979850   16.448806   24.709337 H          1 MOL1         0.0752
       9    H4      21.637683   15.820190   23.209583 H          1 MOL1         0.0752
      10    C4      21.176466   17.922178   23.108056 C.3        1 MOL1        -0.1858
      11    H5      21.076389   17.955071   22.014558 H          1 MOL1         0.0752
      12    H6      22.229491   18.144922   23.328301 H          1 MOL1         0.0752
      13    C5      20.293405   19.019918   23.743506 C.3        1 MOL1        -0.1858
      14    H7      19.251176   18.890126   23.425826 H          1 MOL1         0.0752
      15    H8      20.311373   18.920494   24.837507 H          1 MOL1         0.0752
      16    C6      20.765624   20.434976   23.344518 C.3        1 MOL1        -0.1858
      17    H9      20.751644   20.530877   22.250152 H          1 MOL1         0.0752
      18    H10     21.806345   20.579716   23.665322 H          1 MOL1         0.0752
      19    C7      19.877556   21.531526   23.969247 C.3        1 MOL1        -0.1834
      20    H11     18.835752   21.391021   23.649078 H          1 MOL1         0.0752
      21    H12     19.889945   21.438754   25.064098 H          1 MOL1         0.0752
      22    C8      20.351154   22.943276   23.568830 C.3        1 MOL1        -0.2849
      23    H13     20.318639   23.074096   22.479242 H          1 MOL1         0.0764
      24    H14     19.708750   23.709737   24.021511 H          1 MOL1         0.0764
      25    H15     21.380849   23.122230   23.905095 H          1 MOL1         0.0764
@<TRIPOS>BOND
    1     1     2    1
    2     1     3    2
    3     1     4    1
    4     4     5    1
    5     4     6    1
    6     4     7    1
    7     7     8    1
    8     7     9    1
    9     7    10    1
   10    10    11    1
   11    10    12    1
   12    10    13    1
   13    13    14    1
   14    13    15    1
   15    13    16    1
   16    16    17    1
   17    16    18    1
   18    16    19    1
   19    19    20    1
   20    19    21    1
   21    19    22    1
   22    22    23    1
   23    22    24    1
   24    22    25    1
@<TRIPOS>SUBSTRUCTURE
       1 MOL1            1 RESIDUE      1      MOL     
@<SCITEGIC>MOL_PROPERTY
VConf Rank
SciTegic.value.IntegerValue
655

@<SCITEGIC>MOL_PROPERTY
Conf_Id
SciTegic.value.IntegerValue
9

@<SCITEGIC>MOL_PROPERTY
Delta U+W
SciTegic.value.DoubleValue
1.764

@<SCITEGIC>MOL_PROPERTY
U+W
SciTegic.value.DoubleValue
-49.865

@<SCITEGIC>MOL_PROPERTY
Grad RMS
SciTegic.value.DoubleValue
0.000000

@<SCITEGIC>MOL_PROPERTY
U
SciTegic.value.DoubleValue
10.902

@<SCITEGIC>MOL_PROPERTY
W
SciTegic.value.DoubleValue
-60.768

@<SCITEGIC>MOL_PROPERTY
W(PB)
SciTegic.value.DoubleValue
-63.223

@<SCITEGIC>MOL_PROPERTY
W(SA)
SciTegic.value.DoubleValue
2.456

@<SCITEGIC>MOL_PROPERTY
Valence
SciTegic.value.DoubleValue
9.445

@<SCITEGIC>MOL_PROPERTY
Coulomb
SciTegic.value.DoubleValue
0.778

@<SCITEGIC>MOL_PROPERTY
VdW
SciTegic.value.DoubleValue
0.679

@<SCITEGIC>MOL_PROPERTY
VdW6
SciTegic.value.DoubleValue
-10.007

@<SCITEGIC>MOL_PROPERTY
VdW12
SciTegic.value.DoubleValue
10.687

@<SCITEGIC>MOL_PROPERTY
Bond
SciTegic.value.DoubleValue
0.201

@<SCITEGIC>MOL_PROPERTY
Angle
SciTegic.value.DoubleValue
3.198

@<SCITEGIC>MOL_PROPERTY
Pdih
SciTegic.value.DoubleValue
6.040

@<SCITEGIC>MOL_PROPERTY
Idih
SciTegic.value.DoubleValue
0.006

@<SCITEGIC>MOL_PROPERTY
Tether
SciTegic.value.DoubleValue
0.000

@<TRIPOS>MOLECULE
guest-8_confgen4.mol2 : confsearch ligand conformer 656
          25          24           1
SMALL
USER_CHARGES
 
@<TRIPOS>ATOM
       1    C1      17.235070   21.483314   24.222788 C.2        1 MOL1         0.6168
       2    O1      17.344165   21.249404   25.410218 O.co2      1 MOL1        -0.6703
       3    O2      16.621332   22.432860   23.777215 O.co2      1 MOL1        -0.6703
       4    C2      17.923272   20.545290   23.237797 C.3        1 MOL1        -0.1963
       5    H1      17.313511   20.504828   22.327407 H          1 MOL1         0.0750
       6    H2      17.915723   19.540664   23.671539 H          1 MOL1         0.0750
       7    C3      19.367363   20.994713   22.891001 C.3        1 MOL1        -0.1860
       8    H3      19.311821   22.001783   22.454924 H          1 MOL1         0.0752
       9    H4      19.964093   21.091828   23.808551 H          1 MOL1         0.0752
      10    C4      20.081099   20.057692   21.883597 C.3        1 MOL1        -0.1858
      11    H5      20.720905   20.674780   21.238021 H          1 MOL1         0.0752
      12    H6      19.347669   19.587401   21.214458 H          1 MOL1         0.0752
      13    C5      20.981191   18.976284   22.532558 C.3        1 MOL1        -0.1858
      14    H7      21.497486   18.430931   21.730948 H          1 MOL1         0.0752
      15    H8      21.763356   19.469560   23.124439 H          1 MOL1         0.0752
      16    C6      20.218512   17.962781   23.418167 C.3        1 MOL1        -0.1858
      17    H9      19.345143   17.589323   22.866667 H          1 MOL1         0.0752
      18    H10     19.837137   18.467354   24.315500 H          1 MOL1         0.0752
      19    C7      21.082988   16.755064   23.849022 C.3        1 MOL1        -0.1834
      20    H11     20.446233   16.039329   24.387010 H          1 MOL1         0.0752
      21    H12     21.456831   16.229801   22.959318 H          1 MOL1         0.0752
      22    C8      22.268834   17.147494   24.756818 C.3        1 MOL1        -0.2849
      23    H13     21.921092   17.696702   25.641460 H          1 MOL1         0.0764
      24    H14     22.801053   16.251821   25.102307 H          1 MOL1         0.0764
      25    H15     22.990474   17.777611   24.221972 H          1 MOL1         0.0764
@<TRIPOS>BOND
    1     1     2    1
    2     1     3    2
    3     1     4    1
    4     4     5    1
    5     4     6    1
    6     4     7    1
    7     7     8    1
    8     7     9    1
    9     7    10    1
   10    10    11    1
   11    10    12    1
   12    10    13    1
   13    13    14    1
   14    13    15    1
   15    13    16    1
   16    16    17    1
   17    16    18    1
   18    16    19    1
   19    19    20    1
   20    19    21    1
   21    19    22    1
   22    22    23    1
   23    22    24    1
   24    22    25    1
@<TRIPOS>SUBSTRUCTURE
       1 MOL1            1 RESIDUE      1      MOL     
@<SCITEGIC>MOL_PROPERTY
VConf Rank
SciTegic.value.IntegerValue
656

@<SCITEGIC>MOL_PROPERTY
Conf_Id
SciTegic.value.IntegerValue
89

@<SCITEGIC>MOL_PROPERTY
Delta U+W
SciTegic.value.DoubleValue
2.903

@<SCITEGIC>MOL_PROPERTY
U+W
SciTegic.value.DoubleValue
-48.726

@<SCITEGIC>MOL_PROPERTY
Grad RMS
SciTegic.value.DoubleValue
0.000000

@<SCITEGIC>MOL_PROPERTY
U
SciTegic.value.DoubleValue
10.996

@<SCITEGIC>MOL_PROPERTY
W
SciTegic.value.DoubleValue
-59.723

@<SCITEGIC>MOL_PROPERTY
W(PB)
SciTegic.value.DoubleValue
-62.151

@<SCITEGIC>MOL_PROPERTY
W(SA)
SciTegic.value.DoubleValue
2.428

@<SCITEGIC>MOL_PROPERTY
Valence
SciTegic.value.DoubleValue
10.985

@<SCITEGIC>MOL_PROPERTY
Coulomb
SciTegic.value.DoubleValue
-0.995

@<SCITEGIC>MOL_PROPERTY
VdW
SciTegic.value.DoubleValue
1.006

@<SCITEGIC>MOL_PROPERTY
VdW6
SciTegic.value.DoubleValue
-10.062

@<SCITEGIC>MOL_PROPERTY
VdW12
SciTegic.value.DoubleValue
11.069

@<SCITEGIC>MOL_PROPERTY
Bond
SciTegic.value.DoubleValue
0.238

@<SCITEGIC>MOL_PROPERTY
Angle
SciTegic.value.DoubleValue
3.202

@<SCITEGIC>MOL_PROPERTY
Pdih
SciTegic.value.DoubleValue
7.544

@<SCITEGIC>MOL_PROPERTY
Idih
SciTegic.value.DoubleValue
0.001

@<SCITEGIC>MOL_PROPERTY
Tether
SciTegic.value.DoubleValue
0.000

@<TRIPOS>MOLECULE
guest-8_confgen4.mol2 : confsearch ligand conformer 657
          25          24           1
SMALL
USER_CHARGES
 
@<TRIPOS>ATOM
       1    C1      20.476511   17.400757   26.517041 C.2        1 MOL1         0.6168
       2    O1      21.066792   18.273044   27.123625 O.co2      1 MOL1        -0.6703
       3    O2      19.367047   17.006902   26.819655 O.co2      1 MOL1        -0.6703
       4    C2      21.195161   16.720736   25.353270 C.3        1 MOL1        -0.1963
       5    H1      21.337891   15.675039   25.649281 H          1 MOL1         0.0750
       6    H2      22.196195   17.156280   25.248372 H          1 MOL1         0.0750
       7    C3      20.443416   16.762725   23.992867 C.3        1 MOL1        -0.1860
       8    H3      20.835648   15.951091   23.365294 H          1 MOL1         0.0752
       9    H4      19.378582   16.538060   24.145279 H          1 MOL1         0.0752
      10    C4      20.599320   18.085501   23.201735 C.3        1 MOL1        -0.1858
      11    H5      20.174362   17.927003   22.202832 H          1 MOL1         0.0752
      12    H6      21.665588   18.303360   23.052865 H          1 MOL1         0.0752
      13    C5      19.907783   19.301412   23.864850 C.3        1 MOL1        -0.1858
      14    H7      18.854903   19.065771   24.071461 H          1 MOL1         0.0752
      15    H8      20.379039   19.500209   24.835022 H          1 MOL1         0.0752
      16    C6      19.996111   20.597478   23.023549 C.3        1 MOL1        -0.1858
      17    H9      21.047452   20.814186   22.790001 H          1 MOL1         0.0752
      18    H10     19.636668   21.433712   23.638703 H          1 MOL1         0.0752
      19    C7      19.169119   20.548290   21.718518 C.3        1 MOL1        -0.1834
      20    H11     19.561833   19.772837   21.048309 H          1 MOL1         0.0752
      21    H12     18.129638   20.276898   21.948763 H          1 MOL1         0.0752
      22    C8      19.193135   21.903470   20.982988 C.3        1 MOL1        -0.2849
      23    H13     20.219727   22.187072   20.716442 H          1 MOL1         0.0764
      24    H14     18.604650   21.851847   20.057747 H          1 MOL1         0.0764
      25    H15     18.769325   22.698910   21.609888 H          1 MOL1         0.0764
@<TRIPOS>BOND
    1     1     2    1
    2     1     3    2
    3     1     4    1
    4     4     5    1
    5     4     6    1
    6     4     7    1
    7     7     8    1
    8     7     9    1
    9     7    10    1
   10    10    11    1
   11    10    12    1
   12    10    13    1
   13    13    14    1
   14    13    15    1
   15    13    16    1
   16    16    17    1
   17    16    18    1
   18    16    19    1
   19    19    20    1
   20    19    21    1
   21    19    22    1
   22    22    23    1
   23    22    24    1
   24    22    25    1
@<TRIPOS>SUBSTRUCTURE
       1 MOL1            1 RESIDUE      1      MOL     
@<SCITEGIC>MOL_PROPERTY
VConf Rank
SciTegic.value.IntegerValue
657

@<SCITEGIC>MOL_PROPERTY
Conf_Id
SciTegic.value.IntegerValue
114

@<SCITEGIC>MOL_PROPERTY
Delta U+W
SciTegic.value.DoubleValue
2.758

@<SCITEGIC>MOL_PROPERTY
U+W
SciTegic.value.DoubleValue
-48.871

@<SCITEGIC>MOL_PROPERTY
Grad RMS
SciTegic.value.DoubleValue
0.000000

@<SCITEGIC>MOL_PROPERTY
U
SciTegic.value.DoubleValue
11.422

@<SCITEGIC>MOL_PROPERTY
W
SciTegic.value.DoubleValue
-60.293

@<SCITEGIC>MOL_PROPERTY
W(PB)
SciTegic.value.DoubleValue
-62.719

@<SCITEGIC>MOL_PROPERTY
W(SA)
SciTegic.value.DoubleValue
2.425

@<SCITEGIC>MOL_PROPERTY
Valence
SciTegic.value.DoubleValue
10.135

@<SCITEGIC>MOL_PROPERTY
Coulomb
SciTegic.value.DoubleValue
0.369

@<SCITEGIC>MOL_PROPERTY
VdW
SciTegic.value.DoubleValue
0.918

@<SCITEGIC>MOL_PROPERTY
VdW6
SciTegic.value.DoubleValue
-10.482

@<SCITEGIC>MOL_PROPERTY
VdW12
SciTegic.value.DoubleValue
11.400

@<SCITEGIC>MOL_PROPERTY
Bond
SciTegic.value.DoubleValue
0.245

@<SCITEGIC>MOL_PROPERTY
Angle
SciTegic.value.DoubleValue
3.539

@<SCITEGIC>MOL_PROPERTY
Pdih
SciTegic.value.DoubleValue
6.346

@<SCITEGIC>MOL_PROPERTY
Idih
SciTegic.value.DoubleValue
0.006

@<SCITEGIC>MOL_PROPERTY
Tether
SciTegic.value.DoubleValue
0.000

@<TRIPOS>MOLECULE
guest-8_confgen4.mol2 : confsearch ligand conformer 658
          25          24           1
SMALL
USER_CHARGES
 
@<TRIPOS>ATOM
       1    C1      22.115979   16.477759   21.345631 C.2        1 MOL1         0.6168
       2    O1      21.759785   15.398933   21.777282 O.co2      1 MOL1        -0.6703
       3    O2      21.937651   16.835294   20.197822 O.co2      1 MOL1        -0.6703
       4    C2      22.845839   17.429155   22.289612 C.3        1 MOL1        -0.1963
       5    H1      23.712507   17.827428   21.749015 H          1 MOL1         0.0750
       6    H2      23.237560   16.850998   23.135226 H          1 MOL1         0.0750
       7    C3      21.970224   18.602414   22.801215 C.3        1 MOL1        -0.1860
       8    H3      22.603920   19.301777   23.362972 H          1 MOL1         0.0752
       9    H4      21.576261   19.153754   21.937419 H          1 MOL1         0.0752
      10    C4      20.810073   18.123619   23.706788 C.3        1 MOL1        -0.1858
      11    H5      21.221357   17.496518   24.509555 H          1 MOL1         0.0752
      12    H6      20.127945   17.481652   23.132436 H          1 MOL1         0.0752
      13    C5      20.009267   19.280575   24.350872 C.3        1 MOL1        -0.1858
      14    H7      19.314040   18.846101   25.080308 H          1 MOL1         0.0752
      15    H8      20.690682   19.929087   24.917994 H          1 MOL1         0.0752
      16    C6      19.214955   20.126259   23.324991 C.3        1 MOL1        -0.1858
      17    H9      18.536321   19.476627   22.755680 H          1 MOL1         0.0752
      18    H10     19.909372   20.565057   22.597457 H          1 MOL1         0.0752
      19    C7      18.408753   21.277605   23.970652 C.3        1 MOL1        -0.1834
      20    H11     19.082813   21.923025   24.550622 H          1 MOL1         0.0752
      21    H12     17.990853   21.904995   23.171289 H          1 MOL1         0.0752
      22    C8      17.253146   20.789029   24.871081 C.3        1 MOL1        -0.2849
      23    H13     16.656720   21.639945   25.224806 H          1 MOL1         0.0764
      24    H14     16.584905   20.113736   24.321039 H          1 MOL1         0.0764
      25    H15     17.628886   20.258176   25.754496 H          1 MOL1         0.0764
@<TRIPOS>BOND
    1     1     2    1
    2     1     3    2
    3     1     4    1
    4     4     5    1
    5     4     6    1
    6     4     7    1
    7     7     8    1
    8     7     9    1
    9     7    10    1
   10    10    11    1
   11    10    12    1
   12    10    13    1
   13    13    14    1
   14    13    15    1
   15    13    16    1
   16    16    17    1
   17    16    18    1
   18    16    19    1
   19    19    20    1
   20    19    21    1
   21    19    22    1
   22    22    23    1
   23    22    24    1
   24    22    25    1
@<TRIPOS>SUBSTRUCTURE
       1 MOL1            1 RESIDUE      1      MOL     
@<SCITEGIC>MOL_PROPERTY
VConf Rank
SciTegic.value.IntegerValue
658

@<SCITEGIC>MOL_PROPERTY
Conf_Id
SciTegic.value.IntegerValue
87

@<SCITEGIC>MOL_PROPERTY
Delta U+W
SciTegic.value.DoubleValue
1.453

@<SCITEGIC>MOL_PROPERTY
U+W
SciTegic.value.DoubleValue
-50.176

@<SCITEGIC>MOL_PROPERTY
Grad RMS
SciTegic.value.DoubleValue
0.000000

@<SCITEGIC>MOL_PROPERTY
U
SciTegic.value.DoubleValue
9.763

@<SCITEGIC>MOL_PROPERTY
W
SciTegic.value.DoubleValue
-59.940

@<SCITEGIC>MOL_PROPERTY
W(PB)
SciTegic.value.DoubleValue
-62.392

@<SCITEGIC>MOL_PROPERTY
W(SA)
SciTegic.value.DoubleValue
2.452

@<SCITEGIC>MOL_PROPERTY
Valence
SciTegic.value.DoubleValue
8.883

@<SCITEGIC>MOL_PROPERTY
Coulomb
SciTegic.value.DoubleValue
-0.122

@<SCITEGIC>MOL_PROPERTY
VdW
SciTegic.value.DoubleValue
1.003

@<SCITEGIC>MOL_PROPERTY
VdW6
SciTegic.value.DoubleValue
-9.782

@<SCITEGIC>MOL_PROPERTY
VdW12
SciTegic.value.DoubleValue
10.785

@<SCITEGIC>MOL_PROPERTY
Bond
SciTegic.value.DoubleValue
0.212

@<SCITEGIC>MOL_PROPERTY
Angle
SciTegic.value.DoubleValue
2.940

@<SCITEGIC>MOL_PROPERTY
Pdih
SciTegic.value.DoubleValue
5.730

@<SCITEGIC>MOL_PROPERTY
Idih
SciTegic.value.DoubleValue
0.001

@<SCITEGIC>MOL_PROPERTY
Tether
SciTegic.value.DoubleValue
0.000

@<TRIPOS>MOLECULE
guest-8_confgen4.mol2 : confsearch ligand conformer 659
          25          24           1
SMALL
USER_CHARGES
 
@<TRIPOS>ATOM
       1    C1      19.198466   17.098033   26.643680 C.2        1 MOL1         0.6168
       2    O1      18.180552   17.650167   27.012032 O.co2      1 MOL1        -0.6703
       3    O2      19.430742   15.919919   26.830334 O.co2      1 MOL1        -0.6703
       4    C2      20.233534   17.924977   25.889384 C.3        1 MOL1        -0.1963
       5    H1      21.227233   17.528595   26.130061 H          1 MOL1         0.0750
       6    H2      20.192663   18.952292   26.270866 H          1 MOL1         0.0750
       7    C3      20.010056   17.915538   24.357092 C.3        1 MOL1        -0.1860
       8    H3      20.045171   16.880293   23.990790 H          1 MOL1         0.0752
       9    H4      19.003073   18.297445   24.142810 H          1 MOL1         0.0752
      10    C4      21.068195   18.766649   23.617781 C.3        1 MOL1        -0.1858
      11    H5      22.069985   18.414371   23.898741 H          1 MOL1         0.0752
      12    H6      21.007051   19.810002   23.954057 H          1 MOL1         0.0752
      13    C5      20.943323   18.701776   22.074883 C.3        1 MOL1        -0.1858
      14    H7      21.762267   19.280796   21.628287 H          1 MOL1         0.0752
      15    H8      21.101908   17.664535   21.750148 H          1 MOL1         0.0752
      16    C6      19.591663   19.199576   21.497795 C.3        1 MOL1        -0.1858
      17    H9      18.789409   18.519796   21.813316 H          1 MOL1         0.0752
      18    H10     19.630037   19.124121   20.402659 H          1 MOL1         0.0752
      19    C7      19.203062   20.647965   21.884174 C.3        1 MOL1        -0.1834
      20    H11     18.223830   20.877601   21.442272 H          1 MOL1         0.0752
      21    H12     19.071425   20.726523   22.971525 H          1 MOL1         0.0752
      22    C8      20.224293   21.702198   21.404880 C.3        1 MOL1        -0.2849
      23    H13     20.383527   21.630426   20.321169 H          1 MOL1         0.0764
      24    H14     19.864797   22.714925   21.628203 H          1 MOL1         0.0764
      25    H15     21.192745   21.574851   21.904709 H          1 MOL1         0.0764
@<TRIPOS>BOND
    1     1     2    1
    2     1     3    2
    3     1     4    1
    4     4     5    1
    5     4     6    1
    6     4     7    1
    7     7     8    1
    8     7     9    1
    9     7    10    1
   10    10    11    1
   11    10    12    1
   12    10    13    1
   13    13    14    1
   14    13    15    1
   15    13    16    1
   16    16    17    1
   17    16    18    1
   18    16    19    1
   19    19    20    1
   20    19    21    1
   21    19    22    1
   22    22    23    1
   23    22    24    1
   24    22    25    1
@<TRIPOS>SUBSTRUCTURE
       1 MOL1            1 RESIDUE      1      MOL     
@<SCITEGIC>MOL_PROPERTY
VConf Rank
SciTegic.value.IntegerValue
659

@<SCITEGIC>MOL_PROPERTY
Conf_Id
SciTegic.value.IntegerValue
29

@<SCITEGIC>MOL_PROPERTY
Delta U+W
SciTegic.value.DoubleValue
0.850

@<SCITEGIC>MOL_PROPERTY
U+W
SciTegic.value.DoubleValue
-50.780

@<SCITEGIC>MOL_PROPERTY
Grad RMS
SciTegic.value.DoubleValue
0.000000

@<SCITEGIC>MOL_PROPERTY
U
SciTegic.value.DoubleValue
8.646

@<SCITEGIC>MOL_PROPERTY
W
SciTegic.value.DoubleValue
-59.426

@<SCITEGIC>MOL_PROPERTY
W(PB)
SciTegic.value.DoubleValue
-61.868

@<SCITEGIC>MOL_PROPERTY
W(SA)
SciTegic.value.DoubleValue
2.442

@<SCITEGIC>MOL_PROPERTY
Valence
SciTegic.value.DoubleValue
8.924

@<SCITEGIC>MOL_PROPERTY
Coulomb
SciTegic.value.DoubleValue
-1.171

@<SCITEGIC>MOL_PROPERTY
VdW
SciTegic.value.DoubleValue
0.894

@<SCITEGIC>MOL_PROPERTY
VdW6
SciTegic.value.DoubleValue
-10.223

@<SCITEGIC>MOL_PROPERTY
VdW12
SciTegic.value.DoubleValue
11.117

@<SCITEGIC>MOL_PROPERTY
Bond
SciTegic.value.DoubleValue
0.231

@<SCITEGIC>MOL_PROPERTY
Angle
SciTegic.value.DoubleValue
3.232

@<SCITEGIC>MOL_PROPERTY
Pdih
SciTegic.value.DoubleValue
5.461

@<SCITEGIC>MOL_PROPERTY
Idih
SciTegic.value.DoubleValue
0.001

@<SCITEGIC>MOL_PROPERTY
Tether
SciTegic.value.DoubleValue
0.000

@<TRIPOS>MOLECULE
guest-8_confgen4.mol2 : confsearch ligand conformer 660
          25          24           1
SMALL
USER_CHARGES
 
@<TRIPOS>ATOM
       1    C1      17.030713   20.703783   25.475825 C.2        1 MOL1         0.6168
       2    O1      16.139556   20.778167   24.653030 O.co2      1 MOL1        -0.6703
       3    O2      17.162428   21.484079   26.398066 O.co2      1 MOL1        -0.6703
       4    C2      18.051220   19.580339   25.332255 C.3        1 MOL1        -0.1963
       5    H1      17.543786   18.713189   24.892785 H          1 MOL1         0.0750
       6    H2      18.380627   19.289023   26.336799 H          1 MOL1         0.0750
       7    C3      19.269480   19.981839   24.464733 C.3        1 MOL1        -0.1860
       8    H3      18.913104   20.287904   23.472208 H          1 MOL1         0.0752
       9    H4      19.762360   20.855909   24.912183 H          1 MOL1         0.0752
      10    C4      20.284226   18.823117   24.329497 C.3        1 MOL1        -0.1858
      11    H5      19.803525   17.962633   23.845863 H          1 MOL1         0.0752
      12    H6      20.575964   18.484665   25.332971 H          1 MOL1         0.0752
      13    C5      21.567430   19.214535   23.554566 C.3        1 MOL1        -0.1858
      14    H7      22.084025   20.012332   24.105131 H          1 MOL1         0.0752
      15    H8      22.256466   18.359778   23.555072 H          1 MOL1         0.0752
      16    C6      21.341388   19.687744   22.094155 C.3        1 MOL1        -0.1858
      17    H9      22.317619   19.916412   21.645631 H          1 MOL1         0.0752
      18    H10     20.789302   20.636650   22.100966 H          1 MOL1         0.0752
      19    C7      20.597608   18.680984   21.182367 C.3        1 MOL1        -0.1834
      20    H11     19.582920   18.504503   21.563284 H          1 MOL1         0.0752
      21    H12     20.474674   19.133024   20.188661 H          1 MOL1         0.0752
      22    C8      21.338259   17.335006   21.028038 C.3        1 MOL1        -0.2849
      23    H13     21.390262   16.797072   21.982956 H          1 MOL1         0.0764
      24    H14     20.816538   16.689327   20.309962 H          1 MOL1         0.0764
      25    H15     22.361943   17.489637   20.663217 H          1 MOL1         0.0764
@<TRIPOS>BOND
    1     1     2    1
    2     1     3    2
    3     1     4    1
    4     4     5    1
    5     4     6    1
    6     4     7    1
    7     7     8    1
    8     7     9    1
    9     7    10    1
   10    10    11    1
   11    10    12    1
   12    10    13    1
   13    13    14    1
   14    13    15    1
   15    13    16    1
   16    16    17    1
   17    16    18    1
   18    16    19    1
   19    19    20    1
   20    19    21    1
   21    19    22    1
   22    22    23    1
   23    22    24    1
   24    22    25    1
@<TRIPOS>SUBSTRUCTURE
       1 MOL1            1 RESIDUE      1      MOL     
@<SCITEGIC>MOL_PROPERTY
VConf Rank
SciTegic.value.IntegerValue
660

@<SCITEGIC>MOL_PROPERTY
Conf_Id
SciTegic.value.IntegerValue
30

@<SCITEGIC>MOL_PROPERTY
Delta U+W
SciTegic.value.DoubleValue
0.843

@<SCITEGIC>MOL_PROPERTY
U+W
SciTegic.value.DoubleValue
-50.787

@<SCITEGIC>MOL_PROPERTY
Grad RMS
SciTegic.value.DoubleValue
0.000000

@<SCITEGIC>MOL_PROPERTY
U
SciTegic.value.DoubleValue
8.647

@<SCITEGIC>MOL_PROPERTY
W
SciTegic.value.DoubleValue
-59.434

@<SCITEGIC>MOL_PROPERTY
W(PB)
SciTegic.value.DoubleValue
-61.861

@<SCITEGIC>MOL_PROPERTY
W(SA)
SciTegic.value.DoubleValue
2.428

@<SCITEGIC>MOL_PROPERTY
Valence
SciTegic.value.DoubleValue
8.924

@<SCITEGIC>MOL_PROPERTY
Coulomb
SciTegic.value.DoubleValue
-1.170

@<SCITEGIC>MOL_PROPERTY
VdW
SciTegic.value.DoubleValue
0.894

@<SCITEGIC>MOL_PROPERTY
VdW6
SciTegic.value.DoubleValue
-10.224

@<SCITEGIC>MOL_PROPERTY
VdW12
SciTegic.value.DoubleValue
11.118

@<SCITEGIC>MOL_PROPERTY
Bond
SciTegic.value.DoubleValue
0.231

@<SCITEGIC>MOL_PROPERTY
Angle
SciTegic.value.DoubleValue
3.232

@<SCITEGIC>MOL_PROPERTY
Pdih
SciTegic.value.DoubleValue
5.460

@<SCITEGIC>MOL_PROPERTY
Idih
SciTegic.value.DoubleValue
0.000

@<SCITEGIC>MOL_PROPERTY
Tether
SciTegic.value.DoubleValue
0.000

@<TRIPOS>MOLECULE
guest-8_confgen4.mol2 : confsearch ligand conformer 661
          25          24           1
SMALL
USER_CHARGES
 
@<TRIPOS>ATOM
       1    C1      16.972557   20.327077   26.473565 C.2        1 MOL1         0.6168
       2    O1      16.781134   19.172085   26.802128 O.co2      1 MOL1        -0.6703
       3    O2      16.415180   21.268567   27.001813 O.co2      1 MOL1        -0.6703
       4    C2      17.955599   20.641696   25.344832 C.3        1 MOL1        -0.1963
       5    H1      18.715776   21.318301   25.752563 H          1 MOL1         0.0750
       6    H2      17.405683   21.200961   24.578854 H          1 MOL1         0.0750
       7    C3      18.642364   19.407556   24.701661 C.3        1 MOL1        -0.1860
       8    H3      19.186092   18.848381   25.475735 H          1 MOL1         0.0752
       9    H4      17.874827   18.730954   24.300909 H          1 MOL1         0.0752
      10    C4      19.615990   19.814608   23.574272 C.3        1 MOL1        -0.1858
      11    H5      20.382335   20.490995   23.977203 H          1 MOL1         0.0752
      12    H6      19.070246   20.373475   22.801635 H          1 MOL1         0.0752
      13    C5      20.298019   18.585449   22.935920 C.3        1 MOL1        -0.1858
      14    H7      20.843874   18.026400   23.708325 H          1 MOL1         0.0752
      15    H8      19.531914   17.908894   22.532856 H          1 MOL1         0.0752
      16    C6      21.271666   18.991748   21.808602 C.3        1 MOL1        -0.1858
      17    H9      22.037897   19.668273   22.211462 H          1 MOL1         0.0752
      18    H10     20.725992   19.550727   21.036023 H          1 MOL1         0.0752
      19    C7      21.953483   17.763215   21.170486 C.3        1 MOL1        -0.1834
      20    H11     22.501966   17.202527   21.940086 H          1 MOL1         0.0752
      21    H12     21.190078   17.084983   20.764651 H          1 MOL1         0.0752
      22    C8      22.924890   18.173083   20.045328 C.3        1 MOL1        -0.2849
      23    H13     23.718183   18.827277   20.430182 H          1 MOL1         0.0764
      24    H14     23.400383   17.287932   19.603171 H          1 MOL1         0.0764
      25    H15     22.396424   18.708829   19.245892 H          1 MOL1         0.0764
@<TRIPOS>BOND
    1     1     2    1
    2     1     3    2
    3     1     4    1
    4     4     5    1
    5     4     6    1
    6     4     7    1
    7     7     8    1
    8     7     9    1
    9     7    10    1
   10    10    11    1
   11    10    12    1
   12    10    13    1
   13    13    14    1
   14    13    15    1
   15    13    16    1
   16    16    17    1
   17    16    18    1
   18    16    19    1
   19    19    20    1
   20    19    21    1
   21    19    22    1
   22    22    23    1
   23    22    24    1
   24    22    25    1
@<TRIPOS>SUBSTRUCTURE
       1 MOL1            1 RESIDUE      1      MOL     
@<SCITEGIC>MOL_PROPERTY
VConf Rank
SciTegic.value.IntegerValue
661

@<SCITEGIC>MOL_PROPERTY
Conf_Id
SciTegic.value.IntegerValue
0

@<SCITEGIC>MOL_PROPERTY
Delta U+W
SciTegic.value.DoubleValue
0.000

@<SCITEGIC>MOL_PROPERTY
U+W
SciTegic.value.DoubleValue
-51.629

@<SCITEGIC>MOL_PROPERTY
Grad RMS
SciTegic.value.DoubleValue
0.000000

@<SCITEGIC>MOL_PROPERTY
U
SciTegic.value.DoubleValue
6.586

@<SCITEGIC>MOL_PROPERTY
W
SciTegic.value.DoubleValue
-58.216

@<SCITEGIC>MOL_PROPERTY
W(PB)
SciTegic.value.DoubleValue
-60.757

@<SCITEGIC>MOL_PROPERTY
W(SA)
SciTegic.value.DoubleValue
2.541

@<SCITEGIC>MOL_PROPERTY
Valence
SciTegic.value.DoubleValue
8.027

@<SCITEGIC>MOL_PROPERTY
Coulomb
SciTegic.value.DoubleValue
-2.892

@<SCITEGIC>MOL_PROPERTY
VdW
SciTegic.value.DoubleValue
1.451

@<SCITEGIC>MOL_PROPERTY
VdW6
SciTegic.value.DoubleValue
-7.931

@<SCITEGIC>MOL_PROPERTY
VdW12
SciTegic.value.DoubleValue
9.383

@<SCITEGIC>MOL_PROPERTY
Bond
SciTegic.value.DoubleValue
0.149

@<SCITEGIC>MOL_PROPERTY
Angle
SciTegic.value.DoubleValue
2.726

@<SCITEGIC>MOL_PROPERTY
Pdih
SciTegic.value.DoubleValue
5.152

@<SCITEGIC>MOL_PROPERTY
Idih
SciTegic.value.DoubleValue
0.000

@<SCITEGIC>MOL_PROPERTY
Tether
SciTegic.value.DoubleValue
0.000

@<TRIPOS>MOLECULE
guest-8_confgen4.mol2 : confsearch ligand conformer 662
          25          24           1
SMALL
USER_CHARGES
 
@<TRIPOS>ATOM
       1    C1      24.522542   18.312199   21.814964 C.2        1 MOL1         0.6168
       2    O1      24.737432   17.162978   21.483702 O.co2      1 MOL1        -0.6703
       3    O2      25.092579   19.270259   21.331436 O.co2      1 MOL1        -0.6703
       4    C2      23.462314   18.567842   22.880160 C.3        1 MOL1        -0.1963
       5    H1      23.759232   19.456577   23.449891 H          1 MOL1         0.0750
       6    H2      23.467066   17.720103   23.575806 H          1 MOL1         0.0750
       7    C3      22.046273   18.762903   22.284507 C.3        1 MOL1        -0.1860
       8    H3      22.061746   19.606621   21.580594 H          1 MOL1         0.0752
       9    H4      21.769663   17.870242   21.706375 H          1 MOL1         0.0752
      10    C4      20.991217   19.019887   23.382159 C.3        1 MOL1        -0.1858
      11    H5      21.271208   19.912152   23.958916 H          1 MOL1         0.0752
      12    H6      20.979223   18.175362   24.084879 H          1 MOL1         0.0752
      13    C5      19.580622   19.213737   22.785408 C.3        1 MOL1        -0.1858
      14    H7      19.592353   20.058246   22.082719 H          1 MOL1         0.0752
      15    H8      19.300437   18.321588   22.208633 H          1 MOL1         0.0752
      16    C6      18.525027   19.470707   23.882479 C.3        1 MOL1        -0.1858
      17    H9      18.804874   20.362874   24.459383 H          1 MOL1         0.0752
      18    H10     18.513044   18.626346   24.585335 H          1 MOL1         0.0752
      19    C7      17.114970   19.664418   23.286176 C.3        1 MOL1        -0.1834
      20    H11     17.122617   20.509535   22.583888 H          1 MOL1         0.0752
      21    H12     16.830777   18.773018   22.709869 H          1 MOL1         0.0752
      22    C8      16.063814   19.920782   24.384788 C.3        1 MOL1        -0.2849
      23    H13     15.067878   20.056136   23.943340 H          1 MOL1         0.0764
      24    H14     16.012536   19.076037   25.084198 H          1 MOL1         0.0764
      25    H15     16.306577   20.825622   24.957263 H          1 MOL1         0.0764
@<TRIPOS>BOND
    1     1     2    1
    2     1     3    2
    3     1     4    1
    4     4     5    1
    5     4     6    1
    6     4     7    1
    7     7     8    1
    8     7     9    1
    9     7    10    1
   10    10    11    1
   11    10    12    1
   12    10    13    1
   13    13    14    1
   14    13    15    1
   15    13    16    1
   16    16    17    1
   17    16    18    1
   18    16    19    1
   19    19    20    1
   20    19    21    1
   21    19    22    1
   22    22    23    1
   23    22    24    1
   24    22    25    1
@<TRIPOS>SUBSTRUCTURE
       1 MOL1            1 RESIDUE      1      MOL     
@<SCITEGIC>MOL_PROPERTY
VConf Rank
SciTegic.value.IntegerValue
662

@<SCITEGIC>MOL_PROPERTY
Conf_Id
SciTegic.value.IntegerValue
27

@<SCITEGIC>MOL_PROPERTY
Delta U+W
SciTegic.value.DoubleValue
-1.297

@<SCITEGIC>MOL_PROPERTY
U+W
SciTegic.value.DoubleValue
-52.926

@<SCITEGIC>MOL_PROPERTY
Grad RMS
SciTegic.value.DoubleValue
0.000000

@<SCITEGIC>MOL_PROPERTY
U
SciTegic.value.DoubleValue
5.617

@<SCITEGIC>MOL_PROPERTY
W
SciTegic.value.DoubleValue
-58.543

@<SCITEGIC>MOL_PROPERTY
W(PB)
SciTegic.value.DoubleValue
-61.065

@<SCITEGIC>MOL_PROPERTY
W(SA)
SciTegic.value.DoubleValue
2.522

@<SCITEGIC>MOL_PROPERTY
Valence
SciTegic.value.DoubleValue
7.531

@<SCITEGIC>MOL_PROPERTY
Coulomb
SciTegic.value.DoubleValue
-2.818

@<SCITEGIC>MOL_PROPERTY
VdW
SciTegic.value.DoubleValue
0.904

@<SCITEGIC>MOL_PROPERTY
VdW6
SciTegic.value.DoubleValue
-7.640

@<SCITEGIC>MOL_PROPERTY
VdW12
SciTegic.value.DoubleValue
8.544

@<SCITEGIC>MOL_PROPERTY
Bond
SciTegic.value.DoubleValue
0.115

@<SCITEGIC>MOL_PROPERTY
Angle
SciTegic.value.DoubleValue
2.271

@<SCITEGIC>MOL_PROPERTY
Pdih
SciTegic.value.DoubleValue
5.144

@<SCITEGIC>MOL_PROPERTY
Idih
SciTegic.value.DoubleValue
0.001

@<SCITEGIC>MOL_PROPERTY
Tether
SciTegic.value.DoubleValue
0.000

@<TRIPOS>MOLECULE
guest-8_confgen4.mol2 : confsearch ligand conformer 663
          25          24           1
SMALL
USER_CHARGES
 
@<TRIPOS>ATOM
       1    C1      18.489870   15.456414   23.321450 C.2        1 MOL1         0.6168
       2    O1      19.284057   14.537378   23.362866 O.co2      1 MOL1        -0.6703
       3    O2      17.711234   15.713656   24.218398 O.co2      1 MOL1        -0.6703
       4    C2      18.458923   16.323466   22.065971 C.3        1 MOL1        -0.1963
       5    H1      17.501586   16.857561   22.032888 H          1 MOL1         0.0750
       6    H2      18.476415   15.649397   21.201501 H          1 MOL1         0.0750
       7    C3      19.636408   17.327513   21.964168 C.3        1 MOL1        -0.1860
       8    H3      20.587516   16.780550   22.026604 H          1 MOL1         0.0752
       9    H4      19.611680   17.806814   20.976136 H          1 MOL1         0.0752
      10    C4      19.585692   18.415949   23.059843 C.3        1 MOL1        -0.1858
      11    H5      19.627717   17.945027   24.051755 H          1 MOL1         0.0752
      12    H6      18.627734   18.950719   23.001876 H          1 MOL1         0.0752
      13    C5      20.748153   19.422350   22.920291 C.3        1 MOL1        -0.1858
      14    H7      21.705633   18.886680   22.978399 H          1 MOL1         0.0752
      15    H8      20.706370   19.896749   21.930221 H          1 MOL1         0.0752
      16    C6      20.698601   20.509728   24.015286 C.3        1 MOL1        -0.1858
      17    H9      20.740304   20.035453   25.005464 H          1 MOL1         0.0752
      18    H10     19.741039   21.045291   23.957586 H          1 MOL1         0.0752
      19    C7      21.860633   21.515610   23.876532 C.3        1 MOL1        -0.1834
      20    H11     22.820241   20.983501   23.935648 H          1 MOL1         0.0752
      21    H12     21.820933   21.993428   22.887799 H          1 MOL1         0.0752
      22    C8      21.807592   22.599587   24.971880 C.3        1 MOL1        -0.2849
      23    H13     21.877379   22.151431   25.971721 H          1 MOL1         0.0764
      24    H14     22.640414   23.305670   24.858144 H          1 MOL1         0.0764
      25    H15     20.870521   23.168949   24.916030 H          1 MOL1         0.0764
@<TRIPOS>BOND
    1     1     2    1
    2     1     3    2
    3     1     4    1
    4     4     5    1
    5     4     6    1
    6     4     7    1
    7     7     8    1
    8     7     9    1
    9     7    10    1
   10    10    11    1
   11    10    12    1
   12    10    13    1
   13    13    14    1
   14    13    15    1
   15    13    16    1
   16    16    17    1
   17    16    18    1
   18    16    19    1
   19    19    20    1
   20    19    21    1
   21    19    22    1
   22    22    23    1
   23    22    24    1
   24    22    25    1
@<TRIPOS>SUBSTRUCTURE
       1 MOL1            1 RESIDUE      1      MOL     
@<SCITEGIC>MOL_PROPERTY
VConf Rank
SciTegic.value.IntegerValue
663

@<SCITEGIC>MOL_PROPERTY
Conf_Id
SciTegic.value.IntegerValue
37

@<SCITEGIC>MOL_PROPERTY
Delta U+W
SciTegic.value.DoubleValue
-0.230

@<SCITEGIC>MOL_PROPERTY
U+W
SciTegic.value.DoubleValue
-51.860

@<SCITEGIC>MOL_PROPERTY
Grad RMS
SciTegic.value.DoubleValue
0.000000

@<SCITEGIC>MOL_PROPERTY
U
SciTegic.value.DoubleValue
7.816

@<SCITEGIC>MOL_PROPERTY
W
SciTegic.value.DoubleValue
-59.675

@<SCITEGIC>MOL_PROPERTY
W(PB)
SciTegic.value.DoubleValue
-62.180

@<SCITEGIC>MOL_PROPERTY
W(SA)
SciTegic.value.DoubleValue
2.505

@<SCITEGIC>MOL_PROPERTY
Valence
SciTegic.value.DoubleValue
7.785

@<SCITEGIC>MOL_PROPERTY
Coulomb
SciTegic.value.DoubleValue
-0.713

@<SCITEGIC>MOL_PROPERTY
VdW
SciTegic.value.DoubleValue
0.744

@<SCITEGIC>MOL_PROPERTY
VdW6
SciTegic.value.DoubleValue
-8.514

@<SCITEGIC>MOL_PROPERTY
VdW12
SciTegic.value.DoubleValue
9.259

@<SCITEGIC>MOL_PROPERTY
Bond
SciTegic.value.DoubleValue
0.136

@<SCITEGIC>MOL_PROPERTY
Angle
SciTegic.value.DoubleValue
2.433

@<SCITEGIC>MOL_PROPERTY
Pdih
SciTegic.value.DoubleValue
5.216

@<SCITEGIC>MOL_PROPERTY
Idih
SciTegic.value.DoubleValue
0.000

@<SCITEGIC>MOL_PROPERTY
Tether
SciTegic.value.DoubleValue
0.000

@<TRIPOS>MOLECULE
guest-8_confgen4.mol2 : confsearch ligand conformer 664
          25          24           1
SMALL
USER_CHARGES
 
@<TRIPOS>ATOM
       1    C1      17.075045   16.556667   23.423362 C.2        1 MOL1         0.6168
       2    O1      17.262372   15.681145   24.245216 O.co2      1 MOL1        -0.6703
       3    O2      17.083616   16.365779   22.223174 O.co2      1 MOL1        -0.6703
       4    C2      16.797885   17.969633   23.929007 C.3        1 MOL1        -0.1963
       5    H1      16.062685   17.889863   24.738390 H          1 MOL1         0.0750
       6    H2      16.322661   18.542720   23.123663 H          1 MOL1         0.0750
       7    C3      18.057485   18.713071   24.444423 C.3        1 MOL1        -0.1860
       8    H3      17.747593   19.657617   24.911699 H          1 MOL1         0.0752
       9    H4      18.537508   18.113838   25.230661 H          1 MOL1         0.0752
      10    C4      19.073874   19.010730   23.319203 C.3        1 MOL1        -0.1858
      11    H5      18.585687   19.598383   22.529670 H          1 MOL1         0.0752
      12    H6      19.402064   18.068897   22.858047 H          1 MOL1         0.0752
      13    C5      20.304257   19.778603   23.848505 C.3        1 MOL1        -0.1858
      14    H7      19.978759   20.722209   24.307520 H          1 MOL1         0.0752
      15    H8      20.791814   19.190135   24.637860 H          1 MOL1         0.0752
      16    C6      21.320609   20.075761   22.724858 C.3        1 MOL1        -0.1858
      17    H9      20.833170   20.663981   21.935250 H          1 MOL1         0.0752
      18    H10     21.646123   19.132216   22.265629 H          1 MOL1         0.0752
      19    C7      22.550894   20.842733   23.253551 C.3        1 MOL1        -0.1834
      20    H11     22.229178   21.788113   23.712064 H          1 MOL1         0.0752
      21    H12     23.042169   20.256281   24.042351 H          1 MOL1         0.0752
      22    C8      23.563277   21.137444   22.128459 C.3        1 MOL1        -0.2849
      23    H13     23.106928   21.750167   21.339973 H          1 MOL1         0.0764
      24    H14     24.431027   21.682745   22.521828 H          1 MOL1         0.0764
      25    H15     23.925977   20.206782   21.672703 H          1 MOL1         0.0764
@<TRIPOS>BOND
    1     1     2    1
    2     1     3    2
    3     1     4    1
    4     4     5    1
    5     4     6    1
    6     4     7    1
    7     7     8    1
    8     7     9    1
    9     7    10    1
   10    10    11    1
   11    10    12    1
   12    10    13    1
   13    13    14    1
   14    13    15    1
   15    13    16    1
   16    16    17    1
   17    16    18    1
   18    16    19    1
   19    19    20    1
   20    19    21    1
   21    19    22    1
   22    22    23    1
   23    22    24    1
   24    22    25    1
@<TRIPOS>SUBSTRUCTURE
       1 MOL1            1 RESIDUE      1      MOL     
@<SCITEGIC>MOL_PROPERTY
VConf Rank
SciTegic.value.IntegerValue
664

@<SCITEGIC>MOL_PROPERTY
Conf_Id
SciTegic.value.IntegerValue
54

@<SCITEGIC>MOL_PROPERTY
Delta U+W
SciTegic.value.DoubleValue
-0.224

@<SCITEGIC>MOL_PROPERTY
U+W
SciTegic.value.DoubleValue
-51.854

@<SCITEGIC>MOL_PROPERTY
Grad RMS
SciTegic.value.DoubleValue
0.000000

@<SCITEGIC>MOL_PROPERTY
U
SciTegic.value.DoubleValue
7.816

@<SCITEGIC>MOL_PROPERTY
W
SciTegic.value.DoubleValue
-59.670

@<SCITEGIC>MOL_PROPERTY
W(PB)
SciTegic.value.DoubleValue
-62.157

@<SCITEGIC>MOL_PROPERTY
W(SA)
SciTegic.value.DoubleValue
2.487

@<SCITEGIC>MOL_PROPERTY
Valence
SciTegic.value.DoubleValue
7.785

@<SCITEGIC>MOL_PROPERTY
Coulomb
SciTegic.value.DoubleValue
-0.713

@<SCITEGIC>MOL_PROPERTY
VdW
SciTegic.value.DoubleValue
0.744

@<SCITEGIC>MOL_PROPERTY
VdW6
SciTegic.value.DoubleValue
-8.515

@<SCITEGIC>MOL_PROPERTY
VdW12
SciTegic.value.DoubleValue
9.259

@<SCITEGIC>MOL_PROPERTY
Bond
SciTegic.value.DoubleValue
0.136

@<SCITEGIC>MOL_PROPERTY
Angle
SciTegic.value.DoubleValue
2.433

@<SCITEGIC>MOL_PROPERTY
Pdih
SciTegic.value.DoubleValue
5.215

@<SCITEGIC>MOL_PROPERTY
Idih
SciTegic.value.DoubleValue
0.000

@<SCITEGIC>MOL_PROPERTY
Tether
SciTegic.value.DoubleValue
0.000

@<TRIPOS>MOLECULE
guest-8_confgen4.mol2 : confsearch ligand conformer 665
          25          24           1
SMALL
USER_CHARGES
 
@<TRIPOS>ATOM
       1    C1      19.467105   21.167425   19.876737 C.2        1 MOL1         0.6168
       2    O1      20.564527   21.555398   19.527177 O.co2      1 MOL1        -0.6703
       3    O2      18.695294   20.582247   19.142582 O.co2      1 MOL1        -0.6703
       4    C2      19.024433   21.445609   21.310557 C.3        1 MOL1        -0.1963
       5    H1      17.999763   21.833047   21.266822 H          1 MOL1         0.0750
       6    H2      19.649789   22.247567   21.721195 H          1 MOL1         0.0750
       7    C3      19.068871   20.203531   22.238421 C.3        1 MOL1        -0.1860
       8    H3      18.589617   20.464802   23.190186 H          1 MOL1         0.0752
       9    H4      18.471798   19.395584   21.793309 H          1 MOL1         0.0752
      10    C4      20.512039   19.707796   22.498163 C.3        1 MOL1        -0.1858
      11    H5      21.095393   20.501226   22.984932 H          1 MOL1         0.0752
      12    H6      21.002710   19.510710   21.535159 H          1 MOL1         0.0752
      13    C5      20.580286   18.417141   23.349342 C.3        1 MOL1        -0.1858
      14    H7      19.981409   17.629753   22.871908 H          1 MOL1         0.0752
      15    H8      21.619138   18.063680   23.344471 H          1 MOL1         0.0752
      16    C6      20.113043   18.615561   24.812607 C.3        1 MOL1        -0.1858
      17    H9      19.071982   18.961978   24.820427 H          1 MOL1         0.0752
      18    H10     20.708877   19.406553   25.287928 H          1 MOL1         0.0752
      19    C7      20.193129   17.326125   25.663152 C.3        1 MOL1        -0.1834
      20    H11     19.718595   17.516902   26.635606 H          1 MOL1         0.0752
      21    H12     19.608338   16.528633   25.184271 H          1 MOL1         0.0752
      22    C8      21.638235   16.838346   25.905388 C.3        1 MOL1        -0.2849
      23    H13     22.116184   16.518013   24.971388 H          1 MOL1         0.0764
      24    H14     22.251206   17.631928   26.352161 H          1 MOL1         0.0764
      25    H15     21.643608   15.981180   26.591058 H          1 MOL1         0.0764
@<TRIPOS>BOND
    1     1     2    1
    2     1     3    2
    3     1     4    1
    4     4     5    1
    5     4     6    1
    6     4     7    1
    7     7     8    1
    8     7     9    1
    9     7    10    1
   10    10    11    1
   11    10    12    1
   12    10    13    1
   13    13    14    1
   14    13    15    1
   15    13    16    1
   16    16    17    1
   17    16    18    1
   18    16    19    1
   19    19    20    1
   20    19    21    1
   21    19    22    1
   22    22    23    1
   23    22    24    1
   24    22    25    1
@<TRIPOS>SUBSTRUCTURE
       1 MOL1            1 RESIDUE      1      MOL     
@<SCITEGIC>MOL_PROPERTY
VConf Rank
SciTegic.value.IntegerValue
665

@<SCITEGIC>MOL_PROPERTY
Conf_Id
SciTegic.value.IntegerValue
101

@<SCITEGIC>MOL_PROPERTY
Delta U+W
SciTegic.value.DoubleValue
1.534

@<SCITEGIC>MOL_PROPERTY
U+W
SciTegic.value.DoubleValue
-50.095

@<SCITEGIC>MOL_PROPERTY
Grad RMS
SciTegic.value.DoubleValue
0.000000

@<SCITEGIC>MOL_PROPERTY
U
SciTegic.value.DoubleValue
9.416

@<SCITEGIC>MOL_PROPERTY
W
SciTegic.value.DoubleValue
-59.512

@<SCITEGIC>MOL_PROPERTY
W(PB)
SciTegic.value.DoubleValue
-61.988

@<SCITEGIC>MOL_PROPERTY
W(SA)
SciTegic.value.DoubleValue
2.476

@<SCITEGIC>MOL_PROPERTY
Valence
SciTegic.value.DoubleValue
8.939

@<SCITEGIC>MOL_PROPERTY
Coulomb
SciTegic.value.DoubleValue
-0.615

@<SCITEGIC>MOL_PROPERTY
VdW
SciTegic.value.DoubleValue
1.092

@<SCITEGIC>MOL_PROPERTY
VdW6
SciTegic.value.DoubleValue
-9.710

@<SCITEGIC>MOL_PROPERTY
VdW12
SciTegic.value.DoubleValue
10.802

@<SCITEGIC>MOL_PROPERTY
Bond
SciTegic.value.DoubleValue
0.216

@<SCITEGIC>MOL_PROPERTY
Angle
SciTegic.value.DoubleValue
2.979

@<SCITEGIC>MOL_PROPERTY
Pdih
SciTegic.value.DoubleValue
5.743

@<SCITEGIC>MOL_PROPERTY
Idih
SciTegic.value.DoubleValue
0.000

@<SCITEGIC>MOL_PROPERTY
Tether
SciTegic.value.DoubleValue
0.000

@<TRIPOS>MOLECULE
guest-8_confgen4.mol2 : confsearch ligand conformer 666
          25          24           1
SMALL
USER_CHARGES
 
@<TRIPOS>ATOM
       1    C1      23.632451   21.057943   22.023440 C.2        1 MOL1         0.6168
       2    O1      23.407835   21.587432   20.952961 O.co2      1 MOL1        -0.6703
       3    O2      24.554111   21.373231   22.750015 O.co2      1 MOL1        -0.6703
       4    C2      22.692820   19.952334   22.491299 C.3        1 MOL1        -0.1963
       5    H1      23.274164   19.244911   23.094566 H          1 MOL1         0.0750
       6    H2      22.345015   19.413821   21.602819 H          1 MOL1         0.0750
       7    C3      21.491915   20.493384   23.310229 C.3        1 MOL1        -0.1860
       8    H3      21.878156   21.108520   24.134760 H          1 MOL1         0.0752
       9    H4      20.889100   21.162508   22.680795 H          1 MOL1         0.0752
      10    C4      20.592803   19.381909   23.902623 C.3        1 MOL1        -0.1858
      11    H5      19.866205   19.856576   24.574365 H          1 MOL1         0.0752
      12    H6      21.199288   18.708677   24.523510 H          1 MOL1         0.0752
      13    C5      19.836825   18.563270   22.827342 C.3        1 MOL1        -0.1858
      14    H7      19.230106   19.235941   22.207324 H          1 MOL1         0.0752
      15    H8      20.560825   18.094531   22.149238 H          1 MOL1         0.0752
      16    C6      18.946259   17.440372   23.417551 C.3        1 MOL1        -0.1858
      17    H9      19.583794   16.730158   23.961448 H          1 MOL1         0.0752
      18    H10     18.501579   16.873641   22.588247 H          1 MOL1         0.0752
      19    C7      17.811955   17.914694   24.359800 C.3        1 MOL1        -0.1834
      20    H11     17.259726   17.032750   24.712309 H          1 MOL1         0.0752
      21    H12     18.235080   18.384359   25.257421 H          1 MOL1         0.0752
      22    C8      16.818659   18.884068   23.683325 C.3        1 MOL1        -0.2849
      23    H13     16.400807   18.443646   22.768773 H          1 MOL1         0.0764
      24    H14     15.985498   19.114496   24.359722 H          1 MOL1         0.0764
      25    H15     17.304325   19.831953   23.419279 H          1 MOL1         0.0764
@<TRIPOS>BOND
    1     1     2    1
    2     1     3    2
    3     1     4    1
    4     4     5    1
    5     4     6    1
    6     4     7    1
    7     7     8    1
    8     7     9    1
    9     7    10    1
   10    10    11    1
   11    10    12    1
   12    10    13    1
   13    13    14    1
   14    13    15    1
   15    13    16    1
   16    16    17    1
   17    16    18    1
   18    16    19    1
   19    19    20    1
   20    19    21    1
   21    19    22    1
   22    22    23    1
   23    22    24    1
   24    22    25    1
@<TRIPOS>SUBSTRUCTURE
       1 MOL1            1 RESIDUE      1      MOL     
@<SCITEGIC>MOL_PROPERTY
VConf Rank
SciTegic.value.IntegerValue
666

@<SCITEGIC>MOL_PROPERTY
Conf_Id
SciTegic.value.IntegerValue
75

@<SCITEGIC>MOL_PROPERTY
Delta U+W
SciTegic.value.DoubleValue
1.014

@<SCITEGIC>MOL_PROPERTY
U+W
SciTegic.value.DoubleValue
-50.615

@<SCITEGIC>MOL_PROPERTY
Grad RMS
SciTegic.value.DoubleValue
0.000000

@<SCITEGIC>MOL_PROPERTY
U
SciTegic.value.DoubleValue
8.474

@<SCITEGIC>MOL_PROPERTY
W
SciTegic.value.DoubleValue
-59.089

@<SCITEGIC>MOL_PROPERTY
W(PB)
SciTegic.value.DoubleValue
-61.530

@<SCITEGIC>MOL_PROPERTY
W(SA)
SciTegic.value.DoubleValue
2.441

@<SCITEGIC>MOL_PROPERTY
Valence
SciTegic.value.DoubleValue
9.080

@<SCITEGIC>MOL_PROPERTY
Coulomb
SciTegic.value.DoubleValue
-1.772

@<SCITEGIC>MOL_PROPERTY
VdW
SciTegic.value.DoubleValue
1.165

@<SCITEGIC>MOL_PROPERTY
VdW6
SciTegic.value.DoubleValue
-9.830

@<SCITEGIC>MOL_PROPERTY
VdW12
SciTegic.value.DoubleValue
10.996

@<SCITEGIC>MOL_PROPERTY
Bond
SciTegic.value.DoubleValue
0.240

@<SCITEGIC>MOL_PROPERTY
Angle
SciTegic.value.DoubleValue
3.225

@<SCITEGIC>MOL_PROPERTY
Pdih
SciTegic.value.DoubleValue
5.615

@<SCITEGIC>MOL_PROPERTY
Idih
SciTegic.value.DoubleValue
0.001

@<SCITEGIC>MOL_PROPERTY
Tether
SciTegic.value.DoubleValue
0.000

@<TRIPOS>MOLECULE
guest-8_confgen4.mol2 : confsearch ligand conformer 667
          25          24           1
SMALL
USER_CHARGES
 
@<TRIPOS>ATOM
       1    C1      20.958818   19.376856   27.423134 C.2        1 MOL1         0.6168
       2    O1      20.211526   18.616076   28.005732 O.co2      1 MOL1        -0.6703
       3    O2      22.047122   19.709644   27.849179 O.co2      1 MOL1        -0.6703
       4    C2      20.515493   19.927722   26.072545 C.3        1 MOL1        -0.1963
       5    H1      20.935277   20.934631   25.960852 H          1 MOL1         0.0750
       6    H2      19.423884   20.031342   26.088647 H          1 MOL1         0.0750
       7    C3      20.949960   19.032656   24.885878 C.3        1 MOL1        -0.1860
       8    H3      22.043829   18.928185   24.891312 H          1 MOL1         0.0752
       9    H4      20.532416   18.025046   25.019722 H          1 MOL1         0.0752
      10    C4      20.488127   19.610601   23.530577 C.3        1 MOL1        -0.1858
      11    H5      20.907398   20.617740   23.401367 H          1 MOL1         0.0752
      12    H6      19.397422   19.722561   23.537042 H          1 MOL1         0.0752
      13    C5      20.929654   18.716225   22.348256 C.3        1 MOL1        -0.1858
      14    H7      22.026484   18.654588   22.357232 H          1 MOL1         0.0752
      15    H8      20.564258   17.689661   22.487797 H          1 MOL1         0.0752
      16    C6      20.479521   19.257128   20.967231 C.3        1 MOL1        -0.1858
      17    H9      21.272401   19.036729   20.239472 H          1 MOL1         0.0752
      18    H10     20.396595   20.352194   20.995319 H          1 MOL1         0.0752
      19    C7      19.166691   18.637956   20.426854 C.3        1 MOL1        -0.1834
      20    H11     18.987418   19.028830   19.415790 H          1 MOL1         0.0752
      21    H12     19.289387   17.551455   20.318692 H          1 MOL1         0.0752
      22    C8      17.925609   18.928656   21.296095 C.3        1 MOL1        -0.2849
      23    H13     17.814692   20.005608   21.477297 H          1 MOL1         0.0764
      24    H14     17.015209   18.573538   20.796277 H          1 MOL1         0.0764
      25    H15     17.991989   18.416421   22.263998 H          1 MOL1         0.0764
@<TRIPOS>BOND
    1     1     2    1
    2     1     3    2
    3     1     4    1
    4     4     5    1
    5     4     6    1
    6     4     7    1
    7     7     8    1
    8     7     9    1
    9     7    10    1
   10    10    11    1
   11    10    12    1
   12    10    13    1
   13    13    14    1
   14    13    15    1
   15    13    16    1
   16    16    17    1
   17    16    18    1
   18    16    19    1
   19    19    20    1
   20    19    21    1
   21    19    22    1
   22    22    23    1
   23    22    24    1
   24    22    25    1
@<TRIPOS>SUBSTRUCTURE
       1 MOL1            1 RESIDUE      1      MOL     
@<SCITEGIC>MOL_PROPERTY
VConf Rank
SciTegic.value.IntegerValue
667

@<SCITEGIC>MOL_PROPERTY
Conf_Id
SciTegic.value.IntegerValue
125

@<SCITEGIC>MOL_PROPERTY
Delta U+W
SciTegic.value.DoubleValue
2.314

@<SCITEGIC>MOL_PROPERTY
U+W
SciTegic.value.DoubleValue
-49.315

@<SCITEGIC>MOL_PROPERTY
Grad RMS
SciTegic.value.DoubleValue
0.000000

@<SCITEGIC>MOL_PROPERTY
U
SciTegic.value.DoubleValue
9.740

@<SCITEGIC>MOL_PROPERTY
W
SciTegic.value.DoubleValue
-59.054

@<SCITEGIC>MOL_PROPERTY
W(PB)
SciTegic.value.DoubleValue
-61.488

@<SCITEGIC>MOL_PROPERTY
W(SA)
SciTegic.value.DoubleValue
2.433

@<SCITEGIC>MOL_PROPERTY
Valence
SciTegic.value.DoubleValue
10.506

@<SCITEGIC>MOL_PROPERTY
Coulomb
SciTegic.value.DoubleValue
-1.761

@<SCITEGIC>MOL_PROPERTY
VdW
SciTegic.value.DoubleValue
0.994

@<SCITEGIC>MOL_PROPERTY
VdW6
SciTegic.value.DoubleValue
-9.209

@<SCITEGIC>MOL_PROPERTY
VdW12
SciTegic.value.DoubleValue
10.203

@<SCITEGIC>MOL_PROPERTY
Bond
SciTegic.value.DoubleValue
0.193

@<SCITEGIC>MOL_PROPERTY
Angle
SciTegic.value.DoubleValue
2.979

@<SCITEGIC>MOL_PROPERTY
Pdih
SciTegic.value.DoubleValue
7.334

@<SCITEGIC>MOL_PROPERTY
Idih
SciTegic.value.DoubleValue
0.001

@<SCITEGIC>MOL_PROPERTY
Tether
SciTegic.value.DoubleValue
0.000

@<TRIPOS>MOLECULE
guest-8_confgen4.mol2 : confsearch ligand conformer 668
          25          24           1
SMALL
USER_CHARGES
 
@<TRIPOS>ATOM
       1    C1      23.747992   18.007717   24.768343 C.2        1 MOL1         0.6168
       2    O1      23.903754   18.660055   25.781697 O.co2      1 MOL1        -0.6703
       3    O2      24.610935   17.304178   24.281411 O.co2      1 MOL1        -0.6703
       4    C2      22.403605   18.095472   24.054941 C.3        1 MOL1        -0.1963
       5    H1      21.630056   18.233994   24.818586 H          1 MOL1         0.0750
       6    H2      22.212910   17.131206   23.568957 H          1 MOL1         0.0750
       7    C3      22.352829   19.240711   23.010388 C.3        1 MOL1        -0.1860
       8    H3      22.498472   20.205249   23.516137 H          1 MOL1         0.0752
       9    H4      23.197502   19.123407   22.317414 H          1 MOL1         0.0752
      10    C4      21.040609   19.272741   22.191118 C.3        1 MOL1        -0.1858
      11    H5      20.902812   18.310560   21.679072 H          1 MOL1         0.0752
      12    H6      21.140539   20.032331   21.403750 H          1 MOL1         0.0752
      13    C5      19.790770   19.592453   23.043691 C.3        1 MOL1        -0.1858
      14    H7      19.643308   18.802560   23.789983 H          1 MOL1         0.0752
      15    H8      19.951321   20.529986   23.593071 H          1 MOL1         0.0752
      16    C6      18.521711   19.717728   22.169047 C.3        1 MOL1        -0.1858
      17    H9      18.331841   18.765943   21.654320 H          1 MOL1         0.0752
      18    H10     18.700216   20.465548   21.384353 H          1 MOL1         0.0752
      19    C7      17.263728   20.134597   22.966240 C.3        1 MOL1        -0.1834
      20    H11     17.448293   21.089177   23.478118 H          1 MOL1         0.0752
      21    H12     16.442562   20.315671   22.259045 H          1 MOL1         0.0752
      22    C8      16.810320   19.073842   23.992790 C.3        1 MOL1        -0.2849
      23    H13     17.553195   18.943861   24.789615 H          1 MOL1         0.0764
      24    H14     15.866559   19.375722   24.465103 H          1 MOL1         0.0764
      25    H15     16.650115   18.101701   23.508659 H          1 MOL1         0.0764
@<TRIPOS>BOND
    1     1     2    1
    2     1     3    2
    3     1     4    1
    4     4     5    1
    5     4     6    1
    6     4     7    1
    7     7     8    1
    8     7     9    1
    9     7    10    1
   10    10    11    1
   11    10    12    1
   12    10    13    1
   13    13    14    1
   14    13    15    1
   15    13    16    1
   16    16    17    1
   17    16    18    1
   18    16    19    1
   19    19    20    1
   20    19    21    1
   21    19    22    1
   22    22    23    1
   23    22    24    1
   24    22    25    1
@<TRIPOS>SUBSTRUCTURE
       1 MOL1            1 RESIDUE      1      MOL     
@<SCITEGIC>MOL_PROPERTY
VConf Rank
SciTegic.value.IntegerValue
668

@<SCITEGIC>MOL_PROPERTY
Conf_Id
SciTegic.value.IntegerValue
4

@<SCITEGIC>MOL_PROPERTY
Delta U+W
SciTegic.value.DoubleValue
0.189

@<SCITEGIC>MOL_PROPERTY
U+W
SciTegic.value.DoubleValue
-51.441

@<SCITEGIC>MOL_PROPERTY
Grad RMS
SciTegic.value.DoubleValue
0.000000

@<SCITEGIC>MOL_PROPERTY
U
SciTegic.value.DoubleValue
7.701

@<SCITEGIC>MOL_PROPERTY
W
SciTegic.value.DoubleValue
-59.141

@<SCITEGIC>MOL_PROPERTY
W(PB)
SciTegic.value.DoubleValue
-61.609

@<SCITEGIC>MOL_PROPERTY
W(SA)
SciTegic.value.DoubleValue
2.467

@<SCITEGIC>MOL_PROPERTY
Valence
SciTegic.value.DoubleValue
8.550

@<SCITEGIC>MOL_PROPERTY
Coulomb
SciTegic.value.DoubleValue
-1.988

@<SCITEGIC>MOL_PROPERTY
VdW
SciTegic.value.DoubleValue
1.139

@<SCITEGIC>MOL_PROPERTY
VdW6
SciTegic.value.DoubleValue
-8.988

@<SCITEGIC>MOL_PROPERTY
VdW12
SciTegic.value.DoubleValue
10.127

@<SCITEGIC>MOL_PROPERTY
Bond
SciTegic.value.DoubleValue
0.191

@<SCITEGIC>MOL_PROPERTY
Angle
SciTegic.value.DoubleValue
2.738

@<SCITEGIC>MOL_PROPERTY
Pdih
SciTegic.value.DoubleValue
5.621

@<SCITEGIC>MOL_PROPERTY
Idih
SciTegic.value.DoubleValue
0.001

@<SCITEGIC>MOL_PROPERTY
Tether
SciTegic.value.DoubleValue
0.000

@<TRIPOS>MOLECULE
guest-8_confgen4.mol2 : confsearch ligand conformer 669
          25          24           1
SMALL
USER_CHARGES
 
@<TRIPOS>ATOM
       1    C1      24.022823   19.306103   22.397218 C.2        1 MOL1         0.6168
       2    O1      24.562862   19.784240   23.375194 O.co2      1 MOL1        -0.6703
       3    O2      24.630023   18.837736   21.454520 O.co2      1 MOL1        -0.6703
       4    C2      22.499191   19.270444   22.361202 C.3        1 MOL1        -0.1963
       5    H1      22.181525   19.360144   21.315545 H          1 MOL1         0.0750
       6    H2      22.132961   20.157470   22.890146 H          1 MOL1         0.0750
       7    C3      21.914738   17.978484   22.989289 C.3        1 MOL1        -0.1860
       8    H3      22.374333   17.109108   22.498978 H          1 MOL1         0.0752
       9    H4      22.200660   17.923859   24.048815 H          1 MOL1         0.0752
      10    C4      20.377208   17.866957   22.856177 C.3        1 MOL1        -0.1858
      11    H5      20.067577   16.877058   23.218308 H          1 MOL1         0.0752
      12    H6      20.095393   17.911948   21.795268 H          1 MOL1         0.0752
      13    C5      19.610990   18.954159   23.644909 C.3        1 MOL1        -0.1858
      14    H7      19.931421   18.939801   24.695471 H          1 MOL1         0.0752
      15    H8      19.861975   19.943839   23.244702 H          1 MOL1         0.0752
      16    C6      18.081286   18.740964   23.569034 C.3        1 MOL1        -0.1858
      17    H9      17.844116   17.724602   23.911964 H          1 MOL1         0.0752
      18    H10     17.750862   18.801398   22.523063 H          1 MOL1         0.0752
      19    C7      17.276657   19.747122   24.424625 C.3        1 MOL1        -0.1834
      20    H11     16.217798   19.454150   24.410027 H          1 MOL1         0.0752
      21    H12     17.600992   19.685629   25.472639 H          1 MOL1         0.0752
      22    C8      17.395589   21.204685   23.928689 C.3        1 MOL1        -0.2849
      23    H13     17.106436   21.285347   22.872757 H          1 MOL1         0.0764
      24    H14     16.737411   21.862872   24.510486 H          1 MOL1         0.0764
      25    H15     18.420237   21.582066   24.035305 H          1 MOL1         0.0764
@<TRIPOS>BOND
    1     1     2    1
    2     1     3    2
    3     1     4    1
    4     4     5    1
    5     4     6    1
    6     4     7    1
    7     7     8    1
    8     7     9    1
    9     7    10    1
   10    10    11    1
   11    10    12    1
   12    10    13    1
   13    13    14    1
   14    13    15    1
   15    13    16    1
   16    16    17    1
   17    16    18    1
   18    16    19    1
   19    19    20    1
   20    19    21    1
   21    19    22    1
   22    22    23    1
   23    22    24    1
   24    22    25    1
@<TRIPOS>SUBSTRUCTURE
       1 MOL1            1 RESIDUE      1      MOL     
@<SCITEGIC>MOL_PROPERTY
VConf Rank
SciTegic.value.IntegerValue
669

@<SCITEGIC>MOL_PROPERTY
Conf_Id
SciTegic.value.IntegerValue
17

@<SCITEGIC>MOL_PROPERTY
Delta U+W
SciTegic.value.DoubleValue
0.219

@<SCITEGIC>MOL_PROPERTY
U+W
SciTegic.value.DoubleValue
-51.411

@<SCITEGIC>MOL_PROPERTY
Grad RMS
SciTegic.value.DoubleValue
0.000000

@<SCITEGIC>MOL_PROPERTY
U
SciTegic.value.DoubleValue
7.701

@<SCITEGIC>MOL_PROPERTY
W
SciTegic.value.DoubleValue
-59.111

@<SCITEGIC>MOL_PROPERTY
W(PB)
SciTegic.value.DoubleValue
-61.599

@<SCITEGIC>MOL_PROPERTY
W(SA)
SciTegic.value.DoubleValue
2.488

@<SCITEGIC>MOL_PROPERTY
Valence
SciTegic.value.DoubleValue
8.550

@<SCITEGIC>MOL_PROPERTY
Coulomb
SciTegic.value.DoubleValue
-1.988

@<SCITEGIC>MOL_PROPERTY
VdW
SciTegic.value.DoubleValue
1.139

@<SCITEGIC>MOL_PROPERTY
VdW6
SciTegic.value.DoubleValue
-8.988

@<SCITEGIC>MOL_PROPERTY
VdW12
SciTegic.value.DoubleValue
10.127

@<SCITEGIC>MOL_PROPERTY
Bond
SciTegic.value.DoubleValue
0.191

@<SCITEGIC>MOL_PROPERTY
Angle
SciTegic.value.DoubleValue
2.738

@<SCITEGIC>MOL_PROPERTY
Pdih
SciTegic.value.DoubleValue
5.621

@<SCITEGIC>MOL_PROPERTY
Idih
SciTegic.value.DoubleValue
0.001

@<SCITEGIC>MOL_PROPERTY
Tether
SciTegic.value.DoubleValue
0.000

@<TRIPOS>MOLECULE
guest-8_confgen4.mol2 : confsearch ligand conformer 670
          25          24           1
SMALL
USER_CHARGES
 
@<TRIPOS>ATOM
       1    C1      19.625515   15.639556   24.178043 C.2        1 MOL1         0.6168
       2    O1      19.061371   15.068022   23.265820 O.co2      1 MOL1        -0.6703
       3    O2      19.164025   15.738148   25.298035 O.co2      1 MOL1        -0.6703
       4    C2      20.997732   16.251074   23.909714 C.3        1 MOL1        -0.1963
       5    H1      21.419433   15.784063   23.011470 H          1 MOL1         0.0750
       6    H2      21.649703   15.974875   24.746752 H          1 MOL1         0.0750
       7    C3      20.979386   17.793934   23.754329 C.3        1 MOL1        -0.1860
       8    H3      20.536145   18.236655   24.656106 H          1 MOL1         0.0752
       9    H4      22.013593   18.159033   23.696152 H          1 MOL1         0.0752
      10    C4      20.203922   18.252908   22.496255 C.3        1 MOL1        -0.1858
      11    H5      19.149883   17.953403   22.577614 H          1 MOL1         0.0752
      12    H6      20.606774   17.730012   21.618110 H          1 MOL1         0.0752
      13    C5      20.288378   19.776747   22.242282 C.3        1 MOL1        -0.1858
      14    H7      21.341190   20.077153   22.151771 H          1 MOL1         0.0752
      15    H8      19.818883   19.994130   21.273169 H          1 MOL1         0.0752
      16    C6      19.596747   20.622719   23.336361 C.3        1 MOL1        -0.1858
      17    H9      20.102138   20.475286   24.299570 H          1 MOL1         0.0752
      18    H10     18.559799   20.282565   23.462559 H          1 MOL1         0.0752
      19    C7      19.606811   22.125804   22.986526 C.3        1 MOL1        -0.1834
      20    H11     20.642777   22.468826   22.857805 H          1 MOL1         0.0752
      21    H12     19.095557   22.286855   22.027306 H          1 MOL1         0.0752
      22    C8      18.920088   22.968420   24.080204 C.3        1 MOL1        -0.2849
      23    H13     19.431071   22.851581   25.044894 H          1 MOL1         0.0764
      24    H14     18.935966   24.033562   23.815109 H          1 MOL1         0.0764
      25    H15     17.872317   22.666601   24.208508 H          1 MOL1         0.0764
@<TRIPOS>BOND
    1     1     2    1
    2     1     3    2
    3     1     4    1
    4     4     5    1
    5     4     6    1
    6     4     7    1
    7     7     8    1
    8     7     9    1
    9     7    10    1
   10    10    11    1
   11    10    12    1
   12    10    13    1
   13    13    14    1
   14    13    15    1
   15    13    16    1
   16    16    17    1
   17    16    18    1
   18    16    19    1
   19    19    20    1
   20    19    21    1
   21    19    22    1
   22    22    23    1
   23    22    24    1
   24    22    25    1
@<TRIPOS>SUBSTRUCTURE
       1 MOL1            1 RESIDUE      1      MOL     
@<SCITEGIC>MOL_PROPERTY
VConf Rank
SciTegic.value.IntegerValue
670

@<SCITEGIC>MOL_PROPERTY
Conf_Id
SciTegic.value.IntegerValue
142

@<SCITEGIC>MOL_PROPERTY
Delta U+W
SciTegic.value.DoubleValue
0.593

@<SCITEGIC>MOL_PROPERTY
U+W
SciTegic.value.DoubleValue
-51.037

@<SCITEGIC>MOL_PROPERTY
Grad RMS
SciTegic.value.DoubleValue
0.000000

@<SCITEGIC>MOL_PROPERTY
U
SciTegic.value.DoubleValue
8.903

@<SCITEGIC>MOL_PROPERTY
W
SciTegic.value.DoubleValue
-59.940

@<SCITEGIC>MOL_PROPERTY
W(PB)
SciTegic.value.DoubleValue
-62.418

@<SCITEGIC>MOL_PROPERTY
W(SA)
SciTegic.value.DoubleValue
2.478

@<SCITEGIC>MOL_PROPERTY
Valence
SciTegic.value.DoubleValue
8.305

@<SCITEGIC>MOL_PROPERTY
Coulomb
SciTegic.value.DoubleValue
-0.223

@<SCITEGIC>MOL_PROPERTY
VdW
SciTegic.value.DoubleValue
0.821

@<SCITEGIC>MOL_PROPERTY
VdW6
SciTegic.value.DoubleValue
-9.236

@<SCITEGIC>MOL_PROPERTY
VdW12
SciTegic.value.DoubleValue
10.057

@<SCITEGIC>MOL_PROPERTY
Bond
SciTegic.value.DoubleValue
0.173

@<SCITEGIC>MOL_PROPERTY
Angle
SciTegic.value.DoubleValue
2.663

@<SCITEGIC>MOL_PROPERTY
Pdih
SciTegic.value.DoubleValue
5.469

@<SCITEGIC>MOL_PROPERTY
Idih
SciTegic.value.DoubleValue
0.001

@<SCITEGIC>MOL_PROPERTY
Tether
SciTegic.value.DoubleValue
0.000

@<TRIPOS>MOLECULE
guest-8_confgen4.mol2 : confsearch ligand conformer 671
          25          24           1
SMALL
USER_CHARGES
 
@<TRIPOS>ATOM
       1    C1      17.525866   16.942637   23.392667 C.2        1 MOL1         0.6168
       2    O1      16.877044   16.275223   24.174426 O.co2      1 MOL1        -0.6703
       3    O2      17.032149   17.587232   22.488345 O.co2      1 MOL1        -0.6703
       4    C2      19.044787   16.947404   23.540288 C.3        1 MOL1        -0.1963
       5    H1      19.485894   17.350723   22.621562 H          1 MOL1         0.0750
       6    H2      19.369342   15.902602   23.607909 H          1 MOL1         0.0750
       7    C3      19.558664   17.727022   24.781359 C.3        1 MOL1        -0.1860
       8    H3      19.152679   17.254692   25.686488 H          1 MOL1         0.0752
       9    H4      20.648916   17.619763   24.849874 H          1 MOL1         0.0752
      10    C4      19.180275   19.230776   24.795149 C.3        1 MOL1        -0.1858
      11    H5      19.581869   19.687038   25.710105 H          1 MOL1         0.0752
      12    H6      18.087880   19.323878   24.866500 H          1 MOL1         0.0752
      13    C5      19.667479   20.047219   23.571883 C.3        1 MOL1        -0.1858
      14    H7      19.186146   19.673873   22.658054 H          1 MOL1         0.0752
      15    H8      19.326317   21.084450   23.691438 H          1 MOL1         0.0752
      16    C6      21.203631   20.040515   23.396212 C.3        1 MOL1        -0.1858
      17    H9      21.552686   19.017811   23.202968 H          1 MOL1         0.0752
      18    H10     21.681171   20.372878   24.327965 H          1 MOL1         0.0752
      19    C7      21.648751   20.953042   22.234059 C.3        1 MOL1        -0.1834
      20    H11     21.170004   20.623838   21.301374 H          1 MOL1         0.0752
      21    H12     21.311378   21.982051   22.420320 H          1 MOL1         0.0752
      22    C8      23.180392   20.940542   22.056259 C.3        1 MOL1        -0.2849
      23    H13     23.541988   19.927440   21.836624 H          1 MOL1         0.0764
      24    H14     23.478941   21.594293   21.226492 H          1 MOL1         0.0764
      25    H15     23.684094   21.294818   22.965173 H          1 MOL1         0.0764
@<TRIPOS>BOND
    1     1     2    1
    2     1     3    2
    3     1     4    1
    4     4     5    1
    5     4     6    1
    6     4     7    1
    7     7     8    1
    8     7     9    1
    9     7    10    1
   10    10    11    1
   11    10    12    1
   12    10    13    1
   13    13    14    1
   14    13    15    1
   15    13    16    1
   16    16    17    1
   17    16    18    1
   18    16    19    1
   19    19    20    1
   20    19    21    1
   21    19    22    1
   22    22    23    1
   23    22    24    1
   24    22    25    1
@<TRIPOS>SUBSTRUCTURE
       1 MOL1            1 RESIDUE      1      MOL     
@<SCITEGIC>MOL_PROPERTY
VConf Rank
SciTegic.value.IntegerValue
671

@<SCITEGIC>MOL_PROPERTY
Conf_Id
SciTegic.value.IntegerValue
135

@<SCITEGIC>MOL_PROPERTY
Delta U+W
SciTegic.value.DoubleValue
1.314

@<SCITEGIC>MOL_PROPERTY
U+W
SciTegic.value.DoubleValue
-50.316

@<SCITEGIC>MOL_PROPERTY
Grad RMS
SciTegic.value.DoubleValue
0.000000

@<SCITEGIC>MOL_PROPERTY
U
SciTegic.value.DoubleValue
9.773

@<SCITEGIC>MOL_PROPERTY
W
SciTegic.value.DoubleValue
-60.088

@<SCITEGIC>MOL_PROPERTY
W(PB)
SciTegic.value.DoubleValue
-62.535

@<SCITEGIC>MOL_PROPERTY
W(SA)
SciTegic.value.DoubleValue
2.447

@<SCITEGIC>MOL_PROPERTY
Valence
SciTegic.value.DoubleValue
8.741

@<SCITEGIC>MOL_PROPERTY
Coulomb
SciTegic.value.DoubleValue
0.479

@<SCITEGIC>MOL_PROPERTY
VdW
SciTegic.value.DoubleValue
0.552

@<SCITEGIC>MOL_PROPERTY
VdW6
SciTegic.value.DoubleValue
-10.627

@<SCITEGIC>MOL_PROPERTY
VdW12
SciTegic.value.DoubleValue
11.179

@<SCITEGIC>MOL_PROPERTY
Bond
SciTegic.value.DoubleValue
0.227

@<SCITEGIC>MOL_PROPERTY
Angle
SciTegic.value.DoubleValue
3.155

@<SCITEGIC>MOL_PROPERTY
Pdih
SciTegic.value.DoubleValue
5.358

@<SCITEGIC>MOL_PROPERTY
Idih
SciTegic.value.DoubleValue
0.001

@<SCITEGIC>MOL_PROPERTY
Tether
SciTegic.value.DoubleValue
0.000

@<TRIPOS>MOLECULE
guest-8_confgen4.mol2 : confsearch ligand conformer 672
          25          24           1
SMALL
USER_CHARGES
 
@<TRIPOS>ATOM
       1    C1      24.145880   18.148606   23.727745 C.2        1 MOL1         0.6168
       2    O1      24.778138   18.175876   22.690322 O.co2      1 MOL1        -0.6703
       3    O2      24.657723   18.189956   24.829143 O.co2      1 MOL1        -0.6703
       4    C2      22.625193   18.081725   23.642770 C.3        1 MOL1        -0.1963
       5    H1      22.260255   17.527473   24.515681 H          1 MOL1         0.0750
       6    H2      22.367774   17.495328   22.753925 H          1 MOL1         0.0750
       7    C3      21.966140   19.484668   23.585939 C.3        1 MOL1        -0.1860
       8    H3      22.324920   20.074684   24.440694 H          1 MOL1         0.0752
       9    H4      22.301272   20.012943   22.682671 H          1 MOL1         0.0752
      10    C4      20.419601   19.446893   23.627460 C.3        1 MOL1        -0.1858
      11    H5      20.060884   20.477711   23.740267 H          1 MOL1         0.0752
      12    H6      20.087002   18.896586   24.518032 H          1 MOL1         0.0752
      13    C5      19.783557   18.828558   22.359560 C.3        1 MOL1        -0.1858
      14    H7      20.073751   19.420321   21.480811 H          1 MOL1         0.0752
      15    H8      20.187599   17.821201   22.200010 H          1 MOL1         0.0752
      16    C6      18.239125   18.714123   22.415253 C.3        1 MOL1        -0.1858
      17    H9      17.940862   18.047080   23.235618 H          1 MOL1         0.0752
      18    H10     17.911782   18.215806   21.492539 H          1 MOL1         0.0752
      19    C7      17.490645   20.066236   22.523735 C.3        1 MOL1        -0.1834
      20    H11     18.095387   20.873127   22.087330 H          1 MOL1         0.0752
      21    H12     16.574713   20.010656   21.919351 H          1 MOL1         0.0752
      22    C8      17.086290   20.422272   23.971838 C.3        1 MOL1        -0.2849
      23    H13     17.958109   20.502765   24.631058 H          1 MOL1         0.0764
      24    H14     16.556322   21.383150   23.997420 H          1 MOL1         0.0764
      25    H15     16.416790   19.658633   24.388618 H          1 MOL1         0.0764
@<TRIPOS>BOND
    1     1     2    1
    2     1     3    2
    3     1     4    1
    4     4     5    1
    5     4     6    1
    6     4     7    1
    7     7     8    1
    8     7     9    1
    9     7    10    1
   10    10    11    1
   11    10    12    1
   12    10    13    1
   13    13    14    1
   14    13    15    1
   15    13    16    1
   16    16    17    1
   17    16    18    1
   18    16    19    1
   19    19    20    1
   20    19    21    1
   21    19    22    1
   22    22    23    1
   23    22    24    1
   24    22    25    1
@<TRIPOS>SUBSTRUCTURE
       1 MOL1            1 RESIDUE      1      MOL     
@<SCITEGIC>MOL_PROPERTY
VConf Rank
SciTegic.value.IntegerValue
672

@<SCITEGIC>MOL_PROPERTY
Conf_Id
SciTegic.value.IntegerValue
19

@<SCITEGIC>MOL_PROPERTY
Delta U+W
SciTegic.value.DoubleValue
3.222

@<SCITEGIC>MOL_PROPERTY
U+W
SciTegic.value.DoubleValue
-48.407

@<SCITEGIC>MOL_PROPERTY
Grad RMS
SciTegic.value.DoubleValue
0.000000

@<SCITEGIC>MOL_PROPERTY
U
SciTegic.value.DoubleValue
10.617

@<SCITEGIC>MOL_PROPERTY
W
SciTegic.value.DoubleValue
-59.025

@<SCITEGIC>MOL_PROPERTY
W(PB)
SciTegic.value.DoubleValue
-61.462

@<SCITEGIC>MOL_PROPERTY
W(SA)
SciTegic.value.DoubleValue
2.437

@<SCITEGIC>MOL_PROPERTY
Valence
SciTegic.value.DoubleValue
11.188

@<SCITEGIC>MOL_PROPERTY
Coulomb
SciTegic.value.DoubleValue
-1.778

@<SCITEGIC>MOL_PROPERTY
VdW
SciTegic.value.DoubleValue
1.208

@<SCITEGIC>MOL_PROPERTY
VdW6
SciTegic.value.DoubleValue
-9.786

@<SCITEGIC>MOL_PROPERTY
VdW12
SciTegic.value.DoubleValue
10.993

@<SCITEGIC>MOL_PROPERTY
Bond
SciTegic.value.DoubleValue
0.241

@<SCITEGIC>MOL_PROPERTY
Angle
SciTegic.value.DoubleValue
3.294

@<SCITEGIC>MOL_PROPERTY
Pdih
SciTegic.value.DoubleValue
7.653

@<SCITEGIC>MOL_PROPERTY
Idih
SciTegic.value.DoubleValue
0.001

@<SCITEGIC>MOL_PROPERTY
Tether
SciTegic.value.DoubleValue
0.000

@<TRIPOS>MOLECULE
guest-8_confgen4.mol2 : confsearch ligand conformer 673
          25          24           1
SMALL
USER_CHARGES
 
@<TRIPOS>ATOM
       1    C1      22.031957   15.811816   24.852029 C.2        1 MOL1         0.6168
       2    O1      22.069000   14.868214   24.087187 O.co2      1 MOL1        -0.6703
       3    O2      22.181082   15.710324   26.053791 O.co2      1 MOL1        -0.6703
       4    C2      21.760209   17.196438   24.274832 C.3        1 MOL1        -0.1963
       5    H1      22.211813   17.234893   23.277462 H          1 MOL1         0.0750
       6    H2      22.282465   17.932513   24.897560 H          1 MOL1         0.0750
       7    C3      20.247100   17.530633   24.206687 C.3        1 MOL1        -0.1860
       8    H3      19.741489   16.816354   23.542273 H          1 MOL1         0.0752
       9    H4      19.811580   17.386351   25.205162 H          1 MOL1         0.0752
      10    C4      19.950441   18.977251   23.743843 C.3        1 MOL1        -0.1858
      11    H5      20.477158   19.688813   24.394096 H          1 MOL1         0.0752
      12    H6      18.876981   19.160130   23.878851 H          1 MOL1         0.0752
      13    C5      20.323827   19.240549   22.265424 C.3        1 MOL1        -0.1858
      14    H7      21.380996   18.995662   22.104486 H          1 MOL1         0.0752
      15    H8      19.748403   18.564612   21.618437 H          1 MOL1         0.0752
      16    C6      20.103209   20.703952   21.805800 C.3        1 MOL1        -0.1858
      17    H9      20.451389   20.779383   20.766592 H          1 MOL1         0.0752
      18    H10     20.746067   21.380902   22.384918 H          1 MOL1         0.0752
      19    C7      18.631897   21.186490   21.856796 C.3        1 MOL1        -0.1834
      20    H11     18.443680   21.833476   20.988877 H          1 MOL1         0.0752
      21    H12     17.946897   20.333420   21.755396 H          1 MOL1         0.0752
      22    C8      18.300533   21.991539   23.133260 C.3        1 MOL1        -0.2849
      23    H13     18.927897   22.889781   23.201511 H          1 MOL1         0.0764
      24    H14     17.251681   22.314939   23.121948 H          1 MOL1         0.0764
      25    H15     18.458897   21.399536   24.041869 H          1 MOL1         0.0764
@<TRIPOS>BOND
    1     1     2    1
    2     1     3    2
    3     1     4    1
    4     4     5    1
    5     4     6    1
    6     4     7    1
    7     7     8    1
    8     7     9    1
    9     7    10    1
   10    10    11    1
   11    10    12    1
   12    10    13    1
   13    13    14    1
   14    13    15    1
   15    13    16    1
   16    16    17    1
   17    16    18    1
   18    16    19    1
   19    19    20    1
   20    19    21    1
   21    19    22    1
   22    22    23    1
   23    22    24    1
   24    22    25    1
@<TRIPOS>SUBSTRUCTURE
       1 MOL1            1 RESIDUE      1      MOL     
@<SCITEGIC>MOL_PROPERTY
VConf Rank
SciTegic.value.IntegerValue
673

@<SCITEGIC>MOL_PROPERTY
Conf_Id
SciTegic.value.IntegerValue
20

@<SCITEGIC>MOL_PROPERTY
Delta U+W
SciTegic.value.DoubleValue
3.224

@<SCITEGIC>MOL_PROPERTY
U+W
SciTegic.value.DoubleValue
-48.406

@<SCITEGIC>MOL_PROPERTY
Grad RMS
SciTegic.value.DoubleValue
0.000000

@<SCITEGIC>MOL_PROPERTY
U
SciTegic.value.DoubleValue
10.617

@<SCITEGIC>MOL_PROPERTY
W
SciTegic.value.DoubleValue
-59.023

@<SCITEGIC>MOL_PROPERTY
W(PB)
SciTegic.value.DoubleValue
-61.467

@<SCITEGIC>MOL_PROPERTY
W(SA)
SciTegic.value.DoubleValue
2.444

@<SCITEGIC>MOL_PROPERTY
Valence
SciTegic.value.DoubleValue
11.188

@<SCITEGIC>MOL_PROPERTY
Coulomb
SciTegic.value.DoubleValue
-1.778

@<SCITEGIC>MOL_PROPERTY
VdW
SciTegic.value.DoubleValue
1.208

@<SCITEGIC>MOL_PROPERTY
VdW6
SciTegic.value.DoubleValue
-9.786

@<SCITEGIC>MOL_PROPERTY
VdW12
SciTegic.value.DoubleValue
10.993

@<SCITEGIC>MOL_PROPERTY
Bond
SciTegic.value.DoubleValue
0.241

@<SCITEGIC>MOL_PROPERTY
Angle
SciTegic.value.DoubleValue
3.294

@<SCITEGIC>MOL_PROPERTY
Pdih
SciTegic.value.DoubleValue
7.653

@<SCITEGIC>MOL_PROPERTY
Idih
SciTegic.value.DoubleValue
0.001

@<SCITEGIC>MOL_PROPERTY
Tether
SciTegic.value.DoubleValue
0.000

@<TRIPOS>MOLECULE
guest-8_confgen4.mol2 : confsearch ligand conformer 674
          25          24           1
SMALL
USER_CHARGES
 
@<TRIPOS>ATOM
       1    C1      22.139132   19.252781   25.843227 C.2        1 MOL1         0.6168
       2    O1      21.712203   19.945296   26.746444 O.co2      1 MOL1        -0.6703
       3    O2      22.977284   19.629719   25.047842 O.co2      1 MOL1        -0.6703
       4    C2      21.646469   17.810525   25.740418 C.3        1 MOL1        -0.1963
       5    H1      21.972615   17.307517   26.658066 H          1 MOL1         0.0750
       6    H2      22.164219   17.315270   24.910089 H          1 MOL1         0.0750
       7    C3      20.107864   17.644078   25.591756 C.3        1 MOL1        -0.1860
       8    H3      19.846850   16.620678   25.893343 H          1 MOL1         0.0752
       9    H4      19.589394   18.308201   26.297250 H          1 MOL1         0.0752
      10    C4      19.565973   17.865798   24.157783 C.3        1 MOL1        -0.1858
      11    H5      18.506527   17.575339   24.143971 H          1 MOL1         0.0752
      12    H6      20.079979   17.190902   23.459824 H          1 MOL1         0.0752
      13    C5      19.687913   19.322568   23.656204 C.3        1 MOL1        -0.1858
      14    H7      19.266009   20.007053   24.404885 H          1 MOL1         0.0752
      15    H8      20.745813   19.588478   23.537279 H          1 MOL1         0.0752
      16    C6      18.966456   19.524039   22.305842 C.3        1 MOL1        -0.1858
      17    H9      17.903505   19.268640   22.414810 H          1 MOL1         0.0752
      18    H10     19.386345   18.835437   21.559818 H          1 MOL1         0.0752
      19    C7      19.097320   20.975555   21.798545 C.3        1 MOL1        -0.1834
      20    H11     18.677430   21.666909   22.542305 H          1 MOL1         0.0752
      21    H12     20.159497   21.234154   21.686685 H          1 MOL1         0.0752
      22    C8      18.376512   21.173596   20.449885 C.3        1 MOL1        -0.2849
      23    H13     17.305094   20.951892   20.540886 H          1 MOL1         0.0764
      24    H14     18.479918   22.210471   20.104543 H          1 MOL1         0.0764
      25    H15     18.798489   20.515828   19.678748 H          1 MOL1         0.0764
@<TRIPOS>BOND
    1     1     2    1
    2     1     3    2
    3     1     4    1
    4     4     5    1
    5     4     6    1
    6     4     7    1
    7     7     8    1
    8     7     9    1
    9     7    10    1
   10    10    11    1
   11    10    12    1
   12    10    13    1
   13    13    14    1
   14    13    15    1
   15    13    16    1
   16    16    17    1
   17    16    18    1
   18    16    19    1
   19    19    20    1
   20    19    21    1
   21    19    22    1
   22    22    23    1
   23    22    24    1
   24    22    25    1
@<TRIPOS>SUBSTRUCTURE
       1 MOL1            1 RESIDUE      1      MOL     
@<SCITEGIC>MOL_PROPERTY
VConf Rank
SciTegic.value.IntegerValue
674

@<SCITEGIC>MOL_PROPERTY
Conf_Id
SciTegic.value.IntegerValue
24

@<SCITEGIC>MOL_PROPERTY
Delta U+W
SciTegic.value.DoubleValue
1.784

@<SCITEGIC>MOL_PROPERTY
U+W
SciTegic.value.DoubleValue
-49.846

@<SCITEGIC>MOL_PROPERTY
Grad RMS
SciTegic.value.DoubleValue
0.000000

@<SCITEGIC>MOL_PROPERTY
U
SciTegic.value.DoubleValue
10.904

@<SCITEGIC>MOL_PROPERTY
W
SciTegic.value.DoubleValue
-60.749

@<SCITEGIC>MOL_PROPERTY
W(PB)
SciTegic.value.DoubleValue
-63.220

@<SCITEGIC>MOL_PROPERTY
W(SA)
SciTegic.value.DoubleValue
2.471

@<SCITEGIC>MOL_PROPERTY
Valence
SciTegic.value.DoubleValue
9.445

@<SCITEGIC>MOL_PROPERTY
Coulomb
SciTegic.value.DoubleValue
0.780

@<SCITEGIC>MOL_PROPERTY
VdW
SciTegic.value.DoubleValue
0.679

@<SCITEGIC>MOL_PROPERTY
VdW6
SciTegic.value.DoubleValue
-10.008

@<SCITEGIC>MOL_PROPERTY
VdW12
SciTegic.value.DoubleValue
10.687

@<SCITEGIC>MOL_PROPERTY
Bond
SciTegic.value.DoubleValue
0.201

@<SCITEGIC>MOL_PROPERTY
Angle
SciTegic.value.DoubleValue
3.198

@<SCITEGIC>MOL_PROPERTY
Pdih
SciTegic.value.DoubleValue
6.039

@<SCITEGIC>MOL_PROPERTY
Idih
SciTegic.value.DoubleValue
0.006

@<SCITEGIC>MOL_PROPERTY
Tether
SciTegic.value.DoubleValue
0.000

@<TRIPOS>MOLECULE
guest-8_confgen4.mol2 : confsearch ligand conformer 675
          25          24           1
SMALL
USER_CHARGES
 
@<TRIPOS>ATOM
       1    C1      18.062306   19.569264   21.213207 C.2        1 MOL1         0.6168
       2    O1      17.106050   20.111935   21.731595 O.co2      1 MOL1        -0.6703
       3    O2      18.909510   20.166344   20.578416 O.co2      1 MOL1        -0.6703
       4    C2      18.171512   18.048495   21.306614 C.3        1 MOL1        -0.1963
       5    H1      19.055950   17.719581   20.747711 H          1 MOL1         0.0750
       6    H2      17.299394   17.644170   20.779928 H          1 MOL1         0.0750
       7    C3      18.202071   17.473073   22.750587 C.3        1 MOL1        -0.1860
       8    H3      17.436692   17.965664   23.366332 H          1 MOL1         0.0752
       9    H4      17.913276   16.414555   22.699931 H          1 MOL1         0.0752
      10    C4      19.580430   17.552720   23.452633 C.3        1 MOL1        -0.1858
      11    H5      20.338220   17.048191   22.837783 H          1 MOL1         0.0752
      12    H6      19.518734   16.986722   24.392219 H          1 MOL1         0.0752
      13    C5      20.043836   18.992581   23.769936 C.3        1 MOL1        -0.1858
      14    H7      20.238520   19.535652   22.836566 H          1 MOL1         0.0752
      15    H8      19.242543   19.530847   24.294575 H          1 MOL1         0.0752
      16    C6      21.325124   19.003425   24.631768 C.3        1 MOL1        -0.1858
      17    H9      22.123729   18.460594   24.107751 H          1 MOL1         0.0752
      18    H10     21.139606   18.469223   25.573668 H          1 MOL1         0.0752
      19    C7      21.795144   20.440691   24.939535 C.3        1 MOL1        -0.1834
      20    H11     21.983475   20.977752   23.999481 H          1 MOL1         0.0752
      21    H12     20.998668   20.986226   25.464393 H          1 MOL1         0.0752
      22    C8      23.074812   20.448402   25.799801 C.3        1 MOL1        -0.2849
      23    H13     23.897663   19.935984   25.284322 H          1 MOL1         0.0764
      24    H14     23.394393   21.477635   26.008636 H          1 MOL1         0.0764
      25    H15     22.905347   19.944576   26.760432 H          1 MOL1         0.0764
@<TRIPOS>BOND
    1     1     2    1
    2     1     3    2
    3     1     4    1
    4     4     5    1
    5     4     6    1
    6     4     7    1
    7     7     8    1
    8     7     9    1
    9     7    10    1
   10    10    11    1
   11    10    12    1
   12    10    13    1
   13    13    14    1
   14    13    15    1
   15    13    16    1
   16    16    17    1
   17    16    18    1
   18    16    19    1
   19    19    20    1
   20    19    21    1
   21    19    22    1
   22    22    23    1
   23    22    24    1
   24    22    25    1
@<TRIPOS>SUBSTRUCTURE
       1 MOL1            1 RESIDUE      1      MOL     
@<SCITEGIC>MOL_PROPERTY
VConf Rank
SciTegic.value.IntegerValue
675

@<SCITEGIC>MOL_PROPERTY
Conf_Id
SciTegic.value.IntegerValue
9

@<SCITEGIC>MOL_PROPERTY
Delta U+W
SciTegic.value.DoubleValue
1.764

@<SCITEGIC>MOL_PROPERTY
U+W
SciTegic.value.DoubleValue
-49.865

@<SCITEGIC>MOL_PROPERTY
Grad RMS
SciTegic.value.DoubleValue
0.000000

@<SCITEGIC>MOL_PROPERTY
U
SciTegic.value.DoubleValue
10.902

@<SCITEGIC>MOL_PROPERTY
W
SciTegic.value.DoubleValue
-60.768

@<SCITEGIC>MOL_PROPERTY
W(PB)
SciTegic.value.DoubleValue
-63.223

@<SCITEGIC>MOL_PROPERTY
W(SA)
SciTegic.value.DoubleValue
2.456

@<SCITEGIC>MOL_PROPERTY
Valence
SciTegic.value.DoubleValue
9.445

@<SCITEGIC>MOL_PROPERTY
Coulomb
SciTegic.value.DoubleValue
0.778

@<SCITEGIC>MOL_PROPERTY
VdW
SciTegic.value.DoubleValue
0.679

@<SCITEGIC>MOL_PROPERTY
VdW6
SciTegic.value.DoubleValue
-10.007

@<SCITEGIC>MOL_PROPERTY
VdW12
SciTegic.value.DoubleValue
10.687

@<SCITEGIC>MOL_PROPERTY
Bond
SciTegic.value.DoubleValue
0.201

@<SCITEGIC>MOL_PROPERTY
Angle
SciTegic.value.DoubleValue
3.198

@<SCITEGIC>MOL_PROPERTY
Pdih
SciTegic.value.DoubleValue
6.040

@<SCITEGIC>MOL_PROPERTY
Idih
SciTegic.value.DoubleValue
0.006

@<SCITEGIC>MOL_PROPERTY
Tether
SciTegic.value.DoubleValue
0.000

@<TRIPOS>MOLECULE
guest-8_confgen4.mol2 : confsearch ligand conformer 676
          25          24           1
SMALL
USER_CHARGES
 
@<TRIPOS>ATOM
       1    C1      19.122599   22.134300   25.417063 C.2        1 MOL1         0.6168
       2    O1      18.972611   21.458231   26.415582 O.co2      1 MOL1        -0.6703
       3    O2      19.239178   23.343831   25.434149 O.co2      1 MOL1        -0.6703
       4    C2      19.188710   21.424211   24.069800 C.3        1 MOL1        -0.1963
       5    H1      18.752992   22.089878   23.315284 H          1 MOL1         0.0750
       6    H2      18.545310   20.540800   24.125340 H          1 MOL1         0.0750
       7    C3      20.636322   21.038207   23.665983 C.3        1 MOL1        -0.1860
       8    H3      21.231133   21.960964   23.619541 H          1 MOL1         0.0752
       9    H4      21.095031   20.418374   24.448803 H          1 MOL1         0.0752
      10    C4      20.725193   20.322358   22.294140 C.3        1 MOL1        -0.1858
      11    H5      21.657104   20.637068   21.804835 H          1 MOL1         0.0752
      12    H6      19.913749   20.659336   21.634713 H          1 MOL1         0.0752
      13    C5      20.741074   18.774971   22.372240 C.3        1 MOL1        -0.1858
      14    H7      20.890679   18.380068   21.358228 H          1 MOL1         0.0752
      15    H8      21.611396   18.455104   22.960162 H          1 MOL1         0.0752
      16    C6      19.454195   18.155702   22.966899 C.3        1 MOL1        -0.1858
      17    H9      18.579760   18.600108   22.472669 H          1 MOL1         0.0752
      18    H10     19.379804   18.406881   24.033025 H          1 MOL1         0.0752
      19    C7      19.383775   16.619273   22.805783 C.3        1 MOL1        -0.1834
      20    H11     18.403935   16.271717   23.161148 H          1 MOL1         0.0752
      21    H12     19.439147   16.354679   21.740815 H          1 MOL1         0.0752
      22    C8      20.489417   15.873651   23.584198 C.3        1 MOL1        -0.2849
      23    H13     20.469594   16.142247   24.648439 H          1 MOL1         0.0764
      24    H14     20.348355   14.787861   23.506670 H          1 MOL1         0.0764
      25    H15     21.485290   16.108792   23.188195 H          1 MOL1         0.0764
@<TRIPOS>BOND
    1     1     2    1
    2     1     3    2
    3     1     4    1
    4     4     5    1
    5     4     6    1
    6     4     7    1
    7     7     8    1
    8     7     9    1
    9     7    10    1
   10    10    11    1
   11    10    12    1
   12    10    13    1
   13    13    14    1
   14    13    15    1
   15    13    16    1
   16    16    17    1
   17    16    18    1
   18    16    19    1
   19    19    20    1
   20    19    21    1
   21    19    22    1
   22    22    23    1
   23    22    24    1
   24    22    25    1
@<TRIPOS>SUBSTRUCTURE
       1 MOL1            1 RESIDUE      1      MOL     
@<SCITEGIC>MOL_PROPERTY
VConf Rank
SciTegic.value.IntegerValue
676

@<SCITEGIC>MOL_PROPERTY
Conf_Id
SciTegic.value.IntegerValue
89

@<SCITEGIC>MOL_PROPERTY
Delta U+W
SciTegic.value.DoubleValue
2.903

@<SCITEGIC>MOL_PROPERTY
U+W
SciTegic.value.DoubleValue
-48.726

@<SCITEGIC>MOL_PROPERTY
Grad RMS
SciTegic.value.DoubleValue
0.000000

@<SCITEGIC>MOL_PROPERTY
U
SciTegic.value.DoubleValue
10.996

@<SCITEGIC>MOL_PROPERTY
W
SciTegic.value.DoubleValue
-59.723

@<SCITEGIC>MOL_PROPERTY
W(PB)
SciTegic.value.DoubleValue
-62.151

@<SCITEGIC>MOL_PROPERTY
W(SA)
SciTegic.value.DoubleValue
2.428

@<SCITEGIC>MOL_PROPERTY
Valence
SciTegic.value.DoubleValue
10.985

@<SCITEGIC>MOL_PROPERTY
Coulomb
SciTegic.value.DoubleValue
-0.995

@<SCITEGIC>MOL_PROPERTY
VdW
SciTegic.value.DoubleValue
1.006

@<SCITEGIC>MOL_PROPERTY
VdW6
SciTegic.value.DoubleValue
-10.062

@<SCITEGIC>MOL_PROPERTY
VdW12
SciTegic.value.DoubleValue
11.069

@<SCITEGIC>MOL_PROPERTY
Bond
SciTegic.value.DoubleValue
0.238

@<SCITEGIC>MOL_PROPERTY
Angle
SciTegic.value.DoubleValue
3.202

@<SCITEGIC>MOL_PROPERTY
Pdih
SciTegic.value.DoubleValue
7.544

@<SCITEGIC>MOL_PROPERTY
Idih
SciTegic.value.DoubleValue
0.001

@<SCITEGIC>MOL_PROPERTY
Tether
SciTegic.value.DoubleValue
0.000

@<TRIPOS>MOLECULE
guest-8_confgen4.mol2 : confsearch ligand conformer 677
          25          24           1
SMALL
USER_CHARGES
 
@<TRIPOS>ATOM
       1    C1      19.146500   17.038333   26.158759 C.2        1 MOL1         0.6168
       2    O1      20.251337   16.741242   26.569043 O.co2      1 MOL1        -0.6703
       3    O2      18.351343   17.702364   26.794680 O.co2      1 MOL1        -0.6703
       4    C2      18.712840   16.493150   24.799361 C.3        1 MOL1        -0.1963
       5    H1      17.872134   15.817140   24.993529 H          1 MOL1         0.0750
       6    H2      19.521441   15.877474   24.387199 H          1 MOL1         0.0750
       7    C3      18.270246   17.565619   23.764227 C.3        1 MOL1        -0.1860
       8    H3      17.640065   17.070156   23.013341 H          1 MOL1         0.0752
       9    H4      17.628467   18.313815   24.249919 H          1 MOL1         0.0752
      10    C4      19.430487   18.267108   23.014770 C.3        1 MOL1        -0.1858
      11    H5      18.990654   18.863749   22.206014 H          1 MOL1         0.0752
      12    H6      20.067197   17.513586   22.531699 H          1 MOL1         0.0752
      13    C5      20.297926   19.182649   23.912387 C.3        1 MOL1        -0.1858
      14    H7      19.657707   19.899116   24.444895 H          1 MOL1         0.0752
      15    H8      20.790451   18.573885   24.680282 H          1 MOL1         0.0752
      16    C6      21.399395   19.944648   23.136823 C.3        1 MOL1        -0.1858
      17    H9      22.018898   19.229421   22.578708 H          1 MOL1         0.0752
      18    H10     22.064281   20.427318   23.866110 H          1 MOL1         0.0752
      19    C7      20.849171   21.022728   22.175347 C.3        1 MOL1        -0.1834
      20    H11     20.246678   20.556143   21.385390 H          1 MOL1         0.0752
      21    H12     20.185433   21.704732   22.724446 H          1 MOL1         0.0752
      22    C8      21.988078   21.832239   21.522906 C.3        1 MOL1        -0.2849
      23    H13     22.653019   21.177748   20.944235 H          1 MOL1         0.0764
      24    H14     21.582052   22.590960   20.841338 H          1 MOL1         0.0764
      25    H15     22.590095   22.347268   22.282947 H          1 MOL1         0.0764
@<TRIPOS>BOND
    1     1     2    1
    2     1     3    2
    3     1     4    1
    4     4     5    1
    5     4     6    1
    6     4     7    1
    7     7     8    1
    8     7     9    1
    9     7    10    1
   10    10    11    1
   11    10    12    1
   12    10    13    1
   13    13    14    1
   14    13    15    1
   15    13    16    1
   16    16    17    1
   17    16    18    1
   18    16    19    1
   19    19    20    1
   20    19    21    1
   21    19    22    1
   22    22    23    1
   23    22    24    1
   24    22    25    1
@<TRIPOS>SUBSTRUCTURE
       1 MOL1            1 RESIDUE      1      MOL     
@<SCITEGIC>MOL_PROPERTY
VConf Rank
SciTegic.value.IntegerValue
677

@<SCITEGIC>MOL_PROPERTY
Conf_Id
SciTegic.value.IntegerValue
114

@<SCITEGIC>MOL_PROPERTY
Delta U+W
SciTegic.value.DoubleValue
2.758

@<SCITEGIC>MOL_PROPERTY
U+W
SciTegic.value.DoubleValue
-48.871

@<SCITEGIC>MOL_PROPERTY
Grad RMS
SciTegic.value.DoubleValue
0.000000

@<SCITEGIC>MOL_PROPERTY
U
SciTegic.value.DoubleValue
11.422

@<SCITEGIC>MOL_PROPERTY
W
SciTegic.value.DoubleValue
-60.293

@<SCITEGIC>MOL_PROPERTY
W(PB)
SciTegic.value.DoubleValue
-62.719

@<SCITEGIC>MOL_PROPERTY
W(SA)
SciTegic.value.DoubleValue
2.425

@<SCITEGIC>MOL_PROPERTY
Valence
SciTegic.value.DoubleValue
10.135

@<SCITEGIC>MOL_PROPERTY
Coulomb
SciTegic.value.DoubleValue
0.369

@<SCITEGIC>MOL_PROPERTY
VdW
SciTegic.value.DoubleValue
0.918

@<SCITEGIC>MOL_PROPERTY
VdW6
SciTegic.value.DoubleValue
-10.482

@<SCITEGIC>MOL_PROPERTY
VdW12
SciTegic.value.DoubleValue
11.400

@<SCITEGIC>MOL_PROPERTY
Bond
SciTegic.value.DoubleValue
0.245

@<SCITEGIC>MOL_PROPERTY
Angle
SciTegic.value.DoubleValue
3.539

@<SCITEGIC>MOL_PROPERTY
Pdih
SciTegic.value.DoubleValue
6.346

@<SCITEGIC>MOL_PROPERTY
Idih
SciTegic.value.DoubleValue
0.006

@<SCITEGIC>MOL_PROPERTY
Tether
SciTegic.value.DoubleValue
0.000

@<TRIPOS>MOLECULE
guest-8_confgen4.mol2 : confsearch ligand conformer 678
          25          24           1
SMALL
USER_CHARGES
 
@<TRIPOS>ATOM
       1    C1      18.584075   19.897289   20.027366 C.2        1 MOL1         0.6168
       2    O1      17.974511   20.934285   20.200959 O.co2      1 MOL1        -0.6703
       3    O2      19.499632   19.779322   19.236837 O.co2      1 MOL1        -0.6703
       4    C2      18.164980   18.668999   20.830245 C.3        1 MOL1        -0.1963
       5    H1      18.120426   17.822062   20.135485 H          1 MOL1         0.0750
       6    H2      17.146175   18.826401   21.204460 H          1 MOL1         0.0750
       7    C3      19.120781   18.327679   22.002815 C.3        1 MOL1        -0.1860
       8    H3      18.819760   17.366148   22.439959 H          1 MOL1         0.0752
       9    H4      20.135314   18.192729   21.605526 H          1 MOL1         0.0752
      10    C4      19.116231   19.414029   23.105121 C.3        1 MOL1        -0.1858
      11    H5      18.079598   19.597390   23.419150 H          1 MOL1         0.0752
      12    H6      19.487222   20.363747   22.695604 H          1 MOL1         0.0752
      13    C5      19.945935   19.032171   24.354304 C.3        1 MOL1        -0.1858
      14    H7      19.762090   19.789152   25.127199 H          1 MOL1         0.0752
      15    H8      19.582882   18.078181   24.760034 H          1 MOL1         0.0752
      16    C6      21.467076   18.938453   24.078822 C.3        1 MOL1        -0.1858
      17    H9      21.828865   19.891564   23.669714 H          1 MOL1         0.0752
      18    H10     21.652893   18.178647   23.309257 H          1 MOL1         0.0752
      19    C7      22.296218   18.564309   25.329812 C.3        1 MOL1        -0.1834
      20    H11     21.929394   17.617012   25.748569 H          1 MOL1         0.0752
      21    H12     23.335456   18.384906   25.021529 H          1 MOL1         0.0752
      22    C8      22.285916   19.655321   26.422741 C.3        1 MOL1        -0.2849
      23    H13     22.963542   19.383304   27.242333 H          1 MOL1         0.0764
      24    H14     22.616479   20.620563   26.017587 H          1 MOL1         0.0764
      25    H15     21.284363   19.785858   26.850830 H          1 MOL1         0.0764
@<TRIPOS>BOND
    1     1     2    1
    2     1     3    2
    3     1     4    1
    4     4     5    1
    5     4     6    1
    6     4     7    1
    7     7     8    1
    8     7     9    1
    9     7    10    1
   10    10    11    1
   11    10    12    1
   12    10    13    1
   13    13    14    1
   14    13    15    1
   15    13    16    1
   16    16    17    1
   17    16    18    1
   18    16    19    1
   19    19    20    1
   20    19    21    1
   21    19    22    1
   22    22    23    1
   23    22    24    1
   24    22    25    1
@<TRIPOS>SUBSTRUCTURE
       1 MOL1            1 RESIDUE      1      MOL     
@<SCITEGIC>MOL_PROPERTY
VConf Rank
SciTegic.value.IntegerValue
678

@<SCITEGIC>MOL_PROPERTY
Conf_Id
SciTegic.value.IntegerValue
87

@<SCITEGIC>MOL_PROPERTY
Delta U+W
SciTegic.value.DoubleValue
1.453

@<SCITEGIC>MOL_PROPERTY
U+W
SciTegic.value.DoubleValue
-50.176

@<SCITEGIC>MOL_PROPERTY
Grad RMS
SciTegic.value.DoubleValue
0.000000

@<SCITEGIC>MOL_PROPERTY
U
SciTegic.value.DoubleValue
9.763

@<SCITEGIC>MOL_PROPERTY
W
SciTegic.value.DoubleValue
-59.940

@<SCITEGIC>MOL_PROPERTY
W(PB)
SciTegic.value.DoubleValue
-62.392

@<SCITEGIC>MOL_PROPERTY
W(SA)
SciTegic.value.DoubleValue
2.452

@<SCITEGIC>MOL_PROPERTY
Valence
SciTegic.value.DoubleValue
8.883

@<SCITEGIC>MOL_PROPERTY
Coulomb
SciTegic.value.DoubleValue
-0.122

@<SCITEGIC>MOL_PROPERTY
VdW
SciTegic.value.DoubleValue
1.003

@<SCITEGIC>MOL_PROPERTY
VdW6
SciTegic.value.DoubleValue
-9.782

@<SCITEGIC>MOL_PROPERTY
VdW12
SciTegic.value.DoubleValue
10.785

@<SCITEGIC>MOL_PROPERTY
Bond
SciTegic.value.DoubleValue
0.212

@<SCITEGIC>MOL_PROPERTY
Angle
SciTegic.value.DoubleValue
2.940

@<SCITEGIC>MOL_PROPERTY
Pdih
SciTegic.value.DoubleValue
5.730

@<SCITEGIC>MOL_PROPERTY
Idih
SciTegic.value.DoubleValue
0.001

@<SCITEGIC>MOL_PROPERTY
Tether
SciTegic.value.DoubleValue
0.000

@<TRIPOS>MOLECULE
guest-8_confgen4.mol2 : confsearch ligand conformer 679
          25          24           1
SMALL
USER_CHARGES
 
@<TRIPOS>ATOM
       1    C1      19.824774   15.282559   22.313557 C.2        1 MOL1         0.6168
       2    O1      20.725557   14.790556   22.964102 O.co2      1 MOL1        -0.6703
       3    O2      18.798084   14.695752   22.033721 O.co2      1 MOL1        -0.6703
       4    C2      19.983583   16.722137   21.837574 C.3        1 MOL1        -0.1963
       5    H1      19.464809   16.822330   20.876681 H          1 MOL1         0.0750
       6    H2      21.048943   16.904063   21.651867 H          1 MOL1         0.0750
       7    C3      19.434912   17.755011   22.852503 C.3        1 MOL1        -0.1860
       8    H3      18.370034   17.555316   23.034977 H          1 MOL1         0.0752
       9    H4      19.954787   17.622057   23.810542 H          1 MOL1         0.0752
      10    C4      19.614758   19.205681   22.348677 C.3        1 MOL1        -0.1858
      11    H5      19.148464   19.300489   21.358625 H          1 MOL1         0.0752
      12    H6      20.681938   19.419362   22.204202 H          1 MOL1         0.0752
      13    C5      18.986925   20.266602   23.287085 C.3        1 MOL1        -0.1858
      14    H7      19.105042   21.258046   22.830505 H          1 MOL1         0.0752
      15    H8      17.903790   20.092995   23.343215 H          1 MOL1         0.0752
      16    C6      19.558400   20.296928   24.729416 C.3        1 MOL1        -0.1858
      17    H9      19.295773   19.363423   25.244063 H          1 MOL1         0.0752
      18    H10     19.053153   21.095744   25.288976 H          1 MOL1         0.0752
      19    C7      21.088981   20.510806   24.827947 C.3        1 MOL1        -0.1834
      20    H11     21.378239   20.488620   25.887543 H          1 MOL1         0.0752
      21    H12     21.618664   19.675433   24.351060 H          1 MOL1         0.0752
      22    C8      21.559358   21.846284   24.212086 C.3        1 MOL1        -0.2849
      23    H13     21.029757   22.695118   24.663682 H          1 MOL1         0.0764
      24    H14     22.634520   21.989497   24.380151 H          1 MOL1         0.0764
      25    H15     21.385763   21.868562   23.128890 H          1 MOL1         0.0764
@<TRIPOS>BOND
    1     1     2    1
    2     1     3    2
    3     1     4    1
    4     4     5    1
    5     4     6    1
    6     4     7    1
    7     7     8    1
    8     7     9    1
    9     7    10    1
   10    10    11    1
   11    10    12    1
   12    10    13    1
   13    13    14    1
   14    13    15    1
   15    13    16    1
   16    16    17    1
   17    16    18    1
   18    16    19    1
   19    19    20    1
   20    19    21    1
   21    19    22    1
   22    22    23    1
   23    22    24    1
   24    22    25    1
@<TRIPOS>SUBSTRUCTURE
       1 MOL1            1 RESIDUE      1      MOL     
@<SCITEGIC>MOL_PROPERTY
VConf Rank
SciTegic.value.IntegerValue
679

@<SCITEGIC>MOL_PROPERTY
Conf_Id
SciTegic.value.IntegerValue
29

@<SCITEGIC>MOL_PROPERTY
Delta U+W
SciTegic.value.DoubleValue
0.850

@<SCITEGIC>MOL_PROPERTY
U+W
SciTegic.value.DoubleValue
-50.780

@<SCITEGIC>MOL_PROPERTY
Grad RMS
SciTegic.value.DoubleValue
0.000000

@<SCITEGIC>MOL_PROPERTY
U
SciTegic.value.DoubleValue
8.646

@<SCITEGIC>MOL_PROPERTY
W
SciTegic.value.DoubleValue
-59.426

@<SCITEGIC>MOL_PROPERTY
W(PB)
SciTegic.value.DoubleValue
-61.868

@<SCITEGIC>MOL_PROPERTY
W(SA)
SciTegic.value.DoubleValue
2.442

@<SCITEGIC>MOL_PROPERTY
Valence
SciTegic.value.DoubleValue
8.924

@<SCITEGIC>MOL_PROPERTY
Coulomb
SciTegic.value.DoubleValue
-1.171

@<SCITEGIC>MOL_PROPERTY
VdW
SciTegic.value.DoubleValue
0.894

@<SCITEGIC>MOL_PROPERTY
VdW6
SciTegic.value.DoubleValue
-10.223

@<SCITEGIC>MOL_PROPERTY
VdW12
SciTegic.value.DoubleValue
11.117

@<SCITEGIC>MOL_PROPERTY
Bond
SciTegic.value.DoubleValue
0.231

@<SCITEGIC>MOL_PROPERTY
Angle
SciTegic.value.DoubleValue
3.232

@<SCITEGIC>MOL_PROPERTY
Pdih
SciTegic.value.DoubleValue
5.461

@<SCITEGIC>MOL_PROPERTY
Idih
SciTegic.value.DoubleValue
0.001

@<SCITEGIC>MOL_PROPERTY
Tether
SciTegic.value.DoubleValue
0.000

@<TRIPOS>MOLECULE
guest-8_confgen4.mol2 : confsearch ligand conformer 680
          25          24           1
SMALL
USER_CHARGES
 
@<TRIPOS>ATOM
       1    C1      23.117784   19.403752   20.913297 C.2        1 MOL1         0.6168
       2    O1      23.836723   18.525541   21.347530 O.co2      1 MOL1        -0.6703
       3    O2      23.535054   20.424284   20.402277 O.co2      1 MOL1        -0.6703
       4    C2      21.608675   19.223880   21.033327 C.3        1 MOL1        -0.1963
       5    H1      21.386348   18.152525   20.960232 H          1 MOL1         0.0750
       6    H2      21.137854   19.712645   20.171981 H          1 MOL1         0.0750
       7    C3      21.037698   19.798453   22.353102 C.3        1 MOL1        -0.1860
       8    H3      21.537779   19.308749   23.199208 H          1 MOL1         0.0752
       9    H4      21.275047   20.869345   22.416323 H          1 MOL1         0.0752
      10    C4      19.508004   19.596406   22.452353 C.3        1 MOL1        -0.1858
      11    H5      19.272454   18.524303   22.429598 H          1 MOL1         0.0752
      12    H6      19.031638   20.031771   21.563447 H          1 MOL1         0.0752
      13    C5      18.880372   20.247535   23.710306 C.3        1 MOL1        -0.1858
      14    H7      19.044500   21.332716   23.666536 H          1 MOL1         0.0752
      15    H8      17.791629   20.110634   23.674553 H          1 MOL1         0.0752
      16    C6      19.417335   19.720406   25.067373 C.3        1 MOL1        -0.1858
      17    H9      18.887463   20.238530   25.878097 H          1 MOL1         0.0752
      18    H10     20.472576   20.003407   25.175276 H          1 MOL1         0.0752
      19    C7      19.283189   18.192502   25.281019 C.3        1 MOL1        -0.1834
      20    H11     19.879067   17.652688   24.533111 H          1 MOL1         0.0752
      21    H12     19.716534   17.935994   26.257400 H          1 MOL1         0.0752
      22    C8      17.821501   17.696684   25.240157 C.3        1 MOL1        -0.2849
      23    H13     17.380859   17.836951   24.245117 H          1 MOL1         0.0764
      24    H14     17.771848   16.626447   25.478602 H          1 MOL1         0.0764
      25    H15     17.203487   18.235503   25.969999 H          1 MOL1         0.0764
@<TRIPOS>BOND
    1     1     2    1
    2     1     3    2
    3     1     4    1
    4     4     5    1
    5     4     6    1
    6     4     7    1
    7     7     8    1
    8     7     9    1
    9     7    10    1
   10    10    11    1
   11    10    12    1
   12    10    13    1
   13    13    14    1
   14    13    15    1
   15    13    16    1
   16    16    17    1
   17    16    18    1
   18    16    19    1
   19    19    20    1
   20    19    21    1
   21    19    22    1
   22    22    23    1
   23    22    24    1
   24    22    25    1
@<TRIPOS>SUBSTRUCTURE
       1 MOL1            1 RESIDUE      1      MOL     
@<SCITEGIC>MOL_PROPERTY
VConf Rank
SciTegic.value.IntegerValue
680

@<SCITEGIC>MOL_PROPERTY
Conf_Id
SciTegic.value.IntegerValue
30

@<SCITEGIC>MOL_PROPERTY
Delta U+W
SciTegic.value.DoubleValue
0.843

@<SCITEGIC>MOL_PROPERTY
U+W
SciTegic.value.DoubleValue
-50.787

@<SCITEGIC>MOL_PROPERTY
Grad RMS
SciTegic.value.DoubleValue
0.000000

@<SCITEGIC>MOL_PROPERTY
U
SciTegic.value.DoubleValue
8.647

@<SCITEGIC>MOL_PROPERTY
W
SciTegic.value.DoubleValue
-59.434

@<SCITEGIC>MOL_PROPERTY
W(PB)
SciTegic.value.DoubleValue
-61.861

@<SCITEGIC>MOL_PROPERTY
W(SA)
SciTegic.value.DoubleValue
2.428

@<SCITEGIC>MOL_PROPERTY
Valence
SciTegic.value.DoubleValue
8.924

@<SCITEGIC>MOL_PROPERTY
Coulomb
SciTegic.value.DoubleValue
-1.170

@<SCITEGIC>MOL_PROPERTY
VdW
SciTegic.value.DoubleValue
0.894

@<SCITEGIC>MOL_PROPERTY
VdW6
SciTegic.value.DoubleValue
-10.224

@<SCITEGIC>MOL_PROPERTY
VdW12
SciTegic.value.DoubleValue
11.118

@<SCITEGIC>MOL_PROPERTY
Bond
SciTegic.value.DoubleValue
0.231

@<SCITEGIC>MOL_PROPERTY
Angle
SciTegic.value.DoubleValue
3.232

@<SCITEGIC>MOL_PROPERTY
Pdih
SciTegic.value.DoubleValue
5.460

@<SCITEGIC>MOL_PROPERTY
Idih
SciTegic.value.DoubleValue
0.000

@<SCITEGIC>MOL_PROPERTY
Tether
SciTegic.value.DoubleValue
0.000

@<TRIPOS>MOLECULE
guest-8_confgen4.mol2 : confsearch ligand conformer 681
          25          24           1
SMALL
USER_CHARGES
 
@<TRIPOS>ATOM
       1    C1      19.694426   14.863161   24.970039 C.2        1 MOL1         0.6168
       2    O1      19.029194   15.241189   25.915112 O.co2      1 MOL1        -0.6703
       3    O2      20.010936   13.702083   24.803192 O.co2      1 MOL1        -0.6703
       4    C2      20.170556   15.873448   23.925042 C.3        1 MOL1        -0.1963
       5    H1      19.790975   15.540595   22.951885 H          1 MOL1         0.0750
       6    H2      21.264123   15.808708   23.882292 H          1 MOL1         0.0750
       7    C3      19.741539   17.342768   24.180893 C.3        1 MOL1        -0.1860
       8    H3      18.645179   17.399258   24.228935 H          1 MOL1         0.0752
       9    H4      20.119701   17.667645   25.160155 H          1 MOL1         0.0752
      10    C4      20.263054   18.293203   23.081193 C.3        1 MOL1        -0.1858
      11    H5      19.883793   17.966459   22.103167 H          1 MOL1         0.0752
      12    H6      21.359237   18.235029   23.034985 H          1 MOL1         0.0752
      13    C5      19.835124   19.754224   23.337676 C.3        1 MOL1        -0.1858
      14    H7      18.738974   19.812711   23.383901 H          1 MOL1         0.0752
      15    H8      20.214286   20.081264   24.315625 H          1 MOL1         0.0752
      16    C6      20.356237   20.705067   22.238470 C.3        1 MOL1        -0.1858
      17    H9      19.977148   20.378238   21.260428 H          1 MOL1         0.0752
      18    H10     21.452391   20.646818   22.192140 H          1 MOL1         0.0752
      19    C7      19.928521   22.165464   22.494714 C.3        1 MOL1        -0.1834
      20    H11     18.832371   22.227978   22.539825 H          1 MOL1         0.0752
      21    H12     20.307605   22.496563   23.471524 H          1 MOL1         0.0752
      22    C8      20.450782   23.111743   21.394985 C.3        1 MOL1        -0.2849
      23    H13     20.061226   22.822326   20.410160 H          1 MOL1         0.0764
      24    H14     20.137613   24.145101   21.592935 H          1 MOL1         0.0764
      25    H15     21.547559   23.092951   21.348881 H          1 MOL1         0.0764
@<TRIPOS>BOND
    1     1     2    1
    2     1     3    2
    3     1     4    1
    4     4     5    1
    5     4     6    1
    6     4     7    1
    7     7     8    1
    8     7     9    1
    9     7    10    1
   10    10    11    1
   11    10    12    1
   12    10    13    1
   13    13    14    1
   14    13    15    1
   15    13    16    1
   16    16    17    1
   17    16    18    1
   18    16    19    1
   19    19    20    1
   20    19    21    1
   21    19    22    1
   22    22    23    1
   23    22    24    1
   24    22    25    1
@<TRIPOS>SUBSTRUCTURE
       1 MOL1            1 RESIDUE      1      MOL     
@<SCITEGIC>MOL_PROPERTY
VConf Rank
SciTegic.value.IntegerValue
681

@<SCITEGIC>MOL_PROPERTY
Conf_Id
SciTegic.value.IntegerValue
0

@<SCITEGIC>MOL_PROPERTY
Delta U+W
SciTegic.value.DoubleValue
0.000

@<SCITEGIC>MOL_PROPERTY
U+W
SciTegic.value.DoubleValue
-51.629

@<SCITEGIC>MOL_PROPERTY
Grad RMS
SciTegic.value.DoubleValue
0.000000

@<SCITEGIC>MOL_PROPERTY
U
SciTegic.value.DoubleValue
6.586

@<SCITEGIC>MOL_PROPERTY
W
SciTegic.value.DoubleValue
-58.216

@<SCITEGIC>MOL_PROPERTY
W(PB)
SciTegic.value.DoubleValue
-60.757

@<SCITEGIC>MOL_PROPERTY
W(SA)
SciTegic.value.DoubleValue
2.541

@<SCITEGIC>MOL_PROPERTY
Valence
SciTegic.value.DoubleValue
8.027

@<SCITEGIC>MOL_PROPERTY
Coulomb
SciTegic.value.DoubleValue
-2.892

@<SCITEGIC>MOL_PROPERTY
VdW
SciTegic.value.DoubleValue
1.451

@<SCITEGIC>MOL_PROPERTY
VdW6
SciTegic.value.DoubleValue
-7.931

@<SCITEGIC>MOL_PROPERTY
VdW12
SciTegic.value.DoubleValue
9.383

@<SCITEGIC>MOL_PROPERTY
Bond
SciTegic.value.DoubleValue
0.149

@<SCITEGIC>MOL_PROPERTY
Angle
SciTegic.value.DoubleValue
2.726

@<SCITEGIC>MOL_PROPERTY
Pdih
SciTegic.value.DoubleValue
5.152

@<SCITEGIC>MOL_PROPERTY
Idih
SciTegic.value.DoubleValue
0.000

@<SCITEGIC>MOL_PROPERTY
Tether
SciTegic.value.DoubleValue
0.000

@<TRIPOS>MOLECULE
guest-8_confgen4.mol2 : confsearch ligand conformer 682
          25          24           1
SMALL
USER_CHARGES
 
@<TRIPOS>ATOM
       1    C1      17.564402   15.242766   23.366587 C.2        1 MOL1         0.6168
       2    O1      16.979640   14.964892   22.338258 O.co2      1 MOL1        -0.6703
       3    O2      17.984047   14.412314   24.148168 O.co2      1 MOL1        -0.6703
       4    C2      17.805186   16.714640   23.682326 C.3        1 MOL1        -0.1963
       5    H1      17.791310   16.835924   24.772144 H          1 MOL1         0.0750
       6    H2      16.963092   17.291250   23.281074 H          1 MOL1         0.0750
       7    C3      19.140088   17.243492   23.102348 C.3        1 MOL1        -0.1860
       8    H3      19.971529   16.647387   23.503545 H          1 MOL1         0.0752
       9    H4      19.143381   17.102550   22.012523 H          1 MOL1         0.0752
      10    C4      19.360716   18.735006   23.435115 C.3        1 MOL1        -0.1858
      11    H5      19.355789   18.872668   24.525163 H          1 MOL1         0.0752
      12    H6      18.527258   19.327933   23.033912 H          1 MOL1         0.0752
      13    C5      20.692069   19.259431   22.855506 C.3        1 MOL1        -0.1858
      14    H7      21.525671   18.666709   23.256618 H          1 MOL1         0.0752
      15    H8      20.697193   19.121880   21.765479 H          1 MOL1         0.0752
      16    C6      20.913350   20.750900   23.187823 C.3        1 MOL1        -0.1858
      17    H9      20.908382   20.888776   24.277805 H          1 MOL1         0.0752
      18    H10     20.079898   21.343902   22.786820 H          1 MOL1         0.0752
      19    C7      22.244039   21.275290   22.608477 C.3        1 MOL1        -0.1834
      20    H11     23.080369   20.685613   23.008879 H          1 MOL1         0.0752
      21    H12     22.251882   21.140765   21.517913 H          1 MOL1         0.0752
      22    C8      22.461314   22.764867   22.942476 C.3        1 MOL1        -0.2849
      23    H13     23.411374   23.120813   22.523220 H          1 MOL1         0.0764
      24    H14     21.654660   23.382495   22.526253 H          1 MOL1         0.0764
      25    H15     22.489381   22.923910   24.028438 H          1 MOL1         0.0764
@<TRIPOS>BOND
    1     1     2    1
    2     1     3    2
    3     1     4    1
    4     4     5    1
    5     4     6    1
    6     4     7    1
    7     7     8    1
    8     7     9    1
    9     7    10    1
   10    10    11    1
   11    10    12    1
   12    10    13    1
   13    13    14    1
   14    13    15    1
   15    13    16    1
   16    16    17    1
   17    16    18    1
   18    16    19    1
   19    19    20    1
   20    19    21    1
   21    19    22    1
   22    22    23    1
   23    22    24    1
   24    22    25    1
@<TRIPOS>SUBSTRUCTURE
       1 MOL1            1 RESIDUE      1      MOL     
@<SCITEGIC>MOL_PROPERTY
VConf Rank
SciTegic.value.IntegerValue
682

@<SCITEGIC>MOL_PROPERTY
Conf_Id
SciTegic.value.IntegerValue
27

@<SCITEGIC>MOL_PROPERTY
Delta U+W
SciTegic.value.DoubleValue
-1.297

@<SCITEGIC>MOL_PROPERTY
U+W
SciTegic.value.DoubleValue
-52.926

@<SCITEGIC>MOL_PROPERTY
Grad RMS
SciTegic.value.DoubleValue
0.000000

@<SCITEGIC>MOL_PROPERTY
U
SciTegic.value.DoubleValue
5.617

@<SCITEGIC>MOL_PROPERTY
W
SciTegic.value.DoubleValue
-58.543

@<SCITEGIC>MOL_PROPERTY
W(PB)
SciTegic.value.DoubleValue
-61.065

@<SCITEGIC>MOL_PROPERTY
W(SA)
SciTegic.value.DoubleValue
2.522

@<SCITEGIC>MOL_PROPERTY
Valence
SciTegic.value.DoubleValue
7.531

@<SCITEGIC>MOL_PROPERTY
Coulomb
SciTegic.value.DoubleValue
-2.818

@<SCITEGIC>MOL_PROPERTY
VdW
SciTegic.value.DoubleValue
0.904

@<SCITEGIC>MOL_PROPERTY
VdW6
SciTegic.value.DoubleValue
-7.640

@<SCITEGIC>MOL_PROPERTY
VdW12
SciTegic.value.DoubleValue
8.544

@<SCITEGIC>MOL_PROPERTY
Bond
SciTegic.value.DoubleValue
0.115

@<SCITEGIC>MOL_PROPERTY
Angle
SciTegic.value.DoubleValue
2.271

@<SCITEGIC>MOL_PROPERTY
Pdih
SciTegic.value.DoubleValue
5.144

@<SCITEGIC>MOL_PROPERTY
Idih
SciTegic.value.DoubleValue
0.001

@<SCITEGIC>MOL_PROPERTY
Tether
SciTegic.value.DoubleValue
0.000

@<TRIPOS>MOLECULE
guest-8_confgen4.mol2 : confsearch ligand conformer 683
          25          24           1
SMALL
USER_CHARGES
 
@<TRIPOS>ATOM
       1    C1      19.896464   23.014155   22.488389 C.2        1 MOL1         0.6168
       2    O1      18.896090   23.293112   21.857112 O.co2      1 MOL1        -0.6703
       3    O2      20.095651   23.380579   23.629889 O.co2      1 MOL1        -0.6703
       4    C2      20.967673   22.171327   21.802011 C.3        1 MOL1        -0.1963
       5    H1      21.912748   22.297157   22.344088 H          1 MOL1         0.0750
       6    H2      21.119234   22.587173   20.798973 H          1 MOL1         0.0750
       7    C3      20.610191   20.666426   21.690558 C.3        1 MOL1        -0.1860
       8    H3      19.648355   20.558421   21.170098 H          1 MOL1         0.0752
       9    H4      21.364350   20.166107   21.068084 H          1 MOL1         0.0752
      10    C4      20.541513   19.968382   23.067434 C.3        1 MOL1        -0.1858
      11    H5      19.776445   20.452411   23.690179 H          1 MOL1         0.0752
      12    H6      21.500578   20.090746   23.589206 H          1 MOL1         0.0752
      13    C5      20.216032   18.465367   22.930909 C.3        1 MOL1        -0.1858
      14    H7      19.256843   18.344023   22.409065 H          1 MOL1         0.0752
      15    H8      20.981469   17.978654   22.311027 H          1 MOL1         0.0752
      16    C6      20.146408   17.767404   24.306358 C.3        1 MOL1        -0.1858
      17    H9      19.381025   18.254078   24.926410 H          1 MOL1         0.0752
      18    H10     21.105392   17.888935   24.828529 H          1 MOL1         0.0752
      19    C7      19.820584   16.265160   24.170447 C.3        1 MOL1        -0.1834
      20    H11     18.860882   16.139854   23.650108 H          1 MOL1         0.0752
      21    H12     20.585303   15.774668   23.552303 H          1 MOL1         0.0752
      22    C8      19.751806   15.572003   25.546095 C.3        1 MOL1        -0.2849
      23    H13     18.972413   16.022642   26.174482 H          1 MOL1         0.0764
      24    H14     19.519387   14.505349   25.430718 H          1 MOL1         0.0764
      25    H15     20.709807   15.654739   26.075985 H          1 MOL1         0.0764
@<TRIPOS>BOND
    1     1     2    1
    2     1     3    2
    3     1     4    1
    4     4     5    1
    5     4     6    1
    6     4     7    1
    7     7     8    1
    8     7     9    1
    9     7    10    1
   10    10    11    1
   11    10    12    1
   12    10    13    1
   13    13    14    1
   14    13    15    1
   15    13    16    1
   16    16    17    1
   17    16    18    1
   18    16    19    1
   19    19    20    1
   20    19    21    1
   21    19    22    1
   22    22    23    1
   23    22    24    1
   24    22    25    1
@<TRIPOS>SUBSTRUCTURE
       1 MOL1            1 RESIDUE      1      MOL     
@<SCITEGIC>MOL_PROPERTY
VConf Rank
SciTegic.value.IntegerValue
683

@<SCITEGIC>MOL_PROPERTY
Conf_Id
SciTegic.value.IntegerValue
37

@<SCITEGIC>MOL_PROPERTY
Delta U+W
SciTegic.value.DoubleValue
-0.230

@<SCITEGIC>MOL_PROPERTY
U+W
SciTegic.value.DoubleValue
-51.860

@<SCITEGIC>MOL_PROPERTY
Grad RMS
SciTegic.value.DoubleValue
0.000000

@<SCITEGIC>MOL_PROPERTY
U
SciTegic.value.DoubleValue
7.816

@<SCITEGIC>MOL_PROPERTY
W
SciTegic.value.DoubleValue
-59.675

@<SCITEGIC>MOL_PROPERTY
W(PB)
SciTegic.value.DoubleValue
-62.180

@<SCITEGIC>MOL_PROPERTY
W(SA)
SciTegic.value.DoubleValue
2.505

@<SCITEGIC>MOL_PROPERTY
Valence
SciTegic.value.DoubleValue
7.785

@<SCITEGIC>MOL_PROPERTY
Coulomb
SciTegic.value.DoubleValue
-0.713

@<SCITEGIC>MOL_PROPERTY
VdW
SciTegic.value.DoubleValue
0.744

@<SCITEGIC>MOL_PROPERTY
VdW6
SciTegic.value.DoubleValue
-8.514

@<SCITEGIC>MOL_PROPERTY
VdW12
SciTegic.value.DoubleValue
9.259

@<SCITEGIC>MOL_PROPERTY
Bond
SciTegic.value.DoubleValue
0.136

@<SCITEGIC>MOL_PROPERTY
Angle
SciTegic.value.DoubleValue
2.433

@<SCITEGIC>MOL_PROPERTY
Pdih
SciTegic.value.DoubleValue
5.216

@<SCITEGIC>MOL_PROPERTY
Idih
SciTegic.value.DoubleValue
0.000

@<SCITEGIC>MOL_PROPERTY
Tether
SciTegic.value.DoubleValue
0.000

@<TRIPOS>MOLECULE
guest-8_confgen4.mol2 : confsearch ligand conformer 684
          25          24           1
SMALL
USER_CHARGES
 
@<TRIPOS>ATOM
       1    C1      22.481394   16.261483   22.584733 C.2        1 MOL1         0.6168
       2    O1      22.272877   15.285630   23.278495 O.co2      1 MOL1        -0.6703
       3    O2      23.491605   16.933425   22.654951 O.co2      1 MOL1        -0.6703
       4    C2      21.422118   16.653186   21.558345 C.3        1 MOL1        -0.1963
       5    H1      21.114261   15.737872   21.039300 H          1 MOL1         0.0750
       6    H2      21.886253   17.303509   20.807010 H          1 MOL1         0.0750
       7    C3      20.176853   17.345626   22.170542 C.3        1 MOL1        -0.1860
       8    H3      19.415148   17.465628   21.388266 H          1 MOL1         0.0752
       9    H4      19.739817   16.694259   22.940213 H          1 MOL1         0.0752
      10    C4      20.504439   18.727760   22.778949 C.3        1 MOL1        -0.1858
      11    H5      20.953219   19.370543   22.009241 H          1 MOL1         0.0752
      12    H6      21.253523   18.613847   23.574762 H          1 MOL1         0.0752
      13    C5      19.245637   19.412343   23.353748 C.3        1 MOL1        -0.1858
      14    H7      18.496245   19.529961   22.559007 H          1 MOL1         0.0752
      15    H8      18.797661   18.768895   24.123411 H          1 MOL1         0.0752
      16    C6      19.572321   20.793132   23.962480 C.3        1 MOL1        -0.1858
      17    H9      20.020581   21.436651   23.193047 H          1 MOL1         0.0752
      18    H10     20.321835   20.675698   24.757189 H          1 MOL1         0.0752
      19    C7      18.314508   21.477527   24.537699 C.3        1 MOL1        -0.1834
      20    H11     17.563180   21.598286   23.744981 H          1 MOL1         0.0752
      21    H12     17.864527   20.837369   25.309190 H          1 MOL1         0.0752
      22    C8      18.645037   22.855954   25.144569 C.3        1 MOL1        -0.2849
      23    H13     19.067968   23.527828   24.386209 H          1 MOL1         0.0764
      24    H14     17.739998   23.327931   25.548578 H          1 MOL1         0.0764
      25    H15     19.371651   22.761171   25.962155 H          1 MOL1         0.0764
@<TRIPOS>BOND
    1     1     2    1
    2     1     3    2
    3     1     4    1
    4     4     5    1
    5     4     6    1
    6     4     7    1
    7     7     8    1
    8     7     9    1
    9     7    10    1
   10    10    11    1
   11    10    12    1
   12    10    13    1
   13    13    14    1
   14    13    15    1
   15    13    16    1
   16    16    17    1
   17    16    18    1
   18    16    19    1
   19    19    20    1
   20    19    21    1
   21    19    22    1
   22    22    23    1
   23    22    24    1
   24    22    25    1
@<TRIPOS>SUBSTRUCTURE
       1 MOL1            1 RESIDUE      1      MOL     
@<SCITEGIC>MOL_PROPERTY
VConf Rank
SciTegic.value.IntegerValue
684

@<SCITEGIC>MOL_PROPERTY
Conf_Id
SciTegic.value.IntegerValue
54

@<SCITEGIC>MOL_PROPERTY
Delta U+W
SciTegic.value.DoubleValue
-0.224

@<SCITEGIC>MOL_PROPERTY
U+W
SciTegic.value.DoubleValue
-51.854

@<SCITEGIC>MOL_PROPERTY
Grad RMS
SciTegic.value.DoubleValue
0.000000

@<SCITEGIC>MOL_PROPERTY
U
SciTegic.value.DoubleValue
7.816

@<SCITEGIC>MOL_PROPERTY
W
SciTegic.value.DoubleValue
-59.670

@<SCITEGIC>MOL_PROPERTY
W(PB)
SciTegic.value.DoubleValue
-62.157

@<SCITEGIC>MOL_PROPERTY
W(SA)
SciTegic.value.DoubleValue
2.487

@<SCITEGIC>MOL_PROPERTY
Valence
SciTegic.value.DoubleValue
7.785

@<SCITEGIC>MOL_PROPERTY
Coulomb
SciTegic.value.DoubleValue
-0.713

@<SCITEGIC>MOL_PROPERTY
VdW
SciTegic.value.DoubleValue
0.744

@<SCITEGIC>MOL_PROPERTY
VdW6
SciTegic.value.DoubleValue
-8.515

@<SCITEGIC>MOL_PROPERTY
VdW12
SciTegic.value.DoubleValue
9.259

@<SCITEGIC>MOL_PROPERTY
Bond
SciTegic.value.DoubleValue
0.136

@<SCITEGIC>MOL_PROPERTY
Angle
SciTegic.value.DoubleValue
2.433

@<SCITEGIC>MOL_PROPERTY
Pdih
SciTegic.value.DoubleValue
5.215

@<SCITEGIC>MOL_PROPERTY
Idih
SciTegic.value.DoubleValue
0.000

@<SCITEGIC>MOL_PROPERTY
Tether
SciTegic.value.DoubleValue
0.000

@<TRIPOS>MOLECULE
guest-8_confgen4.mol2 : confsearch ligand conformer 685
          25          24           1
SMALL
USER_CHARGES
 
@<TRIPOS>ATOM
       1    C1      18.757458   19.674970   27.089572 C.2        1 MOL1         0.6168
       2    O1      19.470988   18.980227   27.786176 O.co2      1 MOL1        -0.6703
       3    O2      18.524753   20.845083   27.321505 O.co2      1 MOL1        -0.6703
       4    C2      18.101812   19.040316   25.866246 C.3        1 MOL1        -0.1963
       5    H1      17.047129   19.339662   25.868578 H          1 MOL1         0.0750
       6    H2      18.122613   17.950048   25.983352 H          1 MOL1         0.0750
       7    C3      18.752063   19.446570   24.517989 C.3        1 MOL1        -0.1860
       8    H3      18.121581   19.071163   23.702289 H          1 MOL1         0.0752
       9    H4      18.761089   20.542147   24.434145 H          1 MOL1         0.0752
      10    C4      20.190547   18.896406   24.362968 C.3        1 MOL1        -0.1858
      11    H5      20.174534   17.798654   24.401198 H          1 MOL1         0.0752
      12    H6      20.795196   19.226116   25.218929 H          1 MOL1         0.0752
      13    C5      20.895009   19.360096   23.065401 C.3        1 MOL1        -0.1858
      14    H7      20.894002   20.457537   23.018522 H          1 MOL1         0.0752
      15    H8      21.946723   19.052353   23.123391 H          1 MOL1         0.0752
      16    C6      20.261491   18.780484   21.776396 C.3        1 MOL1        -0.1858
      17    H9      19.211665   19.092945   21.712293 H          1 MOL1         0.0752
      18    H10     20.258167   17.683153   21.826094 H          1 MOL1         0.0752
      19    C7      20.975028   19.237272   20.482296 C.3        1 MOL1        -0.1834
      20    H11     20.386278   18.898852   19.618531 H          1 MOL1         0.0752
      21    H12     20.991413   20.334907   20.435086 H          1 MOL1         0.0752
      22    C8      22.412264   18.688777   20.346488 C.3        1 MOL1        -0.2849
      23    H13     23.073356   19.097789   21.120485 H          1 MOL1         0.0764
      24    H14     22.424226   17.593934   20.425776 H          1 MOL1         0.0764
      25    H15     22.835982   18.961274   19.371238 H          1 MOL1         0.0764
@<TRIPOS>BOND
    1     1     2    1
    2     1     3    2
    3     1     4    1
    4     4     5    1
    5     4     6    1
    6     4     7    1
    7     7     8    1
    8     7     9    1
    9     7    10    1
   10    10    11    1
   11    10    12    1
   12    10    13    1
   13    13    14    1
   14    13    15    1
   15    13    16    1
   16    16    17    1
   17    16    18    1
   18    16    19    1
   19    19    20    1
   20    19    21    1
   21    19    22    1
   22    22    23    1
   23    22    24    1
   24    22    25    1
@<TRIPOS>SUBSTRUCTURE
       1 MOL1            1 RESIDUE      1      MOL     
@<SCITEGIC>MOL_PROPERTY
VConf Rank
SciTegic.value.IntegerValue
685

@<SCITEGIC>MOL_PROPERTY
Conf_Id
SciTegic.value.IntegerValue
101

@<SCITEGIC>MOL_PROPERTY
Delta U+W
SciTegic.value.DoubleValue
1.534

@<SCITEGIC>MOL_PROPERTY
U+W
SciTegic.value.DoubleValue
-50.095

@<SCITEGIC>MOL_PROPERTY
Grad RMS
SciTegic.value.DoubleValue
0.000000

@<SCITEGIC>MOL_PROPERTY
U
SciTegic.value.DoubleValue
9.416

@<SCITEGIC>MOL_PROPERTY
W
SciTegic.value.DoubleValue
-59.512

@<SCITEGIC>MOL_PROPERTY
W(PB)
SciTegic.value.DoubleValue
-61.988

@<SCITEGIC>MOL_PROPERTY
W(SA)
SciTegic.value.DoubleValue
2.476

@<SCITEGIC>MOL_PROPERTY
Valence
SciTegic.value.DoubleValue
8.939

@<SCITEGIC>MOL_PROPERTY
Coulomb
SciTegic.value.DoubleValue
-0.615

@<SCITEGIC>MOL_PROPERTY
VdW
SciTegic.value.DoubleValue
1.092

@<SCITEGIC>MOL_PROPERTY
VdW6
SciTegic.value.DoubleValue
-9.710

@<SCITEGIC>MOL_PROPERTY
VdW12
SciTegic.value.DoubleValue
10.802

@<SCITEGIC>MOL_PROPERTY
Bond
SciTegic.value.DoubleValue
0.216

@<SCITEGIC>MOL_PROPERTY
Angle
SciTegic.value.DoubleValue
2.979

@<SCITEGIC>MOL_PROPERTY
Pdih
SciTegic.value.DoubleValue
5.743

@<SCITEGIC>MOL_PROPERTY
Idih
SciTegic.value.DoubleValue
0.000

@<SCITEGIC>MOL_PROPERTY
Tether
SciTegic.value.DoubleValue
0.000

@<TRIPOS>MOLECULE
guest-8_confgen4.mol2 : confsearch ligand conformer 686
          25          24           1
SMALL
USER_CHARGES
 
@<TRIPOS>ATOM
       1    C1      23.092475   16.384629   24.079314 C.2        1 MOL1         0.6168
       2    O1      22.546557   15.319150   24.287800 O.co2      1 MOL1        -0.6703
       3    O2      24.260074   16.491473   23.759826 O.co2      1 MOL1        -0.6703
       4    C2      22.260924   17.656362   24.203357 C.3        1 MOL1        -0.1963
       5    H1      22.922431   18.463492   24.539938 H          1 MOL1         0.0750
       6    H2      21.519077   17.492573   24.992786 H          1 MOL1         0.0750
       7    C3      21.568486   18.051561   22.872980 C.3        1 MOL1        -0.1860
       8    H3      22.331381   18.110497   22.084345 H          1 MOL1         0.0752
       9    H4      20.871667   17.257502   22.570962 H          1 MOL1         0.0752
      10    C4      20.821617   19.405244   22.939593 C.3        1 MOL1        -0.1858
      11    H5      20.493007   19.660744   21.924100 H          1 MOL1         0.0752
      12    H6      21.517832   20.195697   23.251099 H          1 MOL1         0.0752
      13    C5      19.595064   19.385734   23.884626 C.3        1 MOL1        -0.1858
      14    H7      18.898895   18.596315   23.572884 H          1 MOL1         0.0752
      15    H8      19.919686   19.122167   24.898958 H          1 MOL1         0.0752
      16    C6      18.853448   20.744450   23.963704 C.3        1 MOL1        -0.1858
      17    H9      19.542392   21.502773   24.359910 H          1 MOL1         0.0752
      18    H10     18.042609   20.658629   24.699806 H          1 MOL1         0.0752
      19    C7      18.260077   21.259060   22.628583 C.3        1 MOL1        -0.1834
      20    H11     17.767968   22.223596   22.814440 H          1 MOL1         0.0752
      21    H12     19.063946   21.464109   21.909492 H          1 MOL1         0.0752
      22    C8      17.233615   20.291394   22.000936 C.3        1 MOL1        -0.2849
      23    H13     16.432164   20.053141   22.712195 H          1 MOL1         0.0764
      24    H14     16.774498   20.742034   21.111610 H          1 MOL1         0.0764
      25    H15     17.709414   19.352799   21.689917 H          1 MOL1         0.0764
@<TRIPOS>BOND
    1     1     2    1
    2     1     3    2
    3     1     4    1
    4     4     5    1
    5     4     6    1
    6     4     7    1
    7     7     8    1
    8     7     9    1
    9     7    10    1
   10    10    11    1
   11    10    12    1
   12    10    13    1
   13    13    14    1
   14    13    15    1
   15    13    16    1
   16    16    17    1
   17    16    18    1
   18    16    19    1
   19    19    20    1
   20    19    21    1
   21    19    22    1
   22    22    23    1
   23    22    24    1
   24    22    25    1
@<TRIPOS>SUBSTRUCTURE
       1 MOL1            1 RESIDUE      1      MOL     
@<SCITEGIC>MOL_PROPERTY
VConf Rank
SciTegic.value.IntegerValue
686

@<SCITEGIC>MOL_PROPERTY
Conf_Id
SciTegic.value.IntegerValue
75

@<SCITEGIC>MOL_PROPERTY
Delta U+W
SciTegic.value.DoubleValue
1.014

@<SCITEGIC>MOL_PROPERTY
U+W
SciTegic.value.DoubleValue
-50.615

@<SCITEGIC>MOL_PROPERTY
Grad RMS
SciTegic.value.DoubleValue
0.000000

@<SCITEGIC>MOL_PROPERTY
U
SciTegic.value.DoubleValue
8.474

@<SCITEGIC>MOL_PROPERTY
W
SciTegic.value.DoubleValue
-59.089

@<SCITEGIC>MOL_PROPERTY
W(PB)
SciTegic.value.DoubleValue
-61.530

@<SCITEGIC>MOL_PROPERTY
W(SA)
SciTegic.value.DoubleValue
2.441

@<SCITEGIC>MOL_PROPERTY
Valence
SciTegic.value.DoubleValue
9.080

@<SCITEGIC>MOL_PROPERTY
Coulomb
SciTegic.value.DoubleValue
-1.772

@<SCITEGIC>MOL_PROPERTY
VdW
SciTegic.value.DoubleValue
1.165

@<SCITEGIC>MOL_PROPERTY
VdW6
SciTegic.value.DoubleValue
-9.830

@<SCITEGIC>MOL_PROPERTY
VdW12
SciTegic.value.DoubleValue
10.996

@<SCITEGIC>MOL_PROPERTY
Bond
SciTegic.value.DoubleValue
0.240

@<SCITEGIC>MOL_PROPERTY
Angle
SciTegic.value.DoubleValue
3.225

@<SCITEGIC>MOL_PROPERTY
Pdih
SciTegic.value.DoubleValue
5.615

@<SCITEGIC>MOL_PROPERTY
Idih
SciTegic.value.DoubleValue
0.001

@<SCITEGIC>MOL_PROPERTY
Tether
SciTegic.value.DoubleValue
0.000

@<TRIPOS>MOLECULE
guest-8_confgen4.mol2 : confsearch ligand conformer 687
          25          24           1
SMALL
USER_CHARGES
 
@<TRIPOS>ATOM
       1    C1      24.245578   19.453577   22.506576 C.2        1 MOL1         0.6168
       2    O1      24.840047   18.923317   23.424227 O.co2      1 MOL1        -0.6703
       3    O2      24.696944   19.558689   21.383238 O.co2      1 MOL1        -0.6703
       4    C2      22.847073   19.998250   22.774151 C.3        1 MOL1        -0.1963
       5    H1      22.693741   20.873738   22.131835 H          1 MOL1         0.0750
       6    H2      22.810635   20.347726   23.812971 H          1 MOL1         0.0750
       7    C3      21.735139   18.949965   22.523589 C.3        1 MOL1        -0.1860
       8    H3      21.793203   18.600603   21.483363 H          1 MOL1         0.0752
       9    H4      21.910700   18.074782   23.164502 H          1 MOL1         0.0752
      10    C4      20.329542   19.524829   22.802835 C.3        1 MOL1        -0.1858
      11    H5      20.158704   20.399474   22.160478 H          1 MOL1         0.0752
      12    H6      20.283036   19.881552   23.838595 H          1 MOL1         0.0752
      13    C5      19.222201   18.475905   22.545365 C.3        1 MOL1        -0.1858
      14    H7      19.281380   18.167726   21.492540 H          1 MOL1         0.0752
      15    H8      19.406782   17.570858   23.140041 H          1 MOL1         0.0752
      16    C6      17.793643   19.010389   22.821002 C.3        1 MOL1        -0.1858
      17    H9      17.114570   18.567223   22.079833 H          1 MOL1         0.0752
      18    H10     17.753143   20.095037   22.651494 H          1 MOL1         0.0752
      19    C7      17.235714   18.670271   24.225260 C.3        1 MOL1        -0.1834
      20    H11     16.196536   19.022490   24.282016 H          1 MOL1         0.0752
      21    H12     17.197534   17.579516   24.351883 H          1 MOL1         0.0752
      22    C8      18.032691   19.292995   25.390341 C.3        1 MOL1        -0.2849
      23    H13     18.144783   20.376728   25.256473 H          1 MOL1         0.0764
      24    H14     17.516628   19.120839   26.343648 H          1 MOL1         0.0764
      25    H15     19.031233   18.845571   25.470042 H          1 MOL1         0.0764
@<TRIPOS>BOND
    1     1     2    1
    2     1     3    2
    3     1     4    1
    4     4     5    1
    5     4     6    1
    6     4     7    1
    7     7     8    1
    8     7     9    1
    9     7    10    1
   10    10    11    1
   11    10    12    1
   12    10    13    1
   13    13    14    1
   14    13    15    1
   15    13    16    1
   16    16    17    1
   17    16    18    1
   18    16    19    1
   19    19    20    1
   20    19    21    1
   21    19    22    1
   22    22    23    1
   23    22    24    1
   24    22    25    1
@<TRIPOS>SUBSTRUCTURE
       1 MOL1            1 RESIDUE      1      MOL     
@<SCITEGIC>MOL_PROPERTY
VConf Rank
SciTegic.value.IntegerValue
687

@<SCITEGIC>MOL_PROPERTY
Conf_Id
SciTegic.value.IntegerValue
125

@<SCITEGIC>MOL_PROPERTY
Delta U+W
SciTegic.value.DoubleValue
2.314

@<SCITEGIC>MOL_PROPERTY
U+W
SciTegic.value.DoubleValue
-49.315

@<SCITEGIC>MOL_PROPERTY
Grad RMS
SciTegic.value.DoubleValue
0.000000

@<SCITEGIC>MOL_PROPERTY
U
SciTegic.value.DoubleValue
9.740

@<SCITEGIC>MOL_PROPERTY
W
SciTegic.value.DoubleValue
-59.054

@<SCITEGIC>MOL_PROPERTY
W(PB)
SciTegic.value.DoubleValue
-61.488

@<SCITEGIC>MOL_PROPERTY
W(SA)
SciTegic.value.DoubleValue
2.433

@<SCITEGIC>MOL_PROPERTY
Valence
SciTegic.value.DoubleValue
10.506

@<SCITEGIC>MOL_PROPERTY
Coulomb
SciTegic.value.DoubleValue
-1.761

@<SCITEGIC>MOL_PROPERTY
VdW
SciTegic.value.DoubleValue
0.994

@<SCITEGIC>MOL_PROPERTY
VdW6
SciTegic.value.DoubleValue
-9.209

@<SCITEGIC>MOL_PROPERTY
VdW12
SciTegic.value.DoubleValue
10.203

@<SCITEGIC>MOL_PROPERTY
Bond
SciTegic.value.DoubleValue
0.193

@<SCITEGIC>MOL_PROPERTY
Angle
SciTegic.value.DoubleValue
2.979

@<SCITEGIC>MOL_PROPERTY
Pdih
SciTegic.value.DoubleValue
7.334

@<SCITEGIC>MOL_PROPERTY
Idih
SciTegic.value.DoubleValue
0.001

@<SCITEGIC>MOL_PROPERTY
Tether
SciTegic.value.DoubleValue
0.000

@<TRIPOS>MOLECULE
guest-8_confgen4.mol2 : confsearch ligand conformer 688
          25          24           1
SMALL
USER_CHARGES
 
@<TRIPOS>ATOM
       1    C1      20.012293   20.813246   27.029237 C.2        1 MOL1         0.6168
       2    O1      18.861165   21.165070   27.196024 O.co2      1 MOL1        -0.6703
       3    O2      20.915766   21.080543   27.796720 O.co2      1 MOL1        -0.6703
       4    C2      20.346195   20.012791   25.775523 C.3        1 MOL1        -0.1963
       5    H1      19.475636   19.392225   25.535224 H          1 MOL1         0.0750
       6    H2      21.173731   19.334565   26.015415 H          1 MOL1         0.0750
       7    C3      20.724731   20.914359   24.571725 C.3        1 MOL1        -0.1860
       8    H3      19.871566   21.555941   24.311321 H          1 MOL1         0.0752
       9    H4      21.537164   21.588015   24.877644 H          1 MOL1         0.0752
      10    C4      21.182149   20.120896   23.324593 C.3        1 MOL1        -0.1858
      11    H5      22.041167   19.487789   23.585810 H          1 MOL1         0.0752
      12    H6      21.540159   20.834719   22.570143 H          1 MOL1         0.0752
      13    C5      20.063920   19.251233   22.704556 C.3        1 MOL1        -0.1858
      14    H7      19.746744   18.490293   23.427742 H          1 MOL1         0.0752
      15    H8      19.187806   19.878133   22.490119 H          1 MOL1         0.0752
      16    C6      20.535019   18.560498   21.403727 C.3        1 MOL1        -0.1858
      17    H9      21.382052   17.896325   21.623494 H          1 MOL1         0.0752
      18    H10     20.910525   19.324004   20.708818 H          1 MOL1         0.0752
      19    C7      19.419253   17.758345   20.694195 C.3        1 MOL1        -0.1834
      20    H11     18.572451   18.420961   20.467979 H          1 MOL1         0.0752
      21    H12     19.801524   17.402649   19.727461 H          1 MOL1         0.0752
      22    C8      18.925108   16.543978   21.510110 C.3        1 MOL1        -0.2849
      23    H13     18.427086   16.858719   22.435637 H          1 MOL1         0.0764
      24    H14     18.202513   15.958391   20.927152 H          1 MOL1         0.0764
      25    H15     19.760229   15.882724   21.775485 H          1 MOL1         0.0764
@<TRIPOS>BOND
    1     1     2    1
    2     1     3    2
    3     1     4    1
    4     4     5    1
    5     4     6    1
    6     4     7    1
    7     7     8    1
    8     7     9    1
    9     7    10    1
   10    10    11    1
   11    10    12    1
   12    10    13    1
   13    13    14    1
   14    13    15    1
   15    13    16    1
   16    16    17    1
   17    16    18    1
   18    16    19    1
   19    19    20    1
   20    19    21    1
   21    19    22    1
   22    22    23    1
   23    22    24    1
   24    22    25    1
@<TRIPOS>SUBSTRUCTURE
       1 MOL1            1 RESIDUE      1      MOL     
@<SCITEGIC>MOL_PROPERTY
VConf Rank
SciTegic.value.IntegerValue
688

@<SCITEGIC>MOL_PROPERTY
Conf_Id
SciTegic.value.IntegerValue
4

@<SCITEGIC>MOL_PROPERTY
Delta U+W
SciTegic.value.DoubleValue
0.189

@<SCITEGIC>MOL_PROPERTY
U+W
SciTegic.value.DoubleValue
-51.441

@<SCITEGIC>MOL_PROPERTY
Grad RMS
SciTegic.value.DoubleValue
0.000000

@<SCITEGIC>MOL_PROPERTY
U
SciTegic.value.DoubleValue
7.701

@<SCITEGIC>MOL_PROPERTY
W
SciTegic.value.DoubleValue
-59.141

@<SCITEGIC>MOL_PROPERTY
W(PB)
SciTegic.value.DoubleValue
-61.609

@<SCITEGIC>MOL_PROPERTY
W(SA)
SciTegic.value.DoubleValue
2.467

@<SCITEGIC>MOL_PROPERTY
Valence
SciTegic.value.DoubleValue
8.550

@<SCITEGIC>MOL_PROPERTY
Coulomb
SciTegic.value.DoubleValue
-1.988

@<SCITEGIC>MOL_PROPERTY
VdW
SciTegic.value.DoubleValue
1.139

@<SCITEGIC>MOL_PROPERTY
VdW6
SciTegic.value.DoubleValue
-8.988

@<SCITEGIC>MOL_PROPERTY
VdW12
SciTegic.value.DoubleValue
10.127

@<SCITEGIC>MOL_PROPERTY
Bond
SciTegic.value.DoubleValue
0.191

@<SCITEGIC>MOL_PROPERTY
Angle
SciTegic.value.DoubleValue
2.738

@<SCITEGIC>MOL_PROPERTY
Pdih
SciTegic.value.DoubleValue
5.621

@<SCITEGIC>MOL_PROPERTY
Idih
SciTegic.value.DoubleValue
0.001

@<SCITEGIC>MOL_PROPERTY
Tether
SciTegic.value.DoubleValue
0.000

@<TRIPOS>MOLECULE
guest-8_confgen4.mol2 : confsearch ligand conformer 689
          25          24           1
SMALL
USER_CHARGES
 
@<TRIPOS>ATOM
       1    C1      18.920824   20.904175   19.746597 C.2        1 MOL1         0.6168
       2    O1      18.002301   21.651341   20.020010 O.co2      1 MOL1        -0.6703
       3    O2      19.438773   20.847895   18.648735 O.co2      1 MOL1        -0.6703
       4    C2      19.469432   20.004311   20.848093 C.3        1 MOL1        -0.1963
       5    H1      19.832640   19.080166   20.382912 H          1 MOL1         0.0750
       6    H2      18.633902   19.732787   21.502987 H          1 MOL1         0.0750
       7    C3      20.605979   20.676879   21.661207 C.3        1 MOL1        -0.1860
       8    H3      21.382429   21.020675   20.963800 H          1 MOL1         0.0752
       9    H4      20.217731   21.575481   22.160314 H          1 MOL1         0.0752
      10    C4      21.257781   19.739203   22.705273 C.3        1 MOL1        -0.1858
      11    H5      22.121199   20.256089   23.146009 H          1 MOL1         0.0752
      12    H6      21.653654   18.846531   22.201889 H          1 MOL1         0.0752
      13    C5      20.293652   19.314109   23.837061 C.3        1 MOL1        -0.1858
      14    H7      19.861152   20.208362   24.305911 H          1 MOL1         0.0752
      15    H8      19.462165   18.737608   23.414093 H          1 MOL1         0.0752
      16    C6      21.014520   18.466083   24.910562 C.3        1 MOL1        -0.1858
      17    H9      21.883558   19.024830   25.283951 H          1 MOL1         0.0752
      18    H10     21.408006   17.547768   24.453667 H          1 MOL1         0.0752
      19    C7      20.113407   18.100451   26.113112 C.3        1 MOL1        -0.1834
      20    H11     20.729052   17.605833   26.877023 H          1 MOL1         0.0752
      21    H12     19.722220   19.017051   26.575849 H          1 MOL1         0.0752
      22    C8      18.941826   17.166851   25.738443 C.3        1 MOL1        -0.2849
      23    H13     19.306904   16.256732   25.244976 H          1 MOL1         0.0764
      24    H14     18.388947   16.865194   26.637455 H          1 MOL1         0.0764
      25    H15     18.233011   17.663779   25.064402 H          1 MOL1         0.0764
@<TRIPOS>BOND
    1     1     2    1
    2     1     3    2
    3     1     4    1
    4     4     5    1
    5     4     6    1
    6     4     7    1
    7     7     8    1
    8     7     9    1
    9     7    10    1
   10    10    11    1
   11    10    12    1
   12    10    13    1
   13    13    14    1
   14    13    15    1
   15    13    16    1
   16    16    17    1
   17    16    18    1
   18    16    19    1
   19    19    20    1
   20    19    21    1
   21    19    22    1
   22    22    23    1
   23    22    24    1
   24    22    25    1
@<TRIPOS>SUBSTRUCTURE
       1 MOL1            1 RESIDUE      1      MOL     
@<SCITEGIC>MOL_PROPERTY
VConf Rank
SciTegic.value.IntegerValue
689

@<SCITEGIC>MOL_PROPERTY
Conf_Id
SciTegic.value.IntegerValue
17

@<SCITEGIC>MOL_PROPERTY
Delta U+W
SciTegic.value.DoubleValue
0.219

@<SCITEGIC>MOL_PROPERTY
U+W
SciTegic.value.DoubleValue
-51.411

@<SCITEGIC>MOL_PROPERTY
Grad RMS
SciTegic.value.DoubleValue
0.000000

@<SCITEGIC>MOL_PROPERTY
U
SciTegic.value.DoubleValue
7.701

@<SCITEGIC>MOL_PROPERTY
W
SciTegic.value.DoubleValue
-59.111

@<SCITEGIC>MOL_PROPERTY
W(PB)
SciTegic.value.DoubleValue
-61.599

@<SCITEGIC>MOL_PROPERTY
W(SA)
SciTegic.value.DoubleValue
2.488

@<SCITEGIC>MOL_PROPERTY
Valence
SciTegic.value.DoubleValue
8.550

@<SCITEGIC>MOL_PROPERTY
Coulomb
SciTegic.value.DoubleValue
-1.988

@<SCITEGIC>MOL_PROPERTY
VdW
SciTegic.value.DoubleValue
1.139

@<SCITEGIC>MOL_PROPERTY
VdW6
SciTegic.value.DoubleValue
-8.988

@<SCITEGIC>MOL_PROPERTY
VdW12
SciTegic.value.DoubleValue
10.127

@<SCITEGIC>MOL_PROPERTY
Bond
SciTegic.value.DoubleValue
0.191

@<SCITEGIC>MOL_PROPERTY
Angle
SciTegic.value.DoubleValue
2.738

@<SCITEGIC>MOL_PROPERTY
Pdih
SciTegic.value.DoubleValue
5.621

@<SCITEGIC>MOL_PROPERTY
Idih
SciTegic.value.DoubleValue
0.001

@<SCITEGIC>MOL_PROPERTY
Tether
SciTegic.value.DoubleValue
0.000

@<TRIPOS>MOLECULE
guest-8_confgen4.mol2 : confsearch ligand conformer 690
          25          24           1
SMALL
USER_CHARGES
 
@<TRIPOS>ATOM
       1    C1      18.568261   19.619405   26.900031 C.2        1 MOL1         0.6168
       2    O1      18.411629   18.516401   27.385736 O.co2      1 MOL1        -0.6703
       3    O2      17.655083   20.384434   26.659377 O.co2      1 MOL1        -0.6703
       4    C2      19.990701   20.078782   26.592513 C.3        1 MOL1        -0.1963
       5    H1      20.689779   19.467022   27.175448 H          1 MOL1         0.0750
       6    H2      20.089490   21.107958   26.957232 H          1 MOL1         0.0750
       7    C3      20.357364   20.025176   25.086663 C.3        1 MOL1        -0.1860
       8    H3      19.633357   20.628261   24.522953 H          1 MOL1         0.0752
       9    H4      21.341019   20.491851   24.942086 H          1 MOL1         0.0752
      10    C4      20.392161   18.578966   24.537099 C.3        1 MOL1        -0.1858
      11    H5      19.393498   18.126953   24.612443 H          1 MOL1         0.0752
      12    H6      21.054336   17.972458   25.169965 H          1 MOL1         0.0752
      13    C5      20.890225   18.487228   23.075170 C.3        1 MOL1        -0.1858
      14    H7      21.892424   18.930694   22.999108 H          1 MOL1         0.0752
      15    H8      20.999034   17.426463   22.810979 H          1 MOL1         0.0752
      16    C6      19.942036   19.163385   22.057928 C.3        1 MOL1        -0.1858
      17    H9      19.880656   20.240335   22.261250 H          1 MOL1         0.0752
      18    H10     18.928286   18.756420   22.174479 H          1 MOL1         0.0752
      19    C7      20.418578   18.950815   20.605527 C.3        1 MOL1        -0.1834
      20    H11     21.433275   19.355269   20.486085 H          1 MOL1         0.0752
      21    H12     20.475748   17.875350   20.387514 H          1 MOL1         0.0752
      22    C8      19.474102   19.628775   19.592582 C.3        1 MOL1        -0.2849
      23    H13     19.422882   20.711513   19.767046 H          1 MOL1         0.0764
      24    H14     19.827535   19.467286   18.565906 H          1 MOL1         0.0764
      25    H15     18.457742   19.220730   19.669343 H          1 MOL1         0.0764
@<TRIPOS>BOND
    1     1     2    1
    2     1     3    2
    3     1     4    1
    4     4     5    1
    5     4     6    1
    6     4     7    1
    7     7     8    1
    8     7     9    1
    9     7    10    1
   10    10    11    1
   11    10    12    1
   12    10    13    1
   13    13    14    1
   14    13    15    1
   15    13    16    1
   16    16    17    1
   17    16    18    1
   18    16    19    1
   19    19    20    1
   20    19    21    1
   21    19    22    1
   22    22    23    1
   23    22    24    1
   24    22    25    1
@<TRIPOS>SUBSTRUCTURE
       1 MOL1            1 RESIDUE      1      MOL     
@<SCITEGIC>MOL_PROPERTY
VConf Rank
SciTegic.value.IntegerValue
690

@<SCITEGIC>MOL_PROPERTY
Conf_Id
SciTegic.value.IntegerValue
142

@<SCITEGIC>MOL_PROPERTY
Delta U+W
SciTegic.value.DoubleValue
0.593

@<SCITEGIC>MOL_PROPERTY
U+W
SciTegic.value.DoubleValue
-51.037

@<SCITEGIC>MOL_PROPERTY
Grad RMS
SciTegic.value.DoubleValue
0.000000

@<SCITEGIC>MOL_PROPERTY
U
SciTegic.value.DoubleValue
8.903

@<SCITEGIC>MOL_PROPERTY
W
SciTegic.value.DoubleValue
-59.940

@<SCITEGIC>MOL_PROPERTY
W(PB)
SciTegic.value.DoubleValue
-62.418

@<SCITEGIC>MOL_PROPERTY
W(SA)
SciTegic.value.DoubleValue
2.478

@<SCITEGIC>MOL_PROPERTY
Valence
SciTegic.value.DoubleValue
8.305

@<SCITEGIC>MOL_PROPERTY
Coulomb
SciTegic.value.DoubleValue
-0.223

@<SCITEGIC>MOL_PROPERTY
VdW
SciTegic.value.DoubleValue
0.821

@<SCITEGIC>MOL_PROPERTY
VdW6
SciTegic.value.DoubleValue
-9.236

@<SCITEGIC>MOL_PROPERTY
VdW12
SciTegic.value.DoubleValue
10.057

@<SCITEGIC>MOL_PROPERTY
Bond
SciTegic.value.DoubleValue
0.173

@<SCITEGIC>MOL_PROPERTY
Angle
SciTegic.value.DoubleValue
2.663

@<SCITEGIC>MOL_PROPERTY
Pdih
SciTegic.value.DoubleValue
5.469

@<SCITEGIC>MOL_PROPERTY
Idih
SciTegic.value.DoubleValue
0.001

@<SCITEGIC>MOL_PROPERTY
Tether
SciTegic.value.DoubleValue
0.000

@<TRIPOS>MOLECULE
guest-8_confgen4.mol2 : confsearch ligand conformer 691
          25          24           1
SMALL
USER_CHARGES
 
@<TRIPOS>ATOM
       1    C1      20.957899   20.123252   26.731518 C.2        1 MOL1         0.6168
       2    O1      20.382760   20.575324   27.702293 O.co2      1 MOL1        -0.6703
       3    O2      21.771897   19.222783   26.791676 O.co2      1 MOL1        -0.6703
       4    C2      20.660068   20.740576   25.368013 C.3        1 MOL1        -0.1963
       5    H1      21.438959   20.428058   24.663060 H          1 MOL1         0.0750
       6    H2      20.755180   21.827416   25.474086 H          1 MOL1         0.0750
       7    C3      19.250660   20.399405   24.811865 C.3        1 MOL1        -0.1860
       8    H3      18.494333   20.786756   25.508360 H          1 MOL1         0.0752
       9    H4      19.094018   20.938136   23.868425 H          1 MOL1         0.0752
      10    C4      18.996237   18.884958   24.596545 C.3        1 MOL1        -0.1858
      11    H5      17.976874   18.750115   24.210132 H          1 MOL1         0.0752
      12    H6      19.019003   18.376654   25.570298 H          1 MOL1         0.0752
      13    C5      19.991538   18.175272   23.644678 C.3        1 MOL1        -0.1858
      14    H7      21.002431   18.203315   24.073004 H          1 MOL1         0.0752
      15    H8      19.716537   17.113372   23.587452 H          1 MOL1         0.0752
      16    C6      20.010118   18.767282   22.216447 C.3        1 MOL1        -0.1858
      17    H9      20.353661   19.809411   22.248884 H          1 MOL1         0.0752
      18    H10     18.989689   18.777331   21.809878 H          1 MOL1         0.0752
      19    C7      20.932086   17.961662   21.277092 C.3        1 MOL1        -0.1834
      20    H11     21.952961   17.948141   21.683426 H          1 MOL1         0.0752
      21    H12     20.593025   16.917517   21.230484 H          1 MOL1         0.0752
      22    C8      20.954276   18.556868   19.854795 C.3        1 MOL1        -0.2849
      23    H13     21.320574   19.591770   19.867843 H          1 MOL1         0.0764
      24    H14     21.614078   17.972012   19.200853 H          1 MOL1         0.0764
      25    H15     19.949478   18.554373   19.412385 H          1 MOL1         0.0764
@<TRIPOS>BOND
    1     1     2    1
    2     1     3    2
    3     1     4    1
    4     4     5    1
    5     4     6    1
    6     4     7    1
    7     7     8    1
    8     7     9    1
    9     7    10    1
   10    10    11    1
   11    10    12    1
   12    10    13    1
   13    13    14    1
   14    13    15    1
   15    13    16    1
   16    16    17    1
   17    16    18    1
   18    16    19    1
   19    19    20    1
   20    19    21    1
   21    19    22    1
   22    22    23    1
   23    22    24    1
   24    22    25    1
@<TRIPOS>SUBSTRUCTURE
       1 MOL1            1 RESIDUE      1      MOL     
@<SCITEGIC>MOL_PROPERTY
VConf Rank
SciTegic.value.IntegerValue
691

@<SCITEGIC>MOL_PROPERTY
Conf_Id
SciTegic.value.IntegerValue
135

@<SCITEGIC>MOL_PROPERTY
Delta U+W
SciTegic.value.DoubleValue
1.314

@<SCITEGIC>MOL_PROPERTY
U+W
SciTegic.value.DoubleValue
-50.316

@<SCITEGIC>MOL_PROPERTY
Grad RMS
SciTegic.value.DoubleValue
0.000000

@<SCITEGIC>MOL_PROPERTY
U
SciTegic.value.DoubleValue
9.773

@<SCITEGIC>MOL_PROPERTY
W
SciTegic.value.DoubleValue
-60.088

@<SCITEGIC>MOL_PROPERTY
W(PB)
SciTegic.value.DoubleValue
-62.535

@<SCITEGIC>MOL_PROPERTY
W(SA)
SciTegic.value.DoubleValue
2.447

@<SCITEGIC>MOL_PROPERTY
Valence
SciTegic.value.DoubleValue
8.741

@<SCITEGIC>MOL_PROPERTY
Coulomb
SciTegic.value.DoubleValue
0.479

@<SCITEGIC>MOL_PROPERTY
VdW
SciTegic.value.DoubleValue
0.552

@<SCITEGIC>MOL_PROPERTY
VdW6
SciTegic.value.DoubleValue
-10.627

@<SCITEGIC>MOL_PROPERTY
VdW12
SciTegic.value.DoubleValue
11.179

@<SCITEGIC>MOL_PROPERTY
Bond
SciTegic.value.DoubleValue
0.227

@<SCITEGIC>MOL_PROPERTY
Angle
SciTegic.value.DoubleValue
3.155

@<SCITEGIC>MOL_PROPERTY
Pdih
SciTegic.value.DoubleValue
5.358

@<SCITEGIC>MOL_PROPERTY
Idih
SciTegic.value.DoubleValue
0.001

@<SCITEGIC>MOL_PROPERTY
Tether
SciTegic.value.DoubleValue
0.000

@<TRIPOS>MOLECULE
guest-8_confgen4.mol2 : confsearch ligand conformer 692
          25          24           1
SMALL
USER_CHARGES
 
@<TRIPOS>ATOM
       1    C1      23.878875   17.353318   23.156456 C.2        1 MOL1         0.6168
       2    O1      24.251821   17.071149   22.034835 O.co2      1 MOL1        -0.6703
       3    O2      24.626812   17.454466   24.108890 O.co2      1 MOL1        -0.6703
       4    C2      22.393578   17.617312   23.376414 C.3        1 MOL1        -0.1963
       5    H1      22.140848   17.306519   24.397141 H          1 MOL1         0.0750
       6    H2      21.836117   16.969158   22.691356 H          1 MOL1         0.0750
       7    C3      22.011055   19.104794   23.159847 C.3        1 MOL1        -0.1860
       8    H3      22.658301   19.728175   23.792236 H          1 MOL1         0.0752
       9    H4      22.223556   19.392457   22.120917 H          1 MOL1         0.0752
      10    C4      20.535280   19.422844   23.500238 C.3        1 MOL1        -0.1858
      11    H5      20.409427   20.512323   23.465794 H          1 MOL1         0.0752
      12    H6      20.318216   19.111402   24.530998 H          1 MOL1         0.0752
      13    C5      19.523597   18.768381   22.529342 C.3        1 MOL1        -0.1858
      14    H7      19.710516   19.131096   21.509492 H          1 MOL1         0.0752
      15    H8      19.686473   17.683771   22.505518 H          1 MOL1         0.0752
      16    C6      18.038838   19.014548   22.898614 C.3        1 MOL1        -0.1858
      17    H9      17.816929   18.571938   23.879308 H          1 MOL1         0.0752
      18    H10     17.423169   18.461344   22.176263 H          1 MOL1         0.0752
      19    C7      17.599082   20.499770   22.868135 C.3        1 MOL1        -0.1834
      20    H11     18.227398   21.069411   22.169592 H          1 MOL1         0.0752
      21    H12     16.575542   20.555433   22.472447 H          1 MOL1         0.0752
      22    C8      17.608712   21.164913   24.262681 C.3        1 MOL1        -0.2849
      23    H13     18.607208   21.151898   24.714294 H          1 MOL1         0.0764
      24    H14     17.286312   22.211696   24.191183 H          1 MOL1         0.0764
      25    H15     16.922051   20.648257   24.945796 H          1 MOL1         0.0764
@<TRIPOS>BOND
    1     1     2    1
    2     1     3    2
    3     1     4    1
    4     4     5    1
    5     4     6    1
    6     4     7    1
    7     7     8    1
    8     7     9    1
    9     7    10    1
   10    10    11    1
   11    10    12    1
   12    10    13    1
   13    13    14    1
   14    13    15    1
   15    13    16    1
   16    16    17    1
   17    16    18    1
   18    16    19    1
   19    19    20    1
   20    19    21    1
   21    19    22    1
   22    22    23    1
   23    22    24    1
   24    22    25    1
@<TRIPOS>SUBSTRUCTURE
       1 MOL1            1 RESIDUE      1      MOL     
@<SCITEGIC>MOL_PROPERTY
VConf Rank
SciTegic.value.IntegerValue
692

@<SCITEGIC>MOL_PROPERTY
Conf_Id
SciTegic.value.IntegerValue
19

@<SCITEGIC>MOL_PROPERTY
Delta U+W
SciTegic.value.DoubleValue
3.222

@<SCITEGIC>MOL_PROPERTY
U+W
SciTegic.value.DoubleValue
-48.407

@<SCITEGIC>MOL_PROPERTY
Grad RMS
SciTegic.value.DoubleValue
0.000000

@<SCITEGIC>MOL_PROPERTY
U
SciTegic.value.DoubleValue
10.617

@<SCITEGIC>MOL_PROPERTY
W
SciTegic.value.DoubleValue
-59.025

@<SCITEGIC>MOL_PROPERTY
W(PB)
SciTegic.value.DoubleValue
-61.462

@<SCITEGIC>MOL_PROPERTY
W(SA)
SciTegic.value.DoubleValue
2.437

@<SCITEGIC>MOL_PROPERTY
Valence
SciTegic.value.DoubleValue
11.188

@<SCITEGIC>MOL_PROPERTY
Coulomb
SciTegic.value.DoubleValue
-1.778

@<SCITEGIC>MOL_PROPERTY
VdW
SciTegic.value.DoubleValue
1.208

@<SCITEGIC>MOL_PROPERTY
VdW6
SciTegic.value.DoubleValue
-9.786

@<SCITEGIC>MOL_PROPERTY
VdW12
SciTegic.value.DoubleValue
10.993

@<SCITEGIC>MOL_PROPERTY
Bond
SciTegic.value.DoubleValue
0.241

@<SCITEGIC>MOL_PROPERTY
Angle
SciTegic.value.DoubleValue
3.294

@<SCITEGIC>MOL_PROPERTY
Pdih
SciTegic.value.DoubleValue
7.653

@<SCITEGIC>MOL_PROPERTY
Idih
SciTegic.value.DoubleValue
0.001

@<SCITEGIC>MOL_PROPERTY
Tether
SciTegic.value.DoubleValue
0.000

@<TRIPOS>MOLECULE
guest-8_confgen4.mol2 : confsearch ligand conformer 693
          25          24           1
SMALL
USER_CHARGES
 
@<TRIPOS>ATOM
       1    C1      21.680218   15.778569   25.143295 C.2        1 MOL1         0.6168
       2    O1      21.744927   15.876632   26.352815 O.co2      1 MOL1        -0.6703
       3    O2      22.325989   14.976839   24.497557 O.co2      1 MOL1        -0.6703
       4    C2      20.755220   16.729533   24.392143 C.3        1 MOL1        -0.1963
       5    H1      19.892535   16.931621   25.036431 H          1 MOL1         0.0750
       6    H2      20.382337   16.208487   23.502301 H          1 MOL1         0.0750
       7    C3      21.457880   18.050552   23.983479 C.3        1 MOL1        -0.1860
       8    H3      21.784928   18.587975   24.884311 H          1 MOL1         0.0752
       9    H4      22.369757   17.802852   23.422611 H          1 MOL1         0.0752
      10    C4      20.578705   18.977730   23.110364 C.3        1 MOL1        -0.1858
      11    H5      20.232220   18.430701   22.223071 H          1 MOL1         0.0752
      12    H6      21.211020   19.798482   22.749071 H          1 MOL1         0.0752
      13    C5      19.367191   19.571694   23.867929 C.3        1 MOL1        -0.1858
      14    H7      18.764374   18.758762   24.291283 H          1 MOL1         0.0752
      15    H8      19.725665   20.165899   24.719406 H          1 MOL1         0.0752
      16    C6      18.434057   20.442893   22.989437 C.3        1 MOL1        -0.1858
      17    H9      17.590532   20.759847   23.617830 H          1 MOL1         0.0752
      18    H10     17.995309   19.833289   22.187695 H          1 MOL1         0.0752
      19    C7      19.096787   21.711911   22.397337 C.3        1 MOL1        -0.1834
      20    H11     18.363048   22.529713   22.408610 H          1 MOL1         0.0752
      21    H12     19.929222   22.040371   23.034833 H          1 MOL1         0.0752
      22    C8      19.578527   21.522672   20.941527 C.3        1 MOL1        -0.2849
      23    H13     18.737639   21.271112   20.282204 H          1 MOL1         0.0764
      24    H14     20.035318   22.446949   20.564884 H          1 MOL1         0.0764
      25    H15     20.323242   20.722889   20.858666 H          1 MOL1         0.0764
@<TRIPOS>BOND
    1     1     2    1
    2     1     3    2
    3     1     4    1
    4     4     5    1
    5     4     6    1
    6     4     7    1
    7     7     8    1
    8     7     9    1
    9     7    10    1
   10    10    11    1
   11    10    12    1
   12    10    13    1
   13    13    14    1
   14    13    15    1
   15    13    16    1
   16    16    17    1
   17    16    18    1
   18    16    19    1
   19    19    20    1
   20    19    21    1
   21    19    22    1
   22    22    23    1
   23    22    24    1
   24    22    25    1
@<TRIPOS>SUBSTRUCTURE
       1 MOL1            1 RESIDUE      1      MOL     
@<SCITEGIC>MOL_PROPERTY
VConf Rank
SciTegic.value.IntegerValue
693

@<SCITEGIC>MOL_PROPERTY
Conf_Id
SciTegic.value.IntegerValue
20

@<SCITEGIC>MOL_PROPERTY
Delta U+W
SciTegic.value.DoubleValue
3.224

@<SCITEGIC>MOL_PROPERTY
U+W
SciTegic.value.DoubleValue
-48.406

@<SCITEGIC>MOL_PROPERTY
Grad RMS
SciTegic.value.DoubleValue
0.000000

@<SCITEGIC>MOL_PROPERTY
U
SciTegic.value.DoubleValue
10.617

@<SCITEGIC>MOL_PROPERTY
W
SciTegic.value.DoubleValue
-59.023

@<SCITEGIC>MOL_PROPERTY
W(PB)
SciTegic.value.DoubleValue
-61.467

@<SCITEGIC>MOL_PROPERTY
W(SA)
SciTegic.value.DoubleValue
2.444

@<SCITEGIC>MOL_PROPERTY
Valence
SciTegic.value.DoubleValue
11.188

@<SCITEGIC>MOL_PROPERTY
Coulomb
SciTegic.value.DoubleValue
-1.778

@<SCITEGIC>MOL_PROPERTY
VdW
SciTegic.value.DoubleValue
1.208

@<SCITEGIC>MOL_PROPERTY
VdW6
SciTegic.value.DoubleValue
-9.786

@<SCITEGIC>MOL_PROPERTY
VdW12
SciTegic.value.DoubleValue
10.993

@<SCITEGIC>MOL_PROPERTY
Bond
SciTegic.value.DoubleValue
0.241

@<SCITEGIC>MOL_PROPERTY
Angle
SciTegic.value.DoubleValue
3.294

@<SCITEGIC>MOL_PROPERTY
Pdih
SciTegic.value.DoubleValue
7.653

@<SCITEGIC>MOL_PROPERTY
Idih
SciTegic.value.DoubleValue
0.001

@<SCITEGIC>MOL_PROPERTY
Tether
SciTegic.value.DoubleValue
0.000

@<TRIPOS>MOLECULE
guest-8_confgen4.mol2 : confsearch ligand conformer 694
          25          24           1
SMALL
USER_CHARGES
 
@<TRIPOS>ATOM
       1    C1      20.447530   17.274995   26.008918 C.2        1 MOL1         0.6168
       2    O1      21.092897   16.352507   25.550483 O.co2      1 MOL1        -0.6703
       3    O2      19.259186   17.205393   26.254298 O.co2      1 MOL1        -0.6703
       4    C2      21.179847   18.569431   26.357539 C.3        1 MOL1        -0.1963
       5    H1      21.900672   18.313612   27.142673 H          1 MOL1         0.0750
       6    H2      20.466844   19.273424   26.803420 H          1 MOL1         0.0750
       7    C3      21.935175   19.242848   25.177243 C.3        1 MOL1        -0.1860
       8    H3      22.693608   19.915608   25.599855 H          1 MOL1         0.0752
       9    H4      22.488785   18.484902   24.605729 H          1 MOL1         0.0752
      10    C4      21.041970   20.077439   24.226072 C.3        1 MOL1        -0.1858
      11    H5      21.696895   20.621799   23.532006 H          1 MOL1         0.0752
      12    H6      20.500560   20.840429   24.801882 H          1 MOL1         0.0752
      13    C5      20.037885   19.236883   23.405152 C.3        1 MOL1        -0.1858
      14    H7      20.566062   18.409387   22.911872 H          1 MOL1         0.0752
      15    H8      19.292134   18.789171   24.074040 H          1 MOL1         0.0752
      16    C6      19.310005   20.091597   22.344858 C.3        1 MOL1        -0.1858
      17    H9      20.046789   20.538730   21.663545 H          1 MOL1         0.0752
      18    H10     18.786482   20.921244   22.839471 H          1 MOL1         0.0752
      19    C7      18.298914   19.255672   21.532269 C.3        1 MOL1        -0.1834
      20    H11     18.819659   18.425277   21.035553 H          1 MOL1         0.0752
      21    H12     17.559106   18.808052   22.210447 H          1 MOL1         0.0752
      22    C8      17.573304   20.111779   20.474800 C.3        1 MOL1        -0.2849
      23    H13     18.287922   20.546578   19.763715 H          1 MOL1         0.0764
      24    H14     16.858825   19.501698   19.907012 H          1 MOL1         0.0764
      25    H15     17.017753   20.932267   20.947597 H          1 MOL1         0.0764
@<TRIPOS>BOND
    1     1     2    1
    2     1     3    2
    3     1     4    1
    4     4     5    1
    5     4     6    1
    6     4     7    1
    7     7     8    1
    8     7     9    1
    9     7    10    1
   10    10    11    1
   11    10    12    1
   12    10    13    1
   13    13    14    1
   14    13    15    1
   15    13    16    1
   16    16    17    1
   17    16    18    1
   18    16    19    1
   19    19    20    1
   20    19    21    1
   21    19    22    1
   22    22    23    1
   23    22    24    1
   24    22    25    1
@<TRIPOS>SUBSTRUCTURE
       1 MOL1            1 RESIDUE      1      MOL     
@<SCITEGIC>MOL_PROPERTY
VConf Rank
SciTegic.value.IntegerValue
694

@<SCITEGIC>MOL_PROPERTY
Conf_Id
SciTegic.value.IntegerValue
24

@<SCITEGIC>MOL_PROPERTY
Delta U+W
SciTegic.value.DoubleValue
1.784

@<SCITEGIC>MOL_PROPERTY
U+W
SciTegic.value.DoubleValue
-49.846

@<SCITEGIC>MOL_PROPERTY
Grad RMS
SciTegic.value.DoubleValue
0.000000

@<SCITEGIC>MOL_PROPERTY
U
SciTegic.value.DoubleValue
10.904

@<SCITEGIC>MOL_PROPERTY
W
SciTegic.value.DoubleValue
-60.749

@<SCITEGIC>MOL_PROPERTY
W(PB)
SciTegic.value.DoubleValue
-63.220

@<SCITEGIC>MOL_PROPERTY
W(SA)
SciTegic.value.DoubleValue
2.471

@<SCITEGIC>MOL_PROPERTY
Valence
SciTegic.value.DoubleValue
9.445

@<SCITEGIC>MOL_PROPERTY
Coulomb
SciTegic.value.DoubleValue
0.780

@<SCITEGIC>MOL_PROPERTY
VdW
SciTegic.value.DoubleValue
0.679

@<SCITEGIC>MOL_PROPERTY
VdW6
SciTegic.value.DoubleValue
-10.008

@<SCITEGIC>MOL_PROPERTY
VdW12
SciTegic.value.DoubleValue
10.687

@<SCITEGIC>MOL_PROPERTY
Bond
SciTegic.value.DoubleValue
0.201

@<SCITEGIC>MOL_PROPERTY
Angle
SciTegic.value.DoubleValue
3.198

@<SCITEGIC>MOL_PROPERTY
Pdih
SciTegic.value.DoubleValue
6.039

@<SCITEGIC>MOL_PROPERTY
Idih
SciTegic.value.DoubleValue
0.006

@<SCITEGIC>MOL_PROPERTY
Tether
SciTegic.value.DoubleValue
0.000

@<TRIPOS>MOLECULE
guest-8_confgen4.mol2 : confsearch ligand conformer 695
          25          24           1
SMALL
USER_CHARGES
 
@<TRIPOS>ATOM
       1    C1      22.706518   18.716935   21.663949 C.2        1 MOL1         0.6168
       2    O1      23.099049   17.573274   21.788855 O.co2      1 MOL1        -0.6703
       3    O2      22.063107   19.104539   20.708436 O.co2      1 MOL1        -0.6703
       4    C2      23.098036   19.738344   22.730171 C.3        1 MOL1        -0.1963
       5    H1      22.709397   20.722292   22.441048 H          1 MOL1         0.0750
       6    H2      24.191275   19.811624   22.699761 H          1 MOL1         0.0750
       7    C3      22.654562   19.388405   24.178610 C.3        1 MOL1        -0.1860
       8    H3      22.863090   18.330135   24.388788 H          1 MOL1         0.0752
       9    H4      23.281626   19.963270   24.873412 H          1 MOL1         0.0752
      10    C4      21.174582   19.712137   24.501012 C.3        1 MOL1        -0.1858
      11    H5      20.976125   20.773801   24.300214 H          1 MOL1         0.0752
      12    H6      21.020121   19.567964   25.579130 H          1 MOL1         0.0752
      13    C5      20.156653   18.839260   23.732551 C.3        1 MOL1        -0.1858
      14    H7      20.205074   19.066931   22.660250 H          1 MOL1         0.0752
      15    H8      20.418377   17.778574   23.848704 H          1 MOL1         0.0752
      16    C6      18.713411   19.073689   24.229205 C.3        1 MOL1        -0.1858
      17    H9      18.455239   20.135644   24.116824 H          1 MOL1         0.0752
      18    H10     18.650634   18.840624   25.300982 H          1 MOL1         0.0752
      19    C7      17.694905   18.211039   23.454703 C.3        1 MOL1        -0.1834
      20    H11     17.753557   18.442758   22.382103 H          1 MOL1         0.0752
      21    H12     17.950007   17.147995   23.565690 H          1 MOL1         0.0752
      22    C8      16.254762   18.447493   23.952443 C.3        1 MOL1        -0.2849
      23    H13     15.962211   19.497829   23.823670 H          1 MOL1         0.0764
      24    H14     15.544560   17.826602   23.391042 H          1 MOL1         0.0764
      25    H15     16.160128   18.193143   25.016268 H          1 MOL1         0.0764
@<TRIPOS>BOND
    1     1     2    1
    2     1     3    2
    3     1     4    1
    4     4     5    1
    5     4     6    1
    6     4     7    1
    7     7     8    1
    8     7     9    1
    9     7    10    1
   10    10    11    1
   11    10    12    1
   12    10    13    1
   13    13    14    1
   14    13    15    1
   15    13    16    1
   16    16    17    1
   17    16    18    1
   18    16    19    1
   19    19    20    1
   20    19    21    1
   21    19    22    1
   22    22    23    1
   23    22    24    1
   24    22    25    1
@<TRIPOS>SUBSTRUCTURE
       1 MOL1            1 RESIDUE      1      MOL     
@<SCITEGIC>MOL_PROPERTY
VConf Rank
SciTegic.value.IntegerValue
695

@<SCITEGIC>MOL_PROPERTY
Conf_Id
SciTegic.value.IntegerValue
9

@<SCITEGIC>MOL_PROPERTY
Delta U+W
SciTegic.value.DoubleValue
1.764

@<SCITEGIC>MOL_PROPERTY
U+W
SciTegic.value.DoubleValue
-49.865

@<SCITEGIC>MOL_PROPERTY
Grad RMS
SciTegic.value.DoubleValue
0.000000

@<SCITEGIC>MOL_PROPERTY
U
SciTegic.value.DoubleValue
10.902

@<SCITEGIC>MOL_PROPERTY
W
SciTegic.value.DoubleValue
-60.768

@<SCITEGIC>MOL_PROPERTY
W(PB)
SciTegic.value.DoubleValue
-63.223

@<SCITEGIC>MOL_PROPERTY
W(SA)
SciTegic.value.DoubleValue
2.456

@<SCITEGIC>MOL_PROPERTY
Valence
SciTegic.value.DoubleValue
9.445

@<SCITEGIC>MOL_PROPERTY
Coulomb
SciTegic.value.DoubleValue
0.778

@<SCITEGIC>MOL_PROPERTY
VdW
SciTegic.value.DoubleValue
0.679

@<SCITEGIC>MOL_PROPERTY
VdW6
SciTegic.value.DoubleValue
-10.007

@<SCITEGIC>MOL_PROPERTY
VdW12
SciTegic.value.DoubleValue
10.687

@<SCITEGIC>MOL_PROPERTY
Bond
SciTegic.value.DoubleValue
0.201

@<SCITEGIC>MOL_PROPERTY
Angle
SciTegic.value.DoubleValue
3.198

@<SCITEGIC>MOL_PROPERTY
Pdih
SciTegic.value.DoubleValue
6.040

@<SCITEGIC>MOL_PROPERTY
Idih
SciTegic.value.DoubleValue
0.006

@<SCITEGIC>MOL_PROPERTY
Tether
SciTegic.value.DoubleValue
0.000

@<TRIPOS>MOLECULE
guest-8_confgen4.mol2 : confsearch ligand conformer 696
          25          24           1
SMALL
USER_CHARGES
 
@<TRIPOS>ATOM
       1    C1      17.671203   20.420596   25.990059 C.2        1 MOL1         0.6168
       2    O1      17.487662   19.299941   26.422551 O.co2      1 MOL1        -0.6703
       3    O2      17.371049   21.432365   26.592619 O.co2      1 MOL1        -0.6703
       4    C2      18.333342   20.566130   24.624736 C.3        1 MOL1        -0.1963
       5    H1      17.924776   21.463457   24.145012 H          1 MOL1         0.0750
       6    H2      18.029764   19.711177   24.012887 H          1 MOL1         0.0750
       7    C3      19.878910   20.668869   24.715912 C.3        1 MOL1        -0.1860
       8    H3      20.123079   21.544688   25.332968 H          1 MOL1         0.0752
       9    H4      20.285342   19.797622   25.248036 H          1 MOL1         0.0752
      10    C4      20.570214   20.826096   23.337627 C.3        1 MOL1        -0.1858
      11    H5      21.441049   21.483476   23.465747 H          1 MOL1         0.0752
      12    H6      19.905264   21.345851   22.634395 H          1 MOL1         0.0752
      13    C5      21.076038   19.501314   22.713243 C.3        1 MOL1        -0.1858
      14    H7      21.618344   19.740917   21.788557 H          1 MOL1         0.0752
      15    H8      21.807985   19.042657   23.390969 H          1 MOL1         0.0752
      16    C6      19.956774   18.483820   22.389009 C.3        1 MOL1        -0.1858
      17    H9      19.154312   18.994838   21.840090 H          1 MOL1         0.0752
      18    H10     19.515834   18.107482   23.321312 H          1 MOL1         0.0752
      19    C7      20.446196   17.284744   21.543896 C.3        1 MOL1        -0.1834
      20    H11     19.579448   16.665433   21.274886 H          1 MOL1         0.0752
      21    H12     20.874087   17.646615   20.598808 H          1 MOL1         0.0752
      22    C8      21.479882   16.403357   22.278044 C.3        1 MOL1        -0.2849
      23    H13     21.082974   16.050253   23.238734 H          1 MOL1         0.0764
      24    H14     21.733387   15.523425   21.672811 H          1 MOL1         0.0764
      25    H15     22.409438   16.953489   22.470797 H          1 MOL1         0.0764
@<TRIPOS>BOND
    1     1     2    1
    2     1     3    2
    3     1     4    1
    4     4     5    1
    5     4     6    1
    6     4     7    1
    7     7     8    1
    8     7     9    1
    9     7    10    1
   10    10    11    1
   11    10    12    1
   12    10    13    1
   13    13    14    1
   14    13    15    1
   15    13    16    1
   16    16    17    1
   17    16    18    1
   18    16    19    1
   19    19    20    1
   20    19    21    1
   21    19    22    1
   22    22    23    1
   23    22    24    1
   24    22    25    1
@<TRIPOS>SUBSTRUCTURE
       1 MOL1            1 RESIDUE      1      MOL     
@<SCITEGIC>MOL_PROPERTY
VConf Rank
SciTegic.value.IntegerValue
696

@<SCITEGIC>MOL_PROPERTY
Conf_Id
SciTegic.value.IntegerValue
89

@<SCITEGIC>MOL_PROPERTY
Delta U+W
SciTegic.value.DoubleValue
2.903

@<SCITEGIC>MOL_PROPERTY
U+W
SciTegic.value.DoubleValue
-48.726

@<SCITEGIC>MOL_PROPERTY
Grad RMS
SciTegic.value.DoubleValue
0.000000

@<SCITEGIC>MOL_PROPERTY
U
SciTegic.value.DoubleValue
10.996

@<SCITEGIC>MOL_PROPERTY
W
SciTegic.value.DoubleValue
-59.723

@<SCITEGIC>MOL_PROPERTY
W(PB)
SciTegic.value.DoubleValue
-62.151

@<SCITEGIC>MOL_PROPERTY
W(SA)
SciTegic.value.DoubleValue
2.428

@<SCITEGIC>MOL_PROPERTY
Valence
SciTegic.value.DoubleValue
10.985

@<SCITEGIC>MOL_PROPERTY
Coulomb
SciTegic.value.DoubleValue
-0.995

@<SCITEGIC>MOL_PROPERTY
VdW
SciTegic.value.DoubleValue
1.006

@<SCITEGIC>MOL_PROPERTY
VdW6
SciTegic.value.DoubleValue
-10.062

@<SCITEGIC>MOL_PROPERTY
VdW12
SciTegic.value.DoubleValue
11.069

@<SCITEGIC>MOL_PROPERTY
Bond
SciTegic.value.DoubleValue
0.238

@<SCITEGIC>MOL_PROPERTY
Angle
SciTegic.value.DoubleValue
3.202

@<SCITEGIC>MOL_PROPERTY
Pdih
SciTegic.value.DoubleValue
7.544

@<SCITEGIC>MOL_PROPERTY
Idih
SciTegic.value.DoubleValue
0.001

@<SCITEGIC>MOL_PROPERTY
Tether
SciTegic.value.DoubleValue
0.000

@<TRIPOS>MOLECULE
guest-8_confgen4.mol2 : confsearch ligand conformer 697
          25          24           1
SMALL
USER_CHARGES
 
@<TRIPOS>ATOM
       1    C1      21.985165   16.691770   25.201998 C.2        1 MOL1         0.6168
       2    O1      22.506236   16.137711   24.253966 O.co2      1 MOL1        -0.6703
       3    O2      22.606538   17.324835   26.033101 O.co2      1 MOL1        -0.6703
       4    C2      20.478393   16.528337   25.392192 C.3        1 MOL1        -0.1963
       5    H1      20.345354   15.972745   26.327657 H          1 MOL1         0.0750
       6    H2      20.084384   15.891761   24.590756 H          1 MOL1         0.0750
       7    C3      19.671501   17.854964   25.473241 C.3        1 MOL1        -0.1860
       8    H3      18.720515   17.641214   25.979580 H          1 MOL1         0.0752
       9    H4      20.198269   18.576241   26.113435 H          1 MOL1         0.0752
      10    C4      19.340230   18.501855   24.105131 C.3        1 MOL1        -0.1858
      11    H5      18.634024   19.321297   24.287632 H          1 MOL1         0.0752
      12    H6      18.813739   17.775713   23.471034 H          1 MOL1         0.0752
      13    C5      20.576400   19.050112   23.351683 C.3        1 MOL1        -0.1858
      14    H7      21.140352   19.730555   24.004158 H          1 MOL1         0.0752
      15    H8      21.250386   18.219150   23.110683 H          1 MOL1         0.0752
      16    C6      20.224183   19.770449   22.027888 C.3        1 MOL1        -0.1858
      17    H9      19.632342   19.100058   21.389824 H          1 MOL1         0.0752
      18    H10     21.157841   19.970843   21.484726 H          1 MOL1         0.0752
      19    C7      19.469115   21.104261   22.228536 C.3        1 MOL1        -0.1834
      20    H11     18.492987   20.922173   22.696242 H          1 MOL1         0.0752
      21    H12     20.036203   21.751795   22.911397 H          1 MOL1         0.0752
      22    C8      19.252579   21.837904   20.889516 C.3        1 MOL1        -0.2849
      23    H13     18.664217   21.223001   20.195908 H          1 MOL1         0.0764
      24    H14     18.713066   22.780716   21.047886 H          1 MOL1         0.0764
      25    H15     20.211877   22.073130   20.410186 H          1 MOL1         0.0764
@<TRIPOS>BOND
    1     1     2    1
    2     1     3    2
    3     1     4    1
    4     4     5    1
    5     4     6    1
    6     4     7    1
    7     7     8    1
    8     7     9    1
    9     7    10    1
   10    10    11    1
   11    10    12    1
   12    10    13    1
   13    13    14    1
   14    13    15    1
   15    13    16    1
   16    16    17    1
   17    16    18    1
   18    16    19    1
   19    19    20    1
   20    19    21    1
   21    19    22    1
   22    22    23    1
   23    22    24    1
   24    22    25    1
@<TRIPOS>SUBSTRUCTURE
       1 MOL1            1 RESIDUE      1      MOL     
@<SCITEGIC>MOL_PROPERTY
VConf Rank
SciTegic.value.IntegerValue
697

@<SCITEGIC>MOL_PROPERTY
Conf_Id
SciTegic.value.IntegerValue
114

@<SCITEGIC>MOL_PROPERTY
Delta U+W
SciTegic.value.DoubleValue
2.758

@<SCITEGIC>MOL_PROPERTY
U+W
SciTegic.value.DoubleValue
-48.871

@<SCITEGIC>MOL_PROPERTY
Grad RMS
SciTegic.value.DoubleValue
0.000000

@<SCITEGIC>MOL_PROPERTY
U
SciTegic.value.DoubleValue
11.422

@<SCITEGIC>MOL_PROPERTY
W
SciTegic.value.DoubleValue
-60.293

@<SCITEGIC>MOL_PROPERTY
W(PB)
SciTegic.value.DoubleValue
-62.719

@<SCITEGIC>MOL_PROPERTY
W(SA)
SciTegic.value.DoubleValue
2.425

@<SCITEGIC>MOL_PROPERTY
Valence
SciTegic.value.DoubleValue
10.135

@<SCITEGIC>MOL_PROPERTY
Coulomb
SciTegic.value.DoubleValue
0.369

@<SCITEGIC>MOL_PROPERTY
VdW
SciTegic.value.DoubleValue
0.918

@<SCITEGIC>MOL_PROPERTY
VdW6
SciTegic.value.DoubleValue
-10.482

@<SCITEGIC>MOL_PROPERTY
VdW12
SciTegic.value.DoubleValue
11.400

@<SCITEGIC>MOL_PROPERTY
Bond
SciTegic.value.DoubleValue
0.245

@<SCITEGIC>MOL_PROPERTY
Angle
SciTegic.value.DoubleValue
3.539

@<SCITEGIC>MOL_PROPERTY
Pdih
SciTegic.value.DoubleValue
6.346

@<SCITEGIC>MOL_PROPERTY
Idih
SciTegic.value.DoubleValue
0.006

@<SCITEGIC>MOL_PROPERTY
Tether
SciTegic.value.DoubleValue
0.000

@<TRIPOS>MOLECULE
guest-8_confgen4.mol2 : confsearch ligand conformer 698
          25          24           1
SMALL
USER_CHARGES
 
@<TRIPOS>ATOM
       1    C1      23.035732   17.769265   21.179221 C.2        1 MOL1         0.6168
       2    O1      23.883101   17.353155   21.944650 O.co2      1 MOL1        -0.6703
       3    O2      22.458281   17.069985   20.370113 O.co2      1 MOL1        -0.6703
       4    C2      22.691019   19.255340   21.220475 C.3        1 MOL1        -0.1963
       5    H1      22.655523   19.613089   20.184747 H          1 MOL1         0.0750
       6    H2      23.511122   19.791285   21.713395 H          1 MOL1         0.0750
       7    C3      21.345063   19.569671   21.923738 C.3        1 MOL1        -0.1860
       8    H3      21.115284   20.635780   21.793874 H          1 MOL1         0.0752
       9    H4      20.544454   19.008613   21.424173 H          1 MOL1         0.0752
      10    C4      21.374132   19.233404   23.434146 C.3        1 MOL1        -0.1858
      11    H5      22.239148   19.731778   23.892637 H          1 MOL1         0.0752
      12    H6      21.529491   18.154710   23.574095 H          1 MOL1         0.0752
      13    C5      20.097962   19.672891   24.191065 C.3        1 MOL1        -0.1858
      14    H7      20.274066   19.527691   25.264420 H          1 MOL1         0.0752
      15    H8      19.935406   20.749335   24.044894 H          1 MOL1         0.0752
      16    C6      18.830241   18.890210   23.768175 C.3        1 MOL1        -0.1858
      17    H9      18.994706   17.813556   23.911169 H          1 MOL1         0.0752
      18    H10     18.650293   19.038067   22.695878 H          1 MOL1         0.0752
      19    C7      17.556742   19.324917   24.530847 C.3        1 MOL1        -0.1834
      20    H11     17.395552   20.403834   24.399532 H          1 MOL1         0.0752
      21    H12     16.688973   18.824815   24.079056 H          1 MOL1         0.0752
      22    C8      17.595623   18.983760   26.036505 C.3        1 MOL1        -0.2849
      23    H13     16.634459   19.224219   26.508994 H          1 MOL1         0.0764
      24    H14     17.790357   17.914687   26.192309 H          1 MOL1         0.0764
      25    H15     18.373086   19.555463   26.558149 H          1 MOL1         0.0764
@<TRIPOS>BOND
    1     1     2    1
    2     1     3    2
    3     1     4    1
    4     4     5    1
    5     4     6    1
    6     4     7    1
    7     7     8    1
    8     7     9    1
    9     7    10    1
   10    10    11    1
   11    10    12    1
   12    10    13    1
   13    13    14    1
   14    13    15    1
   15    13    16    1
   16    16    17    1
   17    16    18    1
   18    16    19    1
   19    19    20    1
   20    19    21    1
   21    19    22    1
   22    22    23    1
   23    22    24    1
   24    22    25    1
@<TRIPOS>SUBSTRUCTURE
       1 MOL1            1 RESIDUE      1      MOL     
@<SCITEGIC>MOL_PROPERTY
VConf Rank
SciTegic.value.IntegerValue
698

@<SCITEGIC>MOL_PROPERTY
Conf_Id
SciTegic.value.IntegerValue
87

@<SCITEGIC>MOL_PROPERTY
Delta U+W
SciTegic.value.DoubleValue
1.453

@<SCITEGIC>MOL_PROPERTY
U+W
SciTegic.value.DoubleValue
-50.176

@<SCITEGIC>MOL_PROPERTY
Grad RMS
SciTegic.value.DoubleValue
0.000000

@<SCITEGIC>MOL_PROPERTY
U
SciTegic.value.DoubleValue
9.763

@<SCITEGIC>MOL_PROPERTY
W
SciTegic.value.DoubleValue
-59.940

@<SCITEGIC>MOL_PROPERTY
W(PB)
SciTegic.value.DoubleValue
-62.392

@<SCITEGIC>MOL_PROPERTY
W(SA)
SciTegic.value.DoubleValue
2.452

@<SCITEGIC>MOL_PROPERTY
Valence
SciTegic.value.DoubleValue
8.883

@<SCITEGIC>MOL_PROPERTY
Coulomb
SciTegic.value.DoubleValue
-0.122

@<SCITEGIC>MOL_PROPERTY
VdW
SciTegic.value.DoubleValue
1.003

@<SCITEGIC>MOL_PROPERTY
VdW6
SciTegic.value.DoubleValue
-9.782

@<SCITEGIC>MOL_PROPERTY
VdW12
SciTegic.value.DoubleValue
10.785

@<SCITEGIC>MOL_PROPERTY
Bond
SciTegic.value.DoubleValue
0.212

@<SCITEGIC>MOL_PROPERTY
Angle
SciTegic.value.DoubleValue
2.940

@<SCITEGIC>MOL_PROPERTY
Pdih
SciTegic.value.DoubleValue
5.730

@<SCITEGIC>MOL_PROPERTY
Idih
SciTegic.value.DoubleValue
0.001

@<SCITEGIC>MOL_PROPERTY
Tether
SciTegic.value.DoubleValue
0.000

@<TRIPOS>MOLECULE
guest-8_confgen4.mol2 : confsearch ligand conformer 699
          25          24           1
SMALL
USER_CHARGES
 
@<TRIPOS>ATOM
       1    C1      22.504559   16.812326   25.460754 C.2        1 MOL1         0.6168
       2    O1      23.185943   16.300460   24.594502 O.co2      1 MOL1        -0.6703
       3    O2      22.914447   17.070096   26.575335 O.co2      1 MOL1        -0.6703
       4    C2      21.060570   17.167669   25.124908 C.3        1 MOL1        -0.1963
       5    H1      20.461779   17.057567   26.036944 H          1 MOL1         0.0750
       6    H2      20.688206   16.432563   24.401348 H          1 MOL1         0.0750
       7    C3      20.910609   18.599928   24.555615 C.3        1 MOL1        -0.1860
       8    H3      21.295067   19.324113   25.286978 H          1 MOL1         0.0752
       9    H4      21.533537   18.691409   23.655961 H          1 MOL1         0.0752
      10    C4      19.438825   18.931569   24.217246 C.3        1 MOL1        -0.1858
      11    H5      18.821064   18.767396   25.110577 H          1 MOL1         0.0752
      12    H6      19.065817   18.233114   23.456699 H          1 MOL1         0.0752
      13    C5      19.229422   20.390884   23.740921 C.3        1 MOL1        -0.1858
      14    H7      18.156760   20.560783   23.579954 H          1 MOL1         0.0752
      15    H8      19.519434   21.072966   24.551556 H          1 MOL1         0.0752
      16    C6      20.007686   20.787631   22.458456 C.3        1 MOL1        -0.1858
      17    H9      21.085083   20.776245   22.669055 H          1 MOL1         0.0752
      18    H10     19.765422   21.829976   22.210840 H          1 MOL1         0.0752
      19    C7      19.729451   19.903204   21.218091 C.3        1 MOL1        -0.1834
      20    H11     20.350757   20.261534   20.385935 H          1 MOL1         0.0752
      21    H12     20.047593   18.870169   21.411631 H          1 MOL1         0.0752
      22    C8      18.249943   19.919323   20.776686 C.3        1 MOL1        -0.2849
      23    H13     17.905955   20.945493   20.593428 H          1 MOL1         0.0764
      24    H14     18.119346   19.347414   19.849005 H          1 MOL1         0.0764
      25    H15     17.601733   19.469538   21.539222 H          1 MOL1         0.0764
@<TRIPOS>BOND
    1     1     2    1
    2     1     3    2
    3     1     4    1
    4     4     5    1
    5     4     6    1
    6     4     7    1
    7     7     8    1
    8     7     9    1
    9     7    10    1
   10    10    11    1
   11    10    12    1
   12    10    13    1
   13    13    14    1
   14    13    15    1
   15    13    16    1
   16    16    17    1
   17    16    18    1
   18    16    19    1
   19    19    20    1
   20    19    21    1
   21    19    22    1
   22    22    23    1
   23    22    24    1
   24    22    25    1
@<TRIPOS>SUBSTRUCTURE
       1 MOL1            1 RESIDUE      1      MOL     
@<SCITEGIC>MOL_PROPERTY
VConf Rank
SciTegic.value.IntegerValue
699

@<SCITEGIC>MOL_PROPERTY
Conf_Id
SciTegic.value.IntegerValue
29

@<SCITEGIC>MOL_PROPERTY
Delta U+W
SciTegic.value.DoubleValue
0.850

@<SCITEGIC>MOL_PROPERTY
U+W
SciTegic.value.DoubleValue
-50.780

@<SCITEGIC>MOL_PROPERTY
Grad RMS
SciTegic.value.DoubleValue
0.000000

@<SCITEGIC>MOL_PROPERTY
U
SciTegic.value.DoubleValue
8.646

@<SCITEGIC>MOL_PROPERTY
W
SciTegic.value.DoubleValue
-59.426

@<SCITEGIC>MOL_PROPERTY
W(PB)
SciTegic.value.DoubleValue
-61.868

@<SCITEGIC>MOL_PROPERTY
W(SA)
SciTegic.value.DoubleValue
2.442

@<SCITEGIC>MOL_PROPERTY
Valence
SciTegic.value.DoubleValue
8.924

@<SCITEGIC>MOL_PROPERTY
Coulomb
SciTegic.value.DoubleValue
-1.171

@<SCITEGIC>MOL_PROPERTY
VdW
SciTegic.value.DoubleValue
0.894

@<SCITEGIC>MOL_PROPERTY
VdW6
SciTegic.value.DoubleValue
-10.223

@<SCITEGIC>MOL_PROPERTY
VdW12
SciTegic.value.DoubleValue
11.117

@<SCITEGIC>MOL_PROPERTY
Bond
SciTegic.value.DoubleValue
0.231

@<SCITEGIC>MOL_PROPERTY
Angle
SciTegic.value.DoubleValue
3.232

@<SCITEGIC>MOL_PROPERTY
Pdih
SciTegic.value.DoubleValue
5.461

@<SCITEGIC>MOL_PROPERTY
Idih
SciTegic.value.DoubleValue
0.001

@<SCITEGIC>MOL_PROPERTY
Tether
SciTegic.value.DoubleValue
0.000

@<TRIPOS>MOLECULE
guest-8_confgen4.mol2 : confsearch ligand conformer 700
          25          24           1
SMALL
USER_CHARGES
 
@<TRIPOS>ATOM
       1    C1      18.865211   16.894794   26.371586 C.2        1 MOL1         0.6168
       2    O1      17.673956   16.773085   26.164740 O.co2      1 MOL1        -0.6703
       3    O2      19.357216   16.913223   27.482591 O.co2      1 MOL1        -0.6703
       4    C2      19.791956   17.052094   25.171347 C.3        1 MOL1        -0.1963
       5    H1      19.366126   16.484333   24.335352 H          1 MOL1         0.0750
       6    H2      20.754287   16.589507   25.421175 H          1 MOL1         0.0750
       7    C3      19.999151   18.530921   24.761351 C.3        1 MOL1        -0.1860
       8    H3      19.021500   18.977099   24.535718 H          1 MOL1         0.0752
       9    H4      20.417950   19.088492   25.610389 H          1 MOL1         0.0752
      10    C4      20.936236   18.661275   23.538439 C.3        1 MOL1        -0.1858
      11    H5      20.499209   18.138005   22.677856 H          1 MOL1         0.0752
      12    H6      21.882991   18.149146   23.757528 H          1 MOL1         0.0752
      13    C5      21.252603   20.129378   23.157754 C.3        1 MOL1        -0.1858
      14    H7      21.774860   20.608111   23.997120 H          1 MOL1         0.0752
      15    H8      21.966244   20.133350   22.323438 H          1 MOL1         0.0752
      16    C6      20.021974   20.996500   22.781621 C.3        1 MOL1        -0.1858
      17    H9      20.371871   22.002702   22.514000 H          1 MOL1         0.0752
      18    H10     19.387023   21.129818   23.667245 H          1 MOL1         0.0752
      19    C7      19.156355   20.445095   21.621971 C.3        1 MOL1        -0.1834
      20    H11     18.721652   19.476501   21.902497 H          1 MOL1         0.0752
      21    H12     18.307710   21.124745   21.464554 H          1 MOL1         0.0752
      22    C8      19.932763   20.303632   20.294863 C.3        1 MOL1        -0.2849
      23    H13     20.727495   19.551506   20.376423 H          1 MOL1         0.0764
      24    H14     19.259121   19.990182   19.486974 H          1 MOL1         0.0764
      25    H15     20.389963   21.258158   20.003688 H          1 MOL1         0.0764
@<TRIPOS>BOND
    1     1     2    1
    2     1     3    2
    3     1     4    1
    4     4     5    1
    5     4     6    1
    6     4     7    1
    7     7     8    1
    8     7     9    1
    9     7    10    1
   10    10    11    1
   11    10    12    1
   12    10    13    1
   13    13    14    1
   14    13    15    1
   15    13    16    1
   16    16    17    1
   17    16    18    1
   18    16    19    1
   19    19    20    1
   20    19    21    1
   21    19    22    1
   22    22    23    1
   23    22    24    1
   24    22    25    1
@<TRIPOS>SUBSTRUCTURE
       1 MOL1            1 RESIDUE      1      MOL     
@<SCITEGIC>MOL_PROPERTY
VConf Rank
SciTegic.value.IntegerValue
700

@<SCITEGIC>MOL_PROPERTY
Conf_Id
SciTegic.value.IntegerValue
30

@<SCITEGIC>MOL_PROPERTY
Delta U+W
SciTegic.value.DoubleValue
0.843

@<SCITEGIC>MOL_PROPERTY
U+W
SciTegic.value.DoubleValue
-50.787

@<SCITEGIC>MOL_PROPERTY
Grad RMS
SciTegic.value.DoubleValue
0.000000

@<SCITEGIC>MOL_PROPERTY
U
SciTegic.value.DoubleValue
8.647

@<SCITEGIC>MOL_PROPERTY
W
SciTegic.value.DoubleValue
-59.434

@<SCITEGIC>MOL_PROPERTY
W(PB)
SciTegic.value.DoubleValue
-61.861

@<SCITEGIC>MOL_PROPERTY
W(SA)
SciTegic.value.DoubleValue
2.428

@<SCITEGIC>MOL_PROPERTY
Valence
SciTegic.value.DoubleValue
8.924

@<SCITEGIC>MOL_PROPERTY
Coulomb
SciTegic.value.DoubleValue
-1.170

@<SCITEGIC>MOL_PROPERTY
VdW
SciTegic.value.DoubleValue
0.894

@<SCITEGIC>MOL_PROPERTY
VdW6
SciTegic.value.DoubleValue
-10.224

@<SCITEGIC>MOL_PROPERTY
VdW12
SciTegic.value.DoubleValue
11.118

@<SCITEGIC>MOL_PROPERTY
Bond
SciTegic.value.DoubleValue
0.231

@<SCITEGIC>MOL_PROPERTY
Angle
SciTegic.value.DoubleValue
3.232

@<SCITEGIC>MOL_PROPERTY
Pdih
SciTegic.value.DoubleValue
5.460

@<SCITEGIC>MOL_PROPERTY
Idih
SciTegic.value.DoubleValue
0.000

@<SCITEGIC>MOL_PROPERTY
Tether
SciTegic.value.DoubleValue
0.000

@<TRIPOS>MOLECULE
guest-8_confgen4.mol2 : confsearch ligand conformer 701
          25          24           1
SMALL
USER_CHARGES
 
@<TRIPOS>ATOM
       1    C1      18.338932   17.842620   18.964043 C.2        1 MOL1         0.6168
       2    O1      18.912548   18.725660   18.355925 O.co2      1 MOL1        -0.6703
       3    O2      17.619547   17.024971   18.425476 O.co2      1 MOL1        -0.6703
       4    C2      18.511064   17.729954   20.479653 C.3        1 MOL1        -0.1963
       5    H1      18.897875   16.726145   20.690962 H          1 MOL1         0.0750
       6    H2      17.512158   17.789902   20.927425 H          1 MOL1         0.0750
       7    C3      19.438700   18.795601   21.121763 C.3        1 MOL1        -0.1860
       8    H3      20.435820   18.734213   20.664062 H          1 MOL1         0.0752
       9    H4      19.048829   19.798935   20.900795 H          1 MOL1         0.0752
      10    C4      19.556210   18.608859   22.650149 C.3        1 MOL1        -0.1858
      11    H5      19.946088   17.605171   22.868648 H          1 MOL1         0.0752
      12    H6      18.558234   18.670580   23.105529 H          1 MOL1         0.0752
      13    C5      20.479419   19.669922   23.286794 C.3        1 MOL1        -0.1858
      14    H7      21.477489   19.608413   22.831626 H          1 MOL1         0.0752
      15    H8      20.089763   20.673724   23.068498 H          1 MOL1         0.0752
      16    C6      20.597362   19.483767   24.814979 C.3        1 MOL1        -0.1858
      17    H9      20.987055   18.480034   25.033504 H          1 MOL1         0.0752
      18    H10     19.599405   19.545344   25.270373 H          1 MOL1         0.0752
      19    C7      21.520174   20.544281   25.451446 C.3        1 MOL1        -0.1834
      20    H11     22.520066   20.484439   24.999646 H          1 MOL1         0.0752
      21    H12     21.132428   21.549741   25.236522 H          1 MOL1         0.0752
      22    C8      21.635350   20.355002   26.977392 C.3        1 MOL1        -0.2849
      23    H13     22.050713   19.368226   27.220589 H          1 MOL1         0.0764
      24    H14     22.294679   21.116924   27.413105 H          1 MOL1         0.0764
      25    H15     20.652641   20.441565   27.459251 H          1 MOL1         0.0764
@<TRIPOS>BOND
    1     1     2    1
    2     1     3    2
    3     1     4    1
    4     4     5    1
    5     4     6    1
    6     4     7    1
    7     7     8    1
    8     7     9    1
    9     7    10    1
   10    10    11    1
   11    10    12    1
   12    10    13    1
   13    13    14    1
   14    13    15    1
   15    13    16    1
   16    16    17    1
   17    16    18    1
   18    16    19    1
   19    19    20    1
   20    19    21    1
   21    19    22    1
   22    22    23    1
   23    22    24    1
   24    22    25    1
@<TRIPOS>SUBSTRUCTURE
       1 MOL1            1 RESIDUE      1      MOL     
@<SCITEGIC>MOL_PROPERTY
VConf Rank
SciTegic.value.IntegerValue
701

@<SCITEGIC>MOL_PROPERTY
Conf_Id
SciTegic.value.IntegerValue
0

@<SCITEGIC>MOL_PROPERTY
Delta U+W
SciTegic.value.DoubleValue
0.000

@<SCITEGIC>MOL_PROPERTY
U+W
SciTegic.value.DoubleValue
-51.629

@<SCITEGIC>MOL_PROPERTY
Grad RMS
SciTegic.value.DoubleValue
0.000000

@<SCITEGIC>MOL_PROPERTY
U
SciTegic.value.DoubleValue
6.586

@<SCITEGIC>MOL_PROPERTY
W
SciTegic.value.DoubleValue
-58.216

@<SCITEGIC>MOL_PROPERTY
W(PB)
SciTegic.value.DoubleValue
-60.757

@<SCITEGIC>MOL_PROPERTY
W(SA)
SciTegic.value.DoubleValue
2.541

@<SCITEGIC>MOL_PROPERTY
Valence
SciTegic.value.DoubleValue
8.027

@<SCITEGIC>MOL_PROPERTY
Coulomb
SciTegic.value.DoubleValue
-2.892

@<SCITEGIC>MOL_PROPERTY
VdW
SciTegic.value.DoubleValue
1.451

@<SCITEGIC>MOL_PROPERTY
VdW6
SciTegic.value.DoubleValue
-7.931

@<SCITEGIC>MOL_PROPERTY
VdW12
SciTegic.value.DoubleValue
9.383

@<SCITEGIC>MOL_PROPERTY
Bond
SciTegic.value.DoubleValue
0.149

@<SCITEGIC>MOL_PROPERTY
Angle
SciTegic.value.DoubleValue
2.726

@<SCITEGIC>MOL_PROPERTY
Pdih
SciTegic.value.DoubleValue
5.152

@<SCITEGIC>MOL_PROPERTY
Idih
SciTegic.value.DoubleValue
0.000

@<SCITEGIC>MOL_PROPERTY
Tether
SciTegic.value.DoubleValue
0.000

@<TRIPOS>MOLECULE
guest-8_confgen4.mol2 : confsearch ligand conformer 702
          25          24           1
SMALL
USER_CHARGES
 
@<TRIPOS>ATOM
       1    C1      22.161351   23.034145   21.535449 C.2        1 MOL1         0.6168
       2    O1      23.339501   22.907708   21.266013 O.co2      1 MOL1        -0.6703
       3    O2      21.412931   23.788587   20.946122 O.co2      1 MOL1        -0.6703
       4    C2      21.584913   22.181922   22.660401 C.3        1 MOL1        -0.1963
       5    H1      20.784054   22.753525   23.144653 H          1 MOL1         0.0750
       6    H2      22.371727   22.028159   23.408656 H          1 MOL1         0.0750
       7    C3      21.044171   20.818039   22.164975 C.3        1 MOL1        -0.1860
       8    H3      20.267002   20.989402   21.407191 H          1 MOL1         0.0752
       9    H4      21.854612   20.264129   21.671049 H          1 MOL1         0.0752
      10    C4      20.466408   19.974147   23.321719 C.3        1 MOL1        -0.1858
      11    H5      19.657313   20.531072   23.814041 H          1 MOL1         0.0752
      12    H6      21.245337   19.805801   24.078099 H          1 MOL1         0.0752
      13    C5      19.928338   18.615074   22.824859 C.3        1 MOL1        -0.1858
      14    H7      19.149353   18.783165   22.068531 H          1 MOL1         0.0752
      15    H8      20.737270   18.057990   22.332526 H          1 MOL1         0.0752
      16    C6      19.350469   17.770605   23.981068 C.3        1 MOL1        -0.1858
      17    H9      18.541424   18.327381   24.473553 H          1 MOL1         0.0752
      18    H10     20.129238   17.602327   24.737571 H          1 MOL1         0.0752
      19    C7      18.812657   16.412055   23.484620 C.3        1 MOL1        -0.1834
      20    H11     18.031976   16.576420   22.728968 H          1 MOL1         0.0752
      21    H12     19.619775   15.851363   22.993015 H          1 MOL1         0.0752
      22    C8      18.236493   15.571833   24.642058 C.3        1 MOL1        -0.2849
      23    H13     17.858929   14.610010   24.271343 H          1 MOL1         0.0764
      24    H14     19.005262   15.365396   25.398216 H          1 MOL1         0.0764
      25    H15     17.405517   16.095914   25.132175 H          1 MOL1         0.0764
@<TRIPOS>BOND
    1     1     2    1
    2     1     3    2
    3     1     4    1
    4     4     5    1
    5     4     6    1
    6     4     7    1
    7     7     8    1
    8     7     9    1
    9     7    10    1
   10    10    11    1
   11    10    12    1
   12    10    13    1
   13    13    14    1
   14    13    15    1
   15    13    16    1
   16    16    17    1
   17    16    18    1
   18    16    19    1
   19    19    20    1
   20    19    21    1
   21    19    22    1
   22    22    23    1
   23    22    24    1
   24    22    25    1
@<TRIPOS>SUBSTRUCTURE
       1 MOL1            1 RESIDUE      1      MOL     
@<SCITEGIC>MOL_PROPERTY
VConf Rank
SciTegic.value.IntegerValue
702

@<SCITEGIC>MOL_PROPERTY
Conf_Id
SciTegic.value.IntegerValue
27

@<SCITEGIC>MOL_PROPERTY
Delta U+W
SciTegic.value.DoubleValue
-1.297

@<SCITEGIC>MOL_PROPERTY
U+W
SciTegic.value.DoubleValue
-52.926

@<SCITEGIC>MOL_PROPERTY
Grad RMS
SciTegic.value.DoubleValue
0.000000

@<SCITEGIC>MOL_PROPERTY
U
SciTegic.value.DoubleValue
5.617

@<SCITEGIC>MOL_PROPERTY
W
SciTegic.value.DoubleValue
-58.543

@<SCITEGIC>MOL_PROPERTY
W(PB)
SciTegic.value.DoubleValue
-61.065

@<SCITEGIC>MOL_PROPERTY
W(SA)
SciTegic.value.DoubleValue
2.522

@<SCITEGIC>MOL_PROPERTY
Valence
SciTegic.value.DoubleValue
7.531

@<SCITEGIC>MOL_PROPERTY
Coulomb
SciTegic.value.DoubleValue
-2.818

@<SCITEGIC>MOL_PROPERTY
VdW
SciTegic.value.DoubleValue
0.904

@<SCITEGIC>MOL_PROPERTY
VdW6
SciTegic.value.DoubleValue
-7.640

@<SCITEGIC>MOL_PROPERTY
VdW12
SciTegic.value.DoubleValue
8.544

@<SCITEGIC>MOL_PROPERTY
Bond
SciTegic.value.DoubleValue
0.115

@<SCITEGIC>MOL_PROPERTY
Angle
SciTegic.value.DoubleValue
2.271

@<SCITEGIC>MOL_PROPERTY
Pdih
SciTegic.value.DoubleValue
5.144

@<SCITEGIC>MOL_PROPERTY
Idih
SciTegic.value.DoubleValue
0.001

@<SCITEGIC>MOL_PROPERTY
Tether
SciTegic.value.DoubleValue
0.000

@<TRIPOS>MOLECULE
guest-8_confgen4.mol2 : confsearch ligand conformer 703
          25          24           1
SMALL
USER_CHARGES
 
@<TRIPOS>ATOM
       1    C1      16.452169   17.890437   22.602437 C.2        1 MOL1         0.6168
       2    O1      16.330917   17.279338   21.558918 O.co2      1 MOL1        -0.6703
       3    O2      16.291454   17.389543   23.697991 O.co2      1 MOL1        -0.6703
       4    C2      16.809443   19.372357   22.530094 C.3        1 MOL1        -0.1963
       5    H1      16.546896   19.842801   23.485393 H          1 MOL1         0.0750
       6    H2      16.168634   19.827149   21.765559 H          1 MOL1         0.0750
       7    C3      18.297293   19.646118   22.189064 C.3        1 MOL1        -0.1860
       8    H3      18.552158   19.145779   21.244407 H          1 MOL1         0.0752
       9    H4      18.432405   20.723427   22.022637 H          1 MOL1         0.0752
      10    C4      19.258507   19.178490   23.304932 C.3        1 MOL1        -0.1858
      11    H5      19.141724   18.097721   23.465318 H          1 MOL1         0.0752
      12    H6      18.991181   19.671071   24.249879 H          1 MOL1         0.0752
      13    C5      20.730653   19.489467   22.958940 C.3        1 MOL1        -0.1858
      14    H7      20.997041   18.996473   22.013910 H          1 MOL1         0.0752
      15    H8      20.850453   20.570100   22.801088 H          1 MOL1         0.0752
      16    C6      21.691752   19.021716   24.073102 C.3        1 MOL1        -0.1858
      17    H9      21.572009   17.941060   24.231127 H          1 MOL1         0.0752
      18    H10     21.425313   19.514326   25.018315 H          1 MOL1         0.0752
      19    C7      23.163395   19.331863   23.727492 C.3        1 MOL1        -0.1834
      20    H11     23.433958   18.839088   22.783325 H          1 MOL1         0.0752
      21    H12     23.287303   20.412377   23.570605 H          1 MOL1         0.0752
      22    C8      24.119790   18.863069   24.842457 C.3        1 MOL1        -0.2849
      23    H13     24.039449   17.779347   24.998945 H          1 MOL1         0.0764
      24    H14     25.161076   19.091315   24.580336 H          1 MOL1         0.0764
      25    H15     23.891671   19.364440   25.792185 H          1 MOL1         0.0764
@<TRIPOS>BOND
    1     1     2    1
    2     1     3    2
    3     1     4    1
    4     4     5    1
    5     4     6    1
    6     4     7    1
    7     7     8    1
    8     7     9    1
    9     7    10    1
   10    10    11    1
   11    10    12    1
   12    10    13    1
   13    13    14    1
   14    13    15    1
   15    13    16    1
   16    16    17    1
   17    16    18    1
   18    16    19    1
   19    19    20    1
   20    19    21    1
   21    19    22    1
   22    22    23    1
   23    22    24    1
   24    22    25    1
@<TRIPOS>SUBSTRUCTURE
       1 MOL1            1 RESIDUE      1      MOL     
@<SCITEGIC>MOL_PROPERTY
VConf Rank
SciTegic.value.IntegerValue
703

@<SCITEGIC>MOL_PROPERTY
Conf_Id
SciTegic.value.IntegerValue
37

@<SCITEGIC>MOL_PROPERTY
Delta U+W
SciTegic.value.DoubleValue
-0.230

@<SCITEGIC>MOL_PROPERTY
U+W
SciTegic.value.DoubleValue
-51.860

@<SCITEGIC>MOL_PROPERTY
Grad RMS
SciTegic.value.DoubleValue
0.000000

@<SCITEGIC>MOL_PROPERTY
U
SciTegic.value.DoubleValue
7.816

@<SCITEGIC>MOL_PROPERTY
W
SciTegic.value.DoubleValue
-59.675

@<SCITEGIC>MOL_PROPERTY
W(PB)
SciTegic.value.DoubleValue
-62.180

@<SCITEGIC>MOL_PROPERTY
W(SA)
SciTegic.value.DoubleValue
2.505

@<SCITEGIC>MOL_PROPERTY
Valence
SciTegic.value.DoubleValue
7.785

@<SCITEGIC>MOL_PROPERTY
Coulomb
SciTegic.value.DoubleValue
-0.713

@<SCITEGIC>MOL_PROPERTY
VdW
SciTegic.value.DoubleValue
0.744

@<SCITEGIC>MOL_PROPERTY
VdW6
SciTegic.value.DoubleValue
-8.514

@<SCITEGIC>MOL_PROPERTY
VdW12
SciTegic.value.DoubleValue
9.259

@<SCITEGIC>MOL_PROPERTY
Bond
SciTegic.value.DoubleValue
0.136

@<SCITEGIC>MOL_PROPERTY
Angle
SciTegic.value.DoubleValue
2.433

@<SCITEGIC>MOL_PROPERTY
Pdih
SciTegic.value.DoubleValue
5.216

@<SCITEGIC>MOL_PROPERTY
Idih
SciTegic.value.DoubleValue
0.000

@<SCITEGIC>MOL_PROPERTY
Tether
SciTegic.value.DoubleValue
0.000

@<TRIPOS>MOLECULE
guest-8_confgen4.mol2 : confsearch ligand conformer 704
          25          24           1
SMALL
USER_CHARGES
 
@<TRIPOS>ATOM
       1    C1      22.363632   17.397918   25.948413 C.2        1 MOL1         0.6168
       2    O1      21.805707   16.489084   26.531349 O.co2      1 MOL1        -0.6703
       3    O2      22.753869   18.409795   26.496850 O.co2      1 MOL1        -0.6703
       4    C2      22.600669   17.251078   24.448007 C.3        1 MOL1        -0.1963
       5    H1      22.993235   16.242092   24.275318 H          1 MOL1         0.0750
       6    H2      23.387371   17.953659   24.147463 H          1 MOL1         0.0750
       7    C3      21.330534   17.467743   23.585012 C.3        1 MOL1        -0.1860
       8    H3      21.559789   17.209436   22.542291 H          1 MOL1         0.0752
       9    H4      20.543159   16.776393   23.916298 H          1 MOL1         0.0752
      10    C4      20.810676   18.921580   23.647245 C.3        1 MOL1        -0.1858
      11    H5      21.605522   19.609557   23.327977 H          1 MOL1         0.0752
      12    H6      20.562557   19.181940   24.685547 H          1 MOL1         0.0752
      13    C5      19.565571   19.122204   22.756687 C.3        1 MOL1        -0.1858
      14    H7      19.812130   18.865230   21.717355 H          1 MOL1         0.0752
      15    H8      18.771284   18.433921   23.076783 H          1 MOL1         0.0752
      16    C6      19.045143   20.574491   22.818916 C.3        1 MOL1        -0.1858
      17    H9      19.839382   21.262970   22.499132 H          1 MOL1         0.0752
      18    H10     18.798651   20.831677   23.858254 H          1 MOL1         0.0752
      19    C7      17.800242   20.775363   21.929400 C.3        1 MOL1        -0.1834
      20    H11     18.043652   20.520725   20.888541 H          1 MOL1         0.0752
      21    H12     17.002911   20.089508   22.247754 H          1 MOL1         0.0752
      22    C8      17.283742   22.226778   21.994394 C.3        1 MOL1        -0.2849
      23    H13     18.051362   22.932633   21.650994 H          1 MOL1         0.0764
      24    H14     16.399011   22.351562   21.356614 H          1 MOL1         0.0764
      25    H15     17.002856   22.498180   23.020475 H          1 MOL1         0.0764
@<TRIPOS>BOND
    1     1     2    1
    2     1     3    2
    3     1     4    1
    4     4     5    1
    5     4     6    1
    6     4     7    1
    7     7     8    1
    8     7     9    1
    9     7    10    1
   10    10    11    1
   11    10    12    1
   12    10    13    1
   13    13    14    1
   14    13    15    1
   15    13    16    1
   16    16    17    1
   17    16    18    1
   18    16    19    1
   19    19    20    1
   20    19    21    1
   21    19    22    1
   22    22    23    1
   23    22    24    1
   24    22    25    1
@<TRIPOS>SUBSTRUCTURE
       1 MOL1            1 RESIDUE      1      MOL     
@<SCITEGIC>MOL_PROPERTY
VConf Rank
SciTegic.value.IntegerValue
704

@<SCITEGIC>MOL_PROPERTY
Conf_Id
SciTegic.value.IntegerValue
54

@<SCITEGIC>MOL_PROPERTY
Delta U+W
SciTegic.value.DoubleValue
-0.224

@<SCITEGIC>MOL_PROPERTY
U+W
SciTegic.value.DoubleValue
-51.854

@<SCITEGIC>MOL_PROPERTY
Grad RMS
SciTegic.value.DoubleValue
0.000000

@<SCITEGIC>MOL_PROPERTY
U
SciTegic.value.DoubleValue
7.816

@<SCITEGIC>MOL_PROPERTY
W
SciTegic.value.DoubleValue
-59.670

@<SCITEGIC>MOL_PROPERTY
W(PB)
SciTegic.value.DoubleValue
-62.157

@<SCITEGIC>MOL_PROPERTY
W(SA)
SciTegic.value.DoubleValue
2.487

@<SCITEGIC>MOL_PROPERTY
Valence
SciTegic.value.DoubleValue
7.785

@<SCITEGIC>MOL_PROPERTY
Coulomb
SciTegic.value.DoubleValue
-0.713

@<SCITEGIC>MOL_PROPERTY
VdW
SciTegic.value.DoubleValue
0.744

@<SCITEGIC>MOL_PROPERTY
VdW6
SciTegic.value.DoubleValue
-8.515

@<SCITEGIC>MOL_PROPERTY
VdW12
SciTegic.value.DoubleValue
9.259

@<SCITEGIC>MOL_PROPERTY
Bond
SciTegic.value.DoubleValue
0.136

@<SCITEGIC>MOL_PROPERTY
Angle
SciTegic.value.DoubleValue
2.433

@<SCITEGIC>MOL_PROPERTY
Pdih
SciTegic.value.DoubleValue
5.215

@<SCITEGIC>MOL_PROPERTY
Idih
SciTegic.value.DoubleValue
0.000

@<SCITEGIC>MOL_PROPERTY
Tether
SciTegic.value.DoubleValue
0.000

@<TRIPOS>MOLECULE
guest-8_confgen4.mol2 : confsearch ligand conformer 705
          25          24           1
SMALL
USER_CHARGES
 
@<TRIPOS>ATOM
       1    C1      18.922649   16.774493   26.392365 C.2        1 MOL1         0.6168
       2    O1      17.714630   16.708973   26.276411 O.co2      1 MOL1        -0.6703
       3    O2      19.638631   15.802375   26.531881 O.co2      1 MOL1        -0.6703
       4    C2      19.576649   18.153384   26.381037 C.3        1 MOL1        -0.1963
       5    H1      20.288798   18.184102   27.214025 H          1 MOL1         0.0750
       6    H2      18.808666   18.907393   26.591992 H          1 MOL1         0.0750
       7    C3      20.312169   18.493643   25.058577 C.3        1 MOL1        -0.1860
       8    H3      20.874552   19.424354   25.204543 H          1 MOL1         0.0752
       9    H4      21.048861   17.708275   24.839763 H          1 MOL1         0.0752
      10    C4      19.341737   18.650860   23.862961 C.3        1 MOL1        -0.1858
      11    H5      18.634303   19.466993   24.063563 H          1 MOL1         0.0752
      12    H6      18.739404   17.737105   23.766923 H          1 MOL1         0.0752
      13    C5      20.056352   18.903631   22.513743 C.3        1 MOL1        -0.1858
      14    H7      20.777206   18.097121   22.322727 H          1 MOL1         0.0752
      15    H8      19.304470   18.843814   21.716707 H          1 MOL1         0.0752
      16    C6      20.773174   20.274631   22.440575 C.3        1 MOL1        -0.1858
      17    H9      21.530733   20.334064   23.232059 H          1 MOL1         0.0752
      18    H10     20.052866   21.080432   22.636682 H          1 MOL1         0.0752
      19    C7      21.476855   20.528336   21.086709 C.3        1 MOL1        -0.1834
      20    H11     22.070431   21.449486   21.166681 H          1 MOL1         0.0752
      21    H12     22.189377   19.717592   20.881021 H          1 MOL1         0.0752
      22    C8      20.496660   20.673054   19.902136 C.3        1 MOL1        -0.2849
      23    H13     19.965080   19.734276   19.703334 H          1 MOL1         0.0764
      24    H14     19.752702   21.455429   20.100949 H          1 MOL1         0.0764
      25    H15     21.038412   20.946921   18.987583 H          1 MOL1         0.0764
@<TRIPOS>BOND
    1     1     2    1
    2     1     3    2
    3     1     4    1
    4     4     5    1
    5     4     6    1
    6     4     7    1
    7     7     8    1
    8     7     9    1
    9     7    10    1
   10    10    11    1
   11    10    12    1
   12    10    13    1
   13    13    14    1
   14    13    15    1
   15    13    16    1
   16    16    17    1
   17    16    18    1
   18    16    19    1
   19    19    20    1
   20    19    21    1
   21    19    22    1
   22    22    23    1
   23    22    24    1
   24    22    25    1
@<TRIPOS>SUBSTRUCTURE
       1 MOL1            1 RESIDUE      1      MOL     
@<SCITEGIC>MOL_PROPERTY
VConf Rank
SciTegic.value.IntegerValue
705

@<SCITEGIC>MOL_PROPERTY
Conf_Id
SciTegic.value.IntegerValue
101

@<SCITEGIC>MOL_PROPERTY
Delta U+W
SciTegic.value.DoubleValue
1.534

@<SCITEGIC>MOL_PROPERTY
U+W
SciTegic.value.DoubleValue
-50.095

@<SCITEGIC>MOL_PROPERTY
Grad RMS
SciTegic.value.DoubleValue
0.000000

@<SCITEGIC>MOL_PROPERTY
U
SciTegic.value.DoubleValue
9.416

@<SCITEGIC>MOL_PROPERTY
W
SciTegic.value.DoubleValue
-59.512

@<SCITEGIC>MOL_PROPERTY
W(PB)
SciTegic.value.DoubleValue
-61.988

@<SCITEGIC>MOL_PROPERTY
W(SA)
SciTegic.value.DoubleValue
2.476

@<SCITEGIC>MOL_PROPERTY
Valence
SciTegic.value.DoubleValue
8.939

@<SCITEGIC>MOL_PROPERTY
Coulomb
SciTegic.value.DoubleValue
-0.615

@<SCITEGIC>MOL_PROPERTY
VdW
SciTegic.value.DoubleValue
1.092

@<SCITEGIC>MOL_PROPERTY
VdW6
SciTegic.value.DoubleValue
-9.710

@<SCITEGIC>MOL_PROPERTY
VdW12
SciTegic.value.DoubleValue
10.802

@<SCITEGIC>MOL_PROPERTY
Bond
SciTegic.value.DoubleValue
0.216

@<SCITEGIC>MOL_PROPERTY
Angle
SciTegic.value.DoubleValue
2.979

@<SCITEGIC>MOL_PROPERTY
Pdih
SciTegic.value.DoubleValue
5.743

@<SCITEGIC>MOL_PROPERTY
Idih
SciTegic.value.DoubleValue
0.000

@<SCITEGIC>MOL_PROPERTY
Tether
SciTegic.value.DoubleValue
0.000

@<TRIPOS>MOLECULE
guest-8_confgen4.mol2 : confsearch ligand conformer 706
          25          24           1
SMALL
USER_CHARGES
 
@<TRIPOS>ATOM
       1    C1      22.799113   16.857104   21.087926 C.2        1 MOL1         0.6168
       2    O1      23.897253   17.363288   21.208772 O.co2      1 MOL1        -0.6703
       3    O2      22.623733   15.699893   20.761001 O.co2      1 MOL1        -0.6703
       4    C2      21.574154   17.714745   21.384733 C.3        1 MOL1        -0.1963
       5    H1      20.755052   17.371533   20.741603 H          1 MOL1         0.0750
       6    H2      21.809822   18.743594   21.090980 H          1 MOL1         0.0750
       7    C3      21.146634   17.653566   22.874377 C.3        1 MOL1        -0.1860
       8    H3      21.014664   16.600361   23.158580 H          1 MOL1         0.0752
       9    H4      21.955985   18.045548   23.505726 H          1 MOL1         0.0752
      10    C4      19.833251   18.414523   23.175504 C.3        1 MOL1        -0.1858
      11    H5      19.543865   18.193499   24.210827 H          1 MOL1         0.0752
      12    H6      19.027987   18.027677   22.536390 H          1 MOL1         0.0752
      13    C5      19.954631   19.947600   22.994278 C.3        1 MOL1        -0.1858
      14    H7      20.758850   20.334352   23.633551 H          1 MOL1         0.0752
      15    H8      20.252192   20.170932   21.962145 H          1 MOL1         0.0752
      16    C6      18.636594   20.710749   23.281919 C.3        1 MOL1        -0.1858
      17    H9      17.867843   20.371368   22.574445 H          1 MOL1         0.0752
      18    H10     18.795016   21.776472   23.067892 H          1 MOL1         0.0752
      19    C7      18.085183   20.569887   24.722601 C.3        1 MOL1        -0.1834
      20    H11     17.154273   21.148496   24.797851 H          1 MOL1         0.0752
      21    H12     17.808942   19.526475   24.923411 H          1 MOL1         0.0752
      22    C8      19.066928   21.066841   25.805723 C.3        1 MOL1        -0.2849
      23    H13     19.375807   22.102050   25.611006 H          1 MOL1         0.0764
      24    H14     18.594927   21.034671   26.796150 H          1 MOL1         0.0764
      25    H15     19.966605   20.439900   25.845769 H          1 MOL1         0.0764
@<TRIPOS>BOND
    1     1     2    1
    2     1     3    2
    3     1     4    1
    4     4     5    1
    5     4     6    1
    6     4     7    1
    7     7     8    1
    8     7     9    1
    9     7    10    1
   10    10    11    1
   11    10    12    1
   12    10    13    1
   13    13    14    1
   14    13    15    1
   15    13    16    1
   16    16    17    1
   17    16    18    1
   18    16    19    1
   19    19    20    1
   20    19    21    1
   21    19    22    1
   22    22    23    1
   23    22    24    1
   24    22    25    1
@<TRIPOS>SUBSTRUCTURE
       1 MOL1            1 RESIDUE      1      MOL     
@<SCITEGIC>MOL_PROPERTY
VConf Rank
SciTegic.value.IntegerValue
706

@<SCITEGIC>MOL_PROPERTY
Conf_Id
SciTegic.value.IntegerValue
75

@<SCITEGIC>MOL_PROPERTY
Delta U+W
SciTegic.value.DoubleValue
1.014

@<SCITEGIC>MOL_PROPERTY
U+W
SciTegic.value.DoubleValue
-50.615

@<SCITEGIC>MOL_PROPERTY
Grad RMS
SciTegic.value.DoubleValue
0.000000

@<SCITEGIC>MOL_PROPERTY
U
SciTegic.value.DoubleValue
8.474

@<SCITEGIC>MOL_PROPERTY
W
SciTegic.value.DoubleValue
-59.089

@<SCITEGIC>MOL_PROPERTY
W(PB)
SciTegic.value.DoubleValue
-61.530

@<SCITEGIC>MOL_PROPERTY
W(SA)
SciTegic.value.DoubleValue
2.441

@<SCITEGIC>MOL_PROPERTY
Valence
SciTegic.value.DoubleValue
9.080

@<SCITEGIC>MOL_PROPERTY
Coulomb
SciTegic.value.DoubleValue
-1.772

@<SCITEGIC>MOL_PROPERTY
VdW
SciTegic.value.DoubleValue
1.165

@<SCITEGIC>MOL_PROPERTY
VdW6
SciTegic.value.DoubleValue
-9.830

@<SCITEGIC>MOL_PROPERTY
VdW12
SciTegic.value.DoubleValue
10.996

@<SCITEGIC>MOL_PROPERTY
Bond
SciTegic.value.DoubleValue
0.240

@<SCITEGIC>MOL_PROPERTY
Angle
SciTegic.value.DoubleValue
3.225

@<SCITEGIC>MOL_PROPERTY
Pdih
SciTegic.value.DoubleValue
5.615

@<SCITEGIC>MOL_PROPERTY
Idih
SciTegic.value.DoubleValue
0.001

@<SCITEGIC>MOL_PROPERTY
Tether
SciTegic.value.DoubleValue
0.000

@<TRIPOS>MOLECULE
guest-8_confgen4.mol2 : confsearch ligand conformer 707
          25          24           1
SMALL
USER_CHARGES
 
@<TRIPOS>ATOM
       1    C1      15.901539   19.534543   23.793659 C.2        1 MOL1         0.6168
       2    O1      15.516777   20.476443   23.129253 O.co2      1 MOL1        -0.6703
       3    O2      15.195784   18.594218   24.100853 O.co2      1 MOL1        -0.6703
       4    C2      17.356345   19.521510   24.249127 C.3        1 MOL1        -0.1963
       5    H1      17.405614   19.009301   25.217515 H          1 MOL1         0.0750
       6    H2      17.670777   20.558991   24.414571 H          1 MOL1         0.0750
       7    C3      18.299094   18.833105   23.231579 C.3        1 MOL1        -0.1860
       8    H3      17.963413   17.799791   23.067032 H          1 MOL1         0.0752
       9    H4      18.228007   19.349668   22.264291 H          1 MOL1         0.0752
      10    C4      19.765666   18.834216   23.714606 C.3        1 MOL1        -0.1858
      11    H5      19.831794   18.317388   24.681730 H          1 MOL1         0.0752
      12    H6      20.089570   19.867377   23.887458 H          1 MOL1         0.0752
      13    C5      20.702231   18.140286   22.697726 C.3        1 MOL1        -0.1858
      14    H7      20.365150   17.101798   22.575926 H          1 MOL1         0.0752
      15    H8      20.609030   18.610270   21.709168 H          1 MOL1         0.0752
      16    C6      22.187391   18.125689   23.141023 C.3        1 MOL1        -0.1858
      17    H9      22.631709   17.175567   22.814346 H          1 MOL1         0.0752
      18    H10     22.258019   18.126522   24.237311 H          1 MOL1         0.0752
      19    C7      23.049452   19.269511   22.551595 C.3        1 MOL1        -0.1834
      20    H11     24.091964   19.115925   22.862643 H          1 MOL1         0.0752
      21    H12     23.043936   19.206816   21.454655 H          1 MOL1         0.0752
      22    C8      22.607560   20.682599   22.985514 C.3        1 MOL1        -0.2849
      23    H13     22.539354   20.756032   24.078637 H          1 MOL1         0.0764
      24    H14     23.329507   21.433602   22.639769 H          1 MOL1         0.0764
      25    H15     21.631494   20.940880   22.556314 H          1 MOL1         0.0764
@<TRIPOS>BOND
    1     1     2    1
    2     1     3    2
    3     1     4    1
    4     4     5    1
    5     4     6    1
    6     4     7    1
    7     7     8    1
    8     7     9    1
    9     7    10    1
   10    10    11    1
   11    10    12    1
   12    10    13    1
   13    13    14    1
   14    13    15    1
   15    13    16    1
   16    16    17    1
   17    16    18    1
   18    16    19    1
   19    19    20    1
   20    19    21    1
   21    19    22    1
   22    22    23    1
   23    22    24    1
   24    22    25    1
@<TRIPOS>SUBSTRUCTURE
       1 MOL1            1 RESIDUE      1      MOL     
@<SCITEGIC>MOL_PROPERTY
VConf Rank
SciTegic.value.IntegerValue
707

@<SCITEGIC>MOL_PROPERTY
Conf_Id
SciTegic.value.IntegerValue
125

@<SCITEGIC>MOL_PROPERTY
Delta U+W
SciTegic.value.DoubleValue
2.314

@<SCITEGIC>MOL_PROPERTY
U+W
SciTegic.value.DoubleValue
-49.315

@<SCITEGIC>MOL_PROPERTY
Grad RMS
SciTegic.value.DoubleValue
0.000000

@<SCITEGIC>MOL_PROPERTY
U
SciTegic.value.DoubleValue
9.740

@<SCITEGIC>MOL_PROPERTY
W
SciTegic.value.DoubleValue
-59.054

@<SCITEGIC>MOL_PROPERTY
W(PB)
SciTegic.value.DoubleValue
-61.488

@<SCITEGIC>MOL_PROPERTY
W(SA)
SciTegic.value.DoubleValue
2.433

@<SCITEGIC>MOL_PROPERTY
Valence
SciTegic.value.DoubleValue
10.506

@<SCITEGIC>MOL_PROPERTY
Coulomb
SciTegic.value.DoubleValue
-1.761

@<SCITEGIC>MOL_PROPERTY
VdW
SciTegic.value.DoubleValue
0.994

@<SCITEGIC>MOL_PROPERTY
VdW6
SciTegic.value.DoubleValue
-9.209

@<SCITEGIC>MOL_PROPERTY
VdW12
SciTegic.value.DoubleValue
10.203

@<SCITEGIC>MOL_PROPERTY
Bond
SciTegic.value.DoubleValue
0.193

@<SCITEGIC>MOL_PROPERTY
Angle
SciTegic.value.DoubleValue
2.979

@<SCITEGIC>MOL_PROPERTY
Pdih
SciTegic.value.DoubleValue
7.334

@<SCITEGIC>MOL_PROPERTY
Idih
SciTegic.value.DoubleValue
0.001

@<SCITEGIC>MOL_PROPERTY
Tether
SciTegic.value.DoubleValue
0.000

@<TRIPOS>MOLECULE
guest-8_confgen4.mol2 : confsearch ligand conformer 708
          25          24           1
SMALL
USER_CHARGES
 
@<TRIPOS>ATOM
       1    C1      16.139222   18.372364   22.666374 C.2        1 MOL1         0.6168
       2    O1      15.544642   19.068798   23.465214 O.co2      1 MOL1        -0.6703
       3    O2      15.599019   17.536459   21.969104 O.co2      1 MOL1        -0.6703
       4    C2      17.649991   18.539584   22.549616 C.3        1 MOL1        -0.1963
       5    H1      17.883417   19.594018   22.735087 H          1 MOL1         0.0750
       6    H2      17.937568   18.319222   21.514679 H          1 MOL1         0.0750
       7    C3      18.431785   17.625517   23.528658 C.3        1 MOL1        -0.1860
       8    H3      18.170338   17.887562   24.563214 H          1 MOL1         0.0752
       9    H4      18.103934   16.587383   23.379538 H          1 MOL1         0.0752
      10    C4      19.966655   17.691682   23.344408 C.3        1 MOL1        -0.1858
      11    H5      20.225471   17.419856   22.311889 H          1 MOL1         0.0752
      12    H6      20.427659   16.932210   23.990618 H          1 MOL1         0.0752
      13    C5      20.568025   19.075015   23.684906 C.3        1 MOL1        -0.1858
      14    H7      20.164428   19.829839   22.999356 H          1 MOL1         0.0752
      15    H8      20.266388   19.366476   24.700105 H          1 MOL1         0.0752
      16    C6      22.111312   19.064407   23.588169 C.3        1 MOL1        -0.1858
      17    H9      22.415863   18.819042   22.561557 H          1 MOL1         0.0752
      18    H10     22.504620   18.263589   24.229140 H          1 MOL1         0.0752
      19    C7      22.763803   20.399670   24.016123 C.3        1 MOL1        -0.1834
      20    H11     22.465581   20.645487   25.044688 H          1 MOL1         0.0752
      21    H12     23.854669   20.269375   24.032304 H          1 MOL1         0.0752
      22    C8      22.418134   21.577678   23.079430 C.3        1 MOL1        -0.2849
      23    H13     21.349363   21.822097   23.120356 H          1 MOL1         0.0764
      24    H14     22.975544   22.476892   23.372013 H          1 MOL1         0.0764
      25    H15     22.678521   21.342188   22.039309 H          1 MOL1         0.0764
@<TRIPOS>BOND
    1     1     2    1
    2     1     3    2
    3     1     4    1
    4     4     5    1
    5     4     6    1
    6     4     7    1
    7     7     8    1
    8     7     9    1
    9     7    10    1
   10    10    11    1
   11    10    12    1
   12    10    13    1
   13    13    14    1
   14    13    15    1
   15    13    16    1
   16    16    17    1
   17    16    18    1
   18    16    19    1
   19    19    20    1
   20    19    21    1
   21    19    22    1
   22    22    23    1
   23    22    24    1
   24    22    25    1
@<TRIPOS>SUBSTRUCTURE
       1 MOL1            1 RESIDUE      1      MOL     
@<SCITEGIC>MOL_PROPERTY
VConf Rank
SciTegic.value.IntegerValue
708

@<SCITEGIC>MOL_PROPERTY
Conf_Id
SciTegic.value.IntegerValue
4

@<SCITEGIC>MOL_PROPERTY
Delta U+W
SciTegic.value.DoubleValue
0.189

@<SCITEGIC>MOL_PROPERTY
U+W
SciTegic.value.DoubleValue
-51.441

@<SCITEGIC>MOL_PROPERTY
Grad RMS
SciTegic.value.DoubleValue
0.000000

@<SCITEGIC>MOL_PROPERTY
U
SciTegic.value.DoubleValue
7.701

@<SCITEGIC>MOL_PROPERTY
W
SciTegic.value.DoubleValue
-59.141

@<SCITEGIC>MOL_PROPERTY
W(PB)
SciTegic.value.DoubleValue
-61.609

@<SCITEGIC>MOL_PROPERTY
W(SA)
SciTegic.value.DoubleValue
2.467

@<SCITEGIC>MOL_PROPERTY
Valence
SciTegic.value.DoubleValue
8.550

@<SCITEGIC>MOL_PROPERTY
Coulomb
SciTegic.value.DoubleValue
-1.988

@<SCITEGIC>MOL_PROPERTY
VdW
SciTegic.value.DoubleValue
1.139

@<SCITEGIC>MOL_PROPERTY
VdW6
SciTegic.value.DoubleValue
-8.988

@<SCITEGIC>MOL_PROPERTY
VdW12
SciTegic.value.DoubleValue
10.127

@<SCITEGIC>MOL_PROPERTY
Bond
SciTegic.value.DoubleValue
0.191

@<SCITEGIC>MOL_PROPERTY
Angle
SciTegic.value.DoubleValue
2.738

@<SCITEGIC>MOL_PROPERTY
Pdih
SciTegic.value.DoubleValue
5.621

@<SCITEGIC>MOL_PROPERTY
Idih
SciTegic.value.DoubleValue
0.001

@<SCITEGIC>MOL_PROPERTY
Tether
SciTegic.value.DoubleValue
0.000

@<TRIPOS>MOLECULE
guest-8_confgen4.mol2 : confsearch ligand conformer 709
          25          24           1
SMALL
USER_CHARGES
 
@<TRIPOS>ATOM
       1    C1      16.627946   18.035091   25.225608 C.2        1 MOL1         0.6168
       2    O1      16.124757   19.058799   25.644555 O.co2      1 MOL1        -0.6703
       3    O2      16.086698   16.948357   25.278551 O.co2      1 MOL1        -0.6703
       4    C2      18.004496   18.122573   24.576395 C.3        1 MOL1        -0.1963
       5    H1      18.530216   17.179030   24.765343 H          1 MOL1         0.0750
       6    H2      18.563466   18.914812   25.086917 H          1 MOL1         0.0750
       7    C3      17.931958   18.399020   23.052074 C.3        1 MOL1        -0.1860
       8    H3      17.287279   17.640618   22.586606 H          1 MOL1         0.0752
       9    H4      17.445384   19.368669   22.877840 H          1 MOL1         0.0752
      10    C4      19.311862   18.373221   22.352534 C.3        1 MOL1        -0.1858
      11    H5      19.154125   18.459487   21.268750 H          1 MOL1         0.0752
      12    H6      19.791396   17.399115   22.520273 H          1 MOL1         0.0752
      13    C5      20.257574   19.505648   22.815603 C.3        1 MOL1        -0.1858
      14    H7      19.756403   20.475386   22.693134 H          1 MOL1         0.0752
      15    H8      20.475885   19.388101   23.883848 H          1 MOL1         0.0752
      16    C6      21.581402   19.504385   22.016427 C.3        1 MOL1        -0.1858
      17    H9      21.351810   19.558419   20.943482 H          1 MOL1         0.0752
      18    H10     22.107878   18.553197   22.174385 H          1 MOL1         0.0752
      19    C7      22.518792   20.680487   22.376846 C.3        1 MOL1        -0.1834
      20    H11     23.373679   20.673782   21.686665 H          1 MOL1         0.0752
      21    H12     21.997048   21.633845   22.214982 H          1 MOL1         0.0752
      22    C8      23.049603   20.618231   23.825622 C.3        1 MOL1        -0.2849
      23    H13     23.548089   19.659807   24.020674 H          1 MOL1         0.0764
      24    H14     23.778127   21.420094   24.002150 H          1 MOL1         0.0764
      25    H15     22.239191   20.740013   24.555067 H          1 MOL1         0.0764
@<TRIPOS>BOND
    1     1     2    1
    2     1     3    2
    3     1     4    1
    4     4     5    1
    5     4     6    1
    6     4     7    1
    7     7     8    1
    8     7     9    1
    9     7    10    1
   10    10    11    1
   11    10    12    1
   12    10    13    1
   13    13    14    1
   14    13    15    1
   15    13    16    1
   16    16    17    1
   17    16    18    1
   18    16    19    1
   19    19    20    1
   20    19    21    1
   21    19    22    1
   22    22    23    1
   23    22    24    1
   24    22    25    1
@<TRIPOS>SUBSTRUCTURE
       1 MOL1            1 RESIDUE      1      MOL     
@<SCITEGIC>MOL_PROPERTY
VConf Rank
SciTegic.value.IntegerValue
709

@<SCITEGIC>MOL_PROPERTY
Conf_Id
SciTegic.value.IntegerValue
17

@<SCITEGIC>MOL_PROPERTY
Delta U+W
SciTegic.value.DoubleValue
0.219

@<SCITEGIC>MOL_PROPERTY
U+W
SciTegic.value.DoubleValue
-51.411

@<SCITEGIC>MOL_PROPERTY
Grad RMS
SciTegic.value.DoubleValue
0.000000

@<SCITEGIC>MOL_PROPERTY
U
SciTegic.value.DoubleValue
7.701

@<SCITEGIC>MOL_PROPERTY
W
SciTegic.value.DoubleValue
-59.111

@<SCITEGIC>MOL_PROPERTY
W(PB)
SciTegic.value.DoubleValue
-61.599

@<SCITEGIC>MOL_PROPERTY
W(SA)
SciTegic.value.DoubleValue
2.488

@<SCITEGIC>MOL_PROPERTY
Valence
SciTegic.value.DoubleValue
8.550

@<SCITEGIC>MOL_PROPERTY
Coulomb
SciTegic.value.DoubleValue
-1.988

@<SCITEGIC>MOL_PROPERTY
VdW
SciTegic.value.DoubleValue
1.139

@<SCITEGIC>MOL_PROPERTY
VdW6
SciTegic.value.DoubleValue
-8.988

@<SCITEGIC>MOL_PROPERTY
VdW12
SciTegic.value.DoubleValue
10.127

@<SCITEGIC>MOL_PROPERTY
Bond
SciTegic.value.DoubleValue
0.191

@<SCITEGIC>MOL_PROPERTY
Angle
SciTegic.value.DoubleValue
2.738

@<SCITEGIC>MOL_PROPERTY
Pdih
SciTegic.value.DoubleValue
5.621

@<SCITEGIC>MOL_PROPERTY
Idih
SciTegic.value.DoubleValue
0.001

@<SCITEGIC>MOL_PROPERTY
Tether
SciTegic.value.DoubleValue
0.000

@<TRIPOS>MOLECULE
guest-8_confgen4.mol2 : confsearch ligand conformer 710
          25          24           1
SMALL
USER_CHARGES
 
@<TRIPOS>ATOM
       1    C1      18.103549   16.275175   22.182708 C.2        1 MOL1         0.6168
       2    O1      18.166572   15.383679   23.006312 O.co2      1 MOL1        -0.6703
       3    O2      18.588015   16.199287   21.070679 O.co2      1 MOL1        -0.6703
       4    C2      17.358827   17.553686   22.556514 C.3        1 MOL1        -0.1963
       5    H1      16.696870   17.338095   23.403925 H          1 MOL1         0.0750
       6    H2      16.714449   17.817881   21.709778 H          1 MOL1         0.0750
       7    C3      18.289014   18.748205   22.892335 C.3        1 MOL1        -0.1860
       8    H3      18.953837   18.932013   22.037998 H          1 MOL1         0.0752
       9    H4      17.677674   19.651693   23.019760 H          1 MOL1         0.0752
      10    C4      19.120288   18.508542   24.175417 C.3        1 MOL1        -0.1858
      11    H5      19.787912   17.647675   24.032209 H          1 MOL1         0.0752
      12    H6      18.440970   18.239562   24.995797 H          1 MOL1         0.0752
      13    C5      19.951926   19.738855   24.609504 C.3        1 MOL1        -0.1858
      14    H7      19.285361   20.598695   24.761871 H          1 MOL1         0.0752
      15    H8      20.408545   19.523055   25.585100 H          1 MOL1         0.0752
      16    C6      21.066379   20.114261   23.605464 C.3        1 MOL1        -0.1858
      17    H9      20.622624   20.406381   22.644904 H          1 MOL1         0.0752
      18    H10     21.698271   19.236358   23.413390 H          1 MOL1         0.0752
      19    C7      21.940242   21.272970   24.130349 C.3        1 MOL1        -0.1834
      20    H11     21.310725   22.152278   24.325242 H          1 MOL1         0.0752
      21    H12     22.397037   20.988560   25.088406 H          1 MOL1         0.0752
      22    C8      23.048743   21.648617   23.126439 C.3        1 MOL1        -0.2849
      23    H13     22.618901   21.968498   22.168162 H          1 MOL1         0.0764
      24    H14     23.660136   22.473084   23.515681 H          1 MOL1         0.0764
      25    H15     23.712337   20.794828   22.936518 H          1 MOL1         0.0764
@<TRIPOS>BOND
    1     1     2    1
    2     1     3    2
    3     1     4    1
    4     4     5    1
    5     4     6    1
    6     4     7    1
    7     7     8    1
    8     7     9    1
    9     7    10    1
   10    10    11    1
   11    10    12    1
   12    10    13    1
   13    13    14    1
   14    13    15    1
   15    13    16    1
   16    16    17    1
   17    16    18    1
   18    16    19    1
   19    19    20    1
   20    19    21    1
   21    19    22    1
   22    22    23    1
   23    22    24    1
   24    22    25    1
@<TRIPOS>SUBSTRUCTURE
       1 MOL1            1 RESIDUE      1      MOL     
@<SCITEGIC>MOL_PROPERTY
VConf Rank
SciTegic.value.IntegerValue
710

@<SCITEGIC>MOL_PROPERTY
Conf_Id
SciTegic.value.IntegerValue
142

@<SCITEGIC>MOL_PROPERTY
Delta U+W
SciTegic.value.DoubleValue
0.593

@<SCITEGIC>MOL_PROPERTY
U+W
SciTegic.value.DoubleValue
-51.037

@<SCITEGIC>MOL_PROPERTY
Grad RMS
SciTegic.value.DoubleValue
0.000000

@<SCITEGIC>MOL_PROPERTY
U
SciTegic.value.DoubleValue
8.903

@<SCITEGIC>MOL_PROPERTY
W
SciTegic.value.DoubleValue
-59.940

@<SCITEGIC>MOL_PROPERTY
W(PB)
SciTegic.value.DoubleValue
-62.418

@<SCITEGIC>MOL_PROPERTY
W(SA)
SciTegic.value.DoubleValue
2.478

@<SCITEGIC>MOL_PROPERTY
Valence
SciTegic.value.DoubleValue
8.305

@<SCITEGIC>MOL_PROPERTY
Coulomb
SciTegic.value.DoubleValue
-0.223

@<SCITEGIC>MOL_PROPERTY
VdW
SciTegic.value.DoubleValue
0.821

@<SCITEGIC>MOL_PROPERTY
VdW6
SciTegic.value.DoubleValue
-9.236

@<SCITEGIC>MOL_PROPERTY
VdW12
SciTegic.value.DoubleValue
10.057

@<SCITEGIC>MOL_PROPERTY
Bond
SciTegic.value.DoubleValue
0.173

@<SCITEGIC>MOL_PROPERTY
Angle
SciTegic.value.DoubleValue
2.663

@<SCITEGIC>MOL_PROPERTY
Pdih
SciTegic.value.DoubleValue
5.469

@<SCITEGIC>MOL_PROPERTY
Idih
SciTegic.value.DoubleValue
0.001

@<SCITEGIC>MOL_PROPERTY
Tether
SciTegic.value.DoubleValue
0.000

@<TRIPOS>MOLECULE
guest-8_confgen4.mol2 : confsearch ligand conformer 711
          25          24           1
SMALL
USER_CHARGES
 
@<TRIPOS>ATOM
       1    C1      19.567366   20.743909   20.338174 C.2        1 MOL1         0.6168
       2    O1      18.620942   21.203277   19.729224 O.co2      1 MOL1        -0.6703
       3    O2      20.654413   21.284142   20.397615 O.co2      1 MOL1        -0.6703
       4    C2      19.385799   19.402219   21.042332 C.3        1 MOL1        -0.1963
       5    H1      20.374086   19.001734   21.295710 H          1 MOL1         0.0750
       6    H2      18.946848   18.709002   20.315496 H          1 MOL1         0.0750
       7    C3      18.481846   19.465463   22.303680 C.3        1 MOL1        -0.1860
       8    H3      17.481071   19.804636   22.002702 H          1 MOL1         0.0752
       9    H4      18.347800   18.452125   22.703714 H          1 MOL1         0.0752
      10    C4      19.006964   20.402771   23.421870 C.3        1 MOL1        -0.1858
      11    H5      18.298354   20.382100   24.260942 H          1 MOL1         0.0752
      12    H6      19.005177   21.437110   23.051432 H          1 MOL1         0.0752
      13    C5      20.423710   20.070130   23.953386 C.3        1 MOL1        -0.1858
      14    H7      21.162677   20.195635   23.150684 H          1 MOL1         0.0752
      15    H8      20.685276   20.808333   24.723563 H          1 MOL1         0.0752
      16    C6      20.540266   18.651377   24.556893 C.3        1 MOL1        -0.1858
      17    H9      20.352540   17.898801   23.780045 H          1 MOL1         0.0752
      18    H10     19.770274   18.516273   25.328602 H          1 MOL1         0.0752
      19    C7      21.934709   18.405392   25.170454 C.3        1 MOL1        -0.1834
      20    H11     22.706715   18.542668   24.400625 H          1 MOL1         0.0752
      21    H12     22.130834   19.148693   25.955573 H          1 MOL1         0.0752
      22    C8      22.051362   16.988043   25.766446 C.3        1 MOL1        -0.2849
      23    H13     21.891334   16.223297   24.995135 H          1 MOL1         0.0764
      24    H14     23.048329   16.830656   26.198095 H          1 MOL1         0.0764
      25    H15     21.309652   16.833973   26.561104 H          1 MOL1         0.0764
@<TRIPOS>BOND
    1     1     2    1
    2     1     3    2
    3     1     4    1
    4     4     5    1
    5     4     6    1
    6     4     7    1
    7     7     8    1
    8     7     9    1
    9     7    10    1
   10    10    11    1
   11    10    12    1
   12    10    13    1
   13    13    14    1
   14    13    15    1
   15    13    16    1
   16    16    17    1
   17    16    18    1
   18    16    19    1
   19    19    20    1
   20    19    21    1
   21    19    22    1
   22    22    23    1
   23    22    24    1
   24    22    25    1
@<TRIPOS>SUBSTRUCTURE
       1 MOL1            1 RESIDUE      1      MOL     
@<SCITEGIC>MOL_PROPERTY
VConf Rank
SciTegic.value.IntegerValue
711

@<SCITEGIC>MOL_PROPERTY
Conf_Id
SciTegic.value.IntegerValue
135

@<SCITEGIC>MOL_PROPERTY
Delta U+W
SciTegic.value.DoubleValue
1.314

@<SCITEGIC>MOL_PROPERTY
U+W
SciTegic.value.DoubleValue
-50.316

@<SCITEGIC>MOL_PROPERTY
Grad RMS
SciTegic.value.DoubleValue
0.000000

@<SCITEGIC>MOL_PROPERTY
U
SciTegic.value.DoubleValue
9.773

@<SCITEGIC>MOL_PROPERTY
W
SciTegic.value.DoubleValue
-60.088

@<SCITEGIC>MOL_PROPERTY
W(PB)
SciTegic.value.DoubleValue
-62.535

@<SCITEGIC>MOL_PROPERTY
W(SA)
SciTegic.value.DoubleValue
2.447

@<SCITEGIC>MOL_PROPERTY
Valence
SciTegic.value.DoubleValue
8.741

@<SCITEGIC>MOL_PROPERTY
Coulomb
SciTegic.value.DoubleValue
0.479

@<SCITEGIC>MOL_PROPERTY
VdW
SciTegic.value.DoubleValue
0.552

@<SCITEGIC>MOL_PROPERTY
VdW6
SciTegic.value.DoubleValue
-10.627

@<SCITEGIC>MOL_PROPERTY
VdW12
SciTegic.value.DoubleValue
11.179

@<SCITEGIC>MOL_PROPERTY
Bond
SciTegic.value.DoubleValue
0.227

@<SCITEGIC>MOL_PROPERTY
Angle
SciTegic.value.DoubleValue
3.155

@<SCITEGIC>MOL_PROPERTY
Pdih
SciTegic.value.DoubleValue
5.358

@<SCITEGIC>MOL_PROPERTY
Idih
SciTegic.value.DoubleValue
0.001

@<SCITEGIC>MOL_PROPERTY
Tether
SciTegic.value.DoubleValue
0.000

@<TRIPOS>MOLECULE
guest-8_confgen4.mol2 : confsearch ligand conformer 712
          25          24           1
SMALL
USER_CHARGES
 
@<TRIPOS>ATOM
       1    C1      21.643189   22.919197   22.029423 C.2        1 MOL1         0.6168
       2    O1      22.809563   23.082232   22.328978 O.co2      1 MOL1        -0.6703
       3    O2      21.075820   23.554383   21.162589 O.co2      1 MOL1        -0.6703
       4    C2      20.854153   21.842690   22.766130 C.3        1 MOL1        -0.1963
       5    H1      19.807779   22.165918   22.820670 H          1 MOL1         0.0750
       6    H2      21.234387   21.796160   23.792497 H          1 MOL1         0.0750
       7    C3      20.950339   20.454693   22.080536 C.3        1 MOL1        -0.1860
       8    H3      20.653522   20.562955   21.028098 H          1 MOL1         0.0752
       9    H4      21.996394   20.118526   22.074133 H          1 MOL1         0.0752
      10    C4      20.056812   19.374513   22.736094 C.3        1 MOL1        -0.1858
      11    H5      20.075662   18.486252   22.092178 H          1 MOL1         0.0752
      12    H6      19.015571   19.723230   22.764229 H          1 MOL1         0.0752
      13    C5      20.515817   18.974685   24.158737 C.3        1 MOL1        -0.1858
      14    H7      21.536744   18.572001   24.112392 H          1 MOL1         0.0752
      15    H8      20.565333   19.868210   24.793273 H          1 MOL1         0.0752
      16    C6      19.589752   17.948834   24.859810 C.3        1 MOL1        -0.1858
      17    H9      18.587809   18.378357   24.995932 H          1 MOL1         0.0752
      18    H10     19.984019   17.786528   25.872274 H          1 MOL1         0.0752
      19    C7      19.492583   16.572764   24.154694 C.3        1 MOL1        -0.1834
      20    H11     20.404113   16.376769   23.573373 H          1 MOL1         0.0752
      21    H12     19.445209   15.787241   24.921513 H          1 MOL1         0.0752
      22    C8      18.243567   16.437922   23.255226 C.3        1 MOL1        -0.2849
      23    H13     18.231188   17.190254   22.458380 H          1 MOL1         0.0764
      24    H14     18.215841   15.447737   22.782391 H          1 MOL1         0.0764
      25    H15     17.324549   16.554328   23.844239 H          1 MOL1         0.0764
@<TRIPOS>BOND
    1     1     2    1
    2     1     3    2
    3     1     4    1
    4     4     5    1
    5     4     6    1
    6     4     7    1
    7     7     8    1
    8     7     9    1
    9     7    10    1
   10    10    11    1
   11    10    12    1
   12    10    13    1
   13    13    14    1
   14    13    15    1
   15    13    16    1
   16    16    17    1
   17    16    18    1
   18    16    19    1
   19    19    20    1
   20    19    21    1
   21    19    22    1
   22    22    23    1
   23    22    24    1
   24    22    25    1
@<TRIPOS>SUBSTRUCTURE
       1 MOL1            1 RESIDUE      1      MOL     
@<SCITEGIC>MOL_PROPERTY
VConf Rank
SciTegic.value.IntegerValue
712

@<SCITEGIC>MOL_PROPERTY
Conf_Id
SciTegic.value.IntegerValue
19

@<SCITEGIC>MOL_PROPERTY
Delta U+W
SciTegic.value.DoubleValue
3.222

@<SCITEGIC>MOL_PROPERTY
U+W
SciTegic.value.DoubleValue
-48.407

@<SCITEGIC>MOL_PROPERTY
Grad RMS
SciTegic.value.DoubleValue
0.000000

@<SCITEGIC>MOL_PROPERTY
U
SciTegic.value.DoubleValue
10.617

@<SCITEGIC>MOL_PROPERTY
W
SciTegic.value.DoubleValue
-59.025

@<SCITEGIC>MOL_PROPERTY
W(PB)
SciTegic.value.DoubleValue
-61.462

@<SCITEGIC>MOL_PROPERTY
W(SA)
SciTegic.value.DoubleValue
2.437

@<SCITEGIC>MOL_PROPERTY
Valence
SciTegic.value.DoubleValue
11.188

@<SCITEGIC>MOL_PROPERTY
Coulomb
SciTegic.value.DoubleValue
-1.778

@<SCITEGIC>MOL_PROPERTY
VdW
SciTegic.value.DoubleValue
1.208

@<SCITEGIC>MOL_PROPERTY
VdW6
SciTegic.value.DoubleValue
-9.786

@<SCITEGIC>MOL_PROPERTY
VdW12
SciTegic.value.DoubleValue
10.993

@<SCITEGIC>MOL_PROPERTY
Bond
SciTegic.value.DoubleValue
0.241

@<SCITEGIC>MOL_PROPERTY
Angle
SciTegic.value.DoubleValue
3.294

@<SCITEGIC>MOL_PROPERTY
Pdih
SciTegic.value.DoubleValue
7.653

@<SCITEGIC>MOL_PROPERTY
Idih
SciTegic.value.DoubleValue
0.001

@<SCITEGIC>MOL_PROPERTY
Tether
SciTegic.value.DoubleValue
0.000

@<TRIPOS>MOLECULE
guest-8_confgen4.mol2 : confsearch ligand conformer 713
          25          24           1
SMALL
USER_CHARGES
 
@<TRIPOS>ATOM
       1    C1      17.447018   20.175267   20.129466 C.2        1 MOL1         0.6168
       2    O1      18.006934   20.435643   19.082834 O.co2      1 MOL1        -0.6703
       3    O2      16.307078   20.510382   20.384428 O.co2      1 MOL1        -0.6703
       4    C2      18.225494   19.405824   21.190652 C.3        1 MOL1        -0.1963
       5    H1      18.903415   18.718892   20.672271 H          1 MOL1         0.0750
       6    H2      17.513396   18.794639   21.757854 H          1 MOL1         0.0750
       7    C3      19.013130   20.337205   22.148769 C.3        1 MOL1        -0.1860
       8    H3      19.756689   20.909882   21.577416 H          1 MOL1         0.0752
       9    H4      18.315830   21.072525   22.573650 H          1 MOL1         0.0752
      10    C4      19.708509   19.588450   23.310986 C.3        1 MOL1        -0.1858
      11    H5      18.967508   18.996770   23.865435 H          1 MOL1         0.0752
      12    H6      20.099742   20.339558   24.008670 H          1 MOL1         0.0752
      13    C5      20.870432   18.676610   22.849524 C.3        1 MOL1        -0.1858
      14    H7      20.503080   17.964663   22.100083 H          1 MOL1         0.0752
      15    H8      21.634560   19.285901   22.348057 H          1 MOL1         0.0752
      16    C6      21.529912   17.861885   23.990919 C.3        1 MOL1        -0.1858
      17    H9      22.295972   17.218509   23.536948 H          1 MOL1         0.0752
      18    H10     20.794947   17.179022   24.438615 H          1 MOL1         0.0752
      19    C7      22.208697   18.715986   25.090904 C.3        1 MOL1        -0.1834
      20    H11     23.128675   18.208549   25.412540 H          1 MOL1         0.0752
      21    H12     22.522778   19.685930   24.681276 H          1 MOL1         0.0752
      22    C8      21.317312   18.922921   26.335844 C.3        1 MOL1        -0.2849
      23    H13     21.063595   17.960086   26.798075 H          1 MOL1         0.0764
      24    H14     21.841135   19.528018   27.087026 H          1 MOL1         0.0764
      25    H15     20.380808   19.434857   26.086849 H          1 MOL1         0.0764
@<TRIPOS>BOND
    1     1     2    1
    2     1     3    2
    3     1     4    1
    4     4     5    1
    5     4     6    1
    6     4     7    1
    7     7     8    1
    8     7     9    1
    9     7    10    1
   10    10    11    1
   11    10    12    1
   12    10    13    1
   13    13    14    1
   14    13    15    1
   15    13    16    1
   16    16    17    1
   17    16    18    1
   18    16    19    1
   19    19    20    1
   20    19    21    1
   21    19    22    1
   22    22    23    1
   23    22    24    1
   24    22    25    1
@<TRIPOS>SUBSTRUCTURE
       1 MOL1            1 RESIDUE      1      MOL     
@<SCITEGIC>MOL_PROPERTY
VConf Rank
SciTegic.value.IntegerValue
713

@<SCITEGIC>MOL_PROPERTY
Conf_Id
SciTegic.value.IntegerValue
20

@<SCITEGIC>MOL_PROPERTY
Delta U+W
SciTegic.value.DoubleValue
3.224

@<SCITEGIC>MOL_PROPERTY
U+W
SciTegic.value.DoubleValue
-48.406

@<SCITEGIC>MOL_PROPERTY
Grad RMS
SciTegic.value.DoubleValue
0.000000

@<SCITEGIC>MOL_PROPERTY
U
SciTegic.value.DoubleValue
10.617

@<SCITEGIC>MOL_PROPERTY
W
SciTegic.value.DoubleValue
-59.023

@<SCITEGIC>MOL_PROPERTY
W(PB)
SciTegic.value.DoubleValue
-61.467

@<SCITEGIC>MOL_PROPERTY
W(SA)
SciTegic.value.DoubleValue
2.444

@<SCITEGIC>MOL_PROPERTY
Valence
SciTegic.value.DoubleValue
11.188

@<SCITEGIC>MOL_PROPERTY
Coulomb
SciTegic.value.DoubleValue
-1.778

@<SCITEGIC>MOL_PROPERTY
VdW
SciTegic.value.DoubleValue
1.208

@<SCITEGIC>MOL_PROPERTY
VdW6
SciTegic.value.DoubleValue
-9.786

@<SCITEGIC>MOL_PROPERTY
VdW12
SciTegic.value.DoubleValue
10.993

@<SCITEGIC>MOL_PROPERTY
Bond
SciTegic.value.DoubleValue
0.241

@<SCITEGIC>MOL_PROPERTY
Angle
SciTegic.value.DoubleValue
3.294

@<SCITEGIC>MOL_PROPERTY
Pdih
SciTegic.value.DoubleValue
7.653

@<SCITEGIC>MOL_PROPERTY
Idih
SciTegic.value.DoubleValue
0.001

@<SCITEGIC>MOL_PROPERTY
Tether
SciTegic.value.DoubleValue
0.000

@<TRIPOS>MOLECULE
guest-8_confgen4.mol2 : confsearch ligand conformer 714
          25          24           1
SMALL
USER_CHARGES
 
@<TRIPOS>ATOM
       1    C1      18.898161   22.246913   24.212260 C.2        1 MOL1         0.6168
       2    O1      19.728070   22.991111   23.727425 O.co2      1 MOL1        -0.6703
       3    O2      18.836903   21.993158   25.399304 O.co2      1 MOL1        -0.6703
       4    C2      17.834391   21.649943   23.292797 C.3        1 MOL1        -0.1963
       5    H1      17.257871   22.495127   22.899406 H          1 MOL1         0.0750
       6    H2      17.140598   21.049194   23.893248 H          1 MOL1         0.0750
       7    C3      18.380741   20.812444   22.102333 C.3        1 MOL1        -0.1860
       8    H3      17.593726   20.755754   21.338250 H          1 MOL1         0.0752
       9    H4      19.222656   21.337607   21.630129 H          1 MOL1         0.0752
      10    C4      18.793477   19.363659   22.462551 C.3        1 MOL1        -0.1858
      11    H5      19.014893   18.829054   21.528659 H          1 MOL1         0.0752
      12    H6      17.944149   18.840968   22.923279 H          1 MOL1         0.0752
      13    C5      20.025427   19.271744   23.391249 C.3        1 MOL1        -0.1858
      14    H7      20.842608   19.881134   22.981485 H          1 MOL1         0.0752
      15    H8      19.780008   19.684427   24.377893 H          1 MOL1         0.0752
      16    C6      20.503345   17.813502   23.563566 C.3        1 MOL1        -0.1858
      17    H9      20.760207   17.392008   22.582072 H          1 MOL1         0.0752
      18    H10     19.683466   17.204727   23.968812 H          1 MOL1         0.0752
      19    C7      21.726444   17.719425   24.499810 C.3        1 MOL1        -0.1834
      20    H11     22.548727   18.326772   24.096773 H          1 MOL1         0.0752
      21    H12     21.472724   18.138693   25.483398 H          1 MOL1         0.0752
      22    C8      22.201048   16.262266   24.670416 C.3        1 MOL1        -0.2849
      23    H13     22.491389   15.828126   23.704706 H          1 MOL1         0.0764
      24    H14     23.070619   16.214337   25.338708 H          1 MOL1         0.0764
      25    H15     21.407160   15.638630   25.101918 H          1 MOL1         0.0764
@<TRIPOS>BOND
    1     1     2    1
    2     1     3    2
    3     1     4    1
    4     4     5    1
    5     4     6    1
    6     4     7    1
    7     7     8    1
    8     7     9    1
    9     7    10    1
   10    10    11    1
   11    10    12    1
   12    10    13    1
   13    13    14    1
   14    13    15    1
   15    13    16    1
   16    16    17    1
   17    16    18    1
   18    16    19    1
   19    19    20    1
   20    19    21    1
   21    19    22    1
   22    22    23    1
   23    22    24    1
   24    22    25    1
@<TRIPOS>SUBSTRUCTURE
       1 MOL1            1 RESIDUE      1      MOL     
@<SCITEGIC>MOL_PROPERTY
VConf Rank
SciTegic.value.IntegerValue
714

@<SCITEGIC>MOL_PROPERTY
Conf_Id
SciTegic.value.IntegerValue
24

@<SCITEGIC>MOL_PROPERTY
Delta U+W
SciTegic.value.DoubleValue
1.784

@<SCITEGIC>MOL_PROPERTY
U+W
SciTegic.value.DoubleValue
-49.846

@<SCITEGIC>MOL_PROPERTY
Grad RMS
SciTegic.value.DoubleValue
0.000000

@<SCITEGIC>MOL_PROPERTY
U
SciTegic.value.DoubleValue
10.904

@<SCITEGIC>MOL_PROPERTY
W
SciTegic.value.DoubleValue
-60.749

@<SCITEGIC>MOL_PROPERTY
W(PB)
SciTegic.value.DoubleValue
-63.220

@<SCITEGIC>MOL_PROPERTY
W(SA)
SciTegic.value.DoubleValue
2.471

@<SCITEGIC>MOL_PROPERTY
Valence
SciTegic.value.DoubleValue
9.445

@<SCITEGIC>MOL_PROPERTY
Coulomb
SciTegic.value.DoubleValue
0.780

@<SCITEGIC>MOL_PROPERTY
VdW
SciTegic.value.DoubleValue
0.679

@<SCITEGIC>MOL_PROPERTY
VdW6
SciTegic.value.DoubleValue
-10.008

@<SCITEGIC>MOL_PROPERTY
VdW12
SciTegic.value.DoubleValue
10.687

@<SCITEGIC>MOL_PROPERTY
Bond
SciTegic.value.DoubleValue
0.201

@<SCITEGIC>MOL_PROPERTY
Angle
SciTegic.value.DoubleValue
3.198

@<SCITEGIC>MOL_PROPERTY
Pdih
SciTegic.value.DoubleValue
6.039

@<SCITEGIC>MOL_PROPERTY
Idih
SciTegic.value.DoubleValue
0.006

@<SCITEGIC>MOL_PROPERTY
Tether
SciTegic.value.DoubleValue
0.000

@<TRIPOS>MOLECULE
guest-8_confgen4.mol2 : confsearch ligand conformer 715
          25          24           1
SMALL
USER_CHARGES
 
@<TRIPOS>ATOM
       1    C1      18.580229   20.011974   26.173173 C.2        1 MOL1         0.6168
       2    O1      17.638696   19.256631   26.316752 O.co2      1 MOL1        -0.6703
       3    O2      19.596065   19.951292   26.837713 O.co2      1 MOL1        -0.6703
       4    C2      18.455801   21.139306   25.149929 C.3        1 MOL1        -0.1963
       5    H1      19.364189   21.752907   25.183272 H          1 MOL1         0.0750
       6    H2      17.633437   21.777502   25.493282 H          1 MOL1         0.0750
       7    C3      18.167236   20.682974   23.691987 C.3        1 MOL1        -0.1860
       8    H3      17.388970   19.907158   23.689468 H          1 MOL1         0.0752
       9    H4      17.743466   21.537233   23.146927 H          1 MOL1         0.0752
      10    C4      19.408988   20.191900   22.907141 C.3        1 MOL1        -0.1858
      11    H5      20.178004   20.976396   22.903334 H          1 MOL1         0.0752
      12    H6      19.114405   20.043594   21.859186 H          1 MOL1         0.0752
      13    C5      20.013585   18.874772   23.444043 C.3        1 MOL1        -0.1858
      14    H7      20.433721   19.038105   24.444451 H          1 MOL1         0.0752
      15    H8      19.221679   18.120177   23.546595 H          1 MOL1         0.0752
      16    C6      21.124614   18.336399   22.516499 C.3        1 MOL1        -0.1858
      17    H9      21.913148   19.094140   22.411268 H          1 MOL1         0.0752
      18    H10     20.713286   18.160882   21.513021 H          1 MOL1         0.0752
      19    C7      21.736864   17.027323   23.057648 C.3        1 MOL1        -0.1834
      20    H11     22.151042   17.199476   24.060855 H          1 MOL1         0.0752
      21    H12     20.950656   16.266965   23.163427 H          1 MOL1         0.0752
      22    C8      22.846126   16.492359   22.129736 C.3        1 MOL1        -0.2849
      23    H13     23.661241   17.221244   22.031314 H          1 MOL1         0.0764
      24    H14     23.269858   15.562032   22.529744 H          1 MOL1         0.0764
      25    H15     22.451705   16.281562   21.127055 H          1 MOL1         0.0764
@<TRIPOS>BOND
    1     1     2    1
    2     1     3    2
    3     1     4    1
    4     4     5    1
    5     4     6    1
    6     4     7    1
    7     7     8    1
    8     7     9    1
    9     7    10    1
   10    10    11    1
   11    10    12    1
   12    10    13    1
   13    13    14    1
   14    13    15    1
   15    13    16    1
   16    16    17    1
   17    16    18    1
   18    16    19    1
   19    19    20    1
   20    19    21    1
   21    19    22    1
   22    22    23    1
   23    22    24    1
   24    22    25    1
@<TRIPOS>SUBSTRUCTURE
       1 MOL1            1 RESIDUE      1      MOL     
@<SCITEGIC>MOL_PROPERTY
VConf Rank
SciTegic.value.IntegerValue
715

@<SCITEGIC>MOL_PROPERTY
Conf_Id
SciTegic.value.IntegerValue
9

@<SCITEGIC>MOL_PROPERTY
Delta U+W
SciTegic.value.DoubleValue
1.764

@<SCITEGIC>MOL_PROPERTY
U+W
SciTegic.value.DoubleValue
-49.865

@<SCITEGIC>MOL_PROPERTY
Grad RMS
SciTegic.value.DoubleValue
0.000000

@<SCITEGIC>MOL_PROPERTY
U
SciTegic.value.DoubleValue
10.902

@<SCITEGIC>MOL_PROPERTY
W
SciTegic.value.DoubleValue
-60.768

@<SCITEGIC>MOL_PROPERTY
W(PB)
SciTegic.value.DoubleValue
-63.223

@<SCITEGIC>MOL_PROPERTY
W(SA)
SciTegic.value.DoubleValue
2.456

@<SCITEGIC>MOL_PROPERTY
Valence
SciTegic.value.DoubleValue
9.445

@<SCITEGIC>MOL_PROPERTY
Coulomb
SciTegic.value.DoubleValue
0.778

@<SCITEGIC>MOL_PROPERTY
VdW
SciTegic.value.DoubleValue
0.679

@<SCITEGIC>MOL_PROPERTY
VdW6
SciTegic.value.DoubleValue
-10.007

@<SCITEGIC>MOL_PROPERTY
VdW12
SciTegic.value.DoubleValue
10.687

@<SCITEGIC>MOL_PROPERTY
Bond
SciTegic.value.DoubleValue
0.201

@<SCITEGIC>MOL_PROPERTY
Angle
SciTegic.value.DoubleValue
3.198

@<SCITEGIC>MOL_PROPERTY
Pdih
SciTegic.value.DoubleValue
6.040

@<SCITEGIC>MOL_PROPERTY
Idih
SciTegic.value.DoubleValue
0.006

@<SCITEGIC>MOL_PROPERTY
Tether
SciTegic.value.DoubleValue
0.000

@<TRIPOS>MOLECULE
guest-8_confgen4.mol2 : confsearch ligand conformer 716
          25          24           1
SMALL
USER_CHARGES
 
@<TRIPOS>ATOM
       1    C1      21.052366   16.414380   25.640768 C.2        1 MOL1         0.6168
       2    O1      20.375497   16.848290   26.551907 O.co2      1 MOL1        -0.6703
       3    O2      21.516073   15.291225   25.622182 O.co2      1 MOL1        -0.6703
       4    C2      21.317733   17.322055   24.445183 C.3        1 MOL1        -0.1963
       5    H1      22.311127   17.078571   24.050035 H          1 MOL1         0.0750
       6    H2      21.363852   18.352327   24.811074 H          1 MOL1         0.0750
       7    C3      20.250055   17.171292   23.329395 C.3        1 MOL1        -0.1860
       8    H3      20.254097   16.123695   22.997793 H          1 MOL1         0.0752
       9    H4      19.247152   17.358460   23.737524 H          1 MOL1         0.0752
      10    C4      20.507479   18.080448   22.100795 C.3        1 MOL1        -0.1858
      11    H5      20.189893   17.536022   21.200986 H          1 MOL1         0.0752
      12    H6      21.584417   18.258488   21.976917 H          1 MOL1         0.0752
      13    C5      19.743197   19.428101   22.122378 C.3        1 MOL1        -0.1858
      14    H7      19.932787   19.947253   21.173122 H          1 MOL1         0.0752
      15    H8      18.664285   19.227308   22.154874 H          1 MOL1         0.0752
      16    C6      20.135066   20.361957   23.291790 C.3        1 MOL1        -0.1858
      17    H9      21.229898   20.432805   23.343948 H          1 MOL1         0.0752
      18    H10     19.797966   19.928061   24.242235 H          1 MOL1         0.0752
      19    C7      19.554515   21.788864   23.156038 C.3        1 MOL1        -0.1834
      20    H11     19.956664   22.412064   23.966631 H          1 MOL1         0.0752
      21    H12     19.899078   22.242067   22.216295 H          1 MOL1         0.0752
      22    C8      18.012039   21.827402   23.216122 C.3        1 MOL1        -0.2849
      23    H13     17.643102   21.356467   24.136583 H          1 MOL1         0.0764
      24    H14     17.652665   22.864424   23.199208 H          1 MOL1         0.0764
      25    H15     17.565346   21.306581   22.359919 H          1 MOL1         0.0764
@<TRIPOS>BOND
    1     1     2    1
    2     1     3    2
    3     1     4    1
    4     4     5    1
    5     4     6    1
    6     4     7    1
    7     7     8    1
    8     7     9    1
    9     7    10    1
   10    10    11    1
   11    10    12    1
   12    10    13    1
   13    13    14    1
   14    13    15    1
   15    13    16    1
   16    16    17    1
   17    16    18    1
   18    16    19    1
   19    19    20    1
   20    19    21    1
   21    19    22    1
   22    22    23    1
   23    22    24    1
   24    22    25    1
@<TRIPOS>SUBSTRUCTURE
       1 MOL1            1 RESIDUE      1      MOL     
@<SCITEGIC>MOL_PROPERTY
VConf Rank
SciTegic.value.IntegerValue
716

@<SCITEGIC>MOL_PROPERTY
Conf_Id
SciTegic.value.IntegerValue
89

@<SCITEGIC>MOL_PROPERTY
Delta U+W
SciTegic.value.DoubleValue
2.903

@<SCITEGIC>MOL_PROPERTY
U+W
SciTegic.value.DoubleValue
-48.726

@<SCITEGIC>MOL_PROPERTY
Grad RMS
SciTegic.value.DoubleValue
0.000000

@<SCITEGIC>MOL_PROPERTY
U
SciTegic.value.DoubleValue
10.996

@<SCITEGIC>MOL_PROPERTY
W
SciTegic.value.DoubleValue
-59.723

@<SCITEGIC>MOL_PROPERTY
W(PB)
SciTegic.value.DoubleValue
-62.151

@<SCITEGIC>MOL_PROPERTY
W(SA)
SciTegic.value.DoubleValue
2.428

@<SCITEGIC>MOL_PROPERTY
Valence
SciTegic.value.DoubleValue
10.985

@<SCITEGIC>MOL_PROPERTY
Coulomb
SciTegic.value.DoubleValue
-0.995

@<SCITEGIC>MOL_PROPERTY
VdW
SciTegic.value.DoubleValue
1.006

@<SCITEGIC>MOL_PROPERTY
VdW6
SciTegic.value.DoubleValue
-10.062

@<SCITEGIC>MOL_PROPERTY
VdW12
SciTegic.value.DoubleValue
11.069

@<SCITEGIC>MOL_PROPERTY
Bond
SciTegic.value.DoubleValue
0.238

@<SCITEGIC>MOL_PROPERTY
Angle
SciTegic.value.DoubleValue
3.202

@<SCITEGIC>MOL_PROPERTY
Pdih
SciTegic.value.DoubleValue
7.544

@<SCITEGIC>MOL_PROPERTY
Idih
SciTegic.value.DoubleValue
0.001

@<SCITEGIC>MOL_PROPERTY
Tether
SciTegic.value.DoubleValue
0.000

@<TRIPOS>MOLECULE
guest-8_confgen4.mol2 : confsearch ligand conformer 717
          25          24           1
SMALL
USER_CHARGES
 
@<TRIPOS>ATOM
       1    C1      16.943083   19.560459   24.843372 C.2        1 MOL1         0.6168
       2    O1      16.326564   18.712312   24.228708 O.co2      1 MOL1        -0.6703
       3    O2      17.101671   19.532789   26.048234 O.co2      1 MOL1        -0.6703
       4    C2      17.491050   20.756353   24.066959 C.3        1 MOL1        -0.1963
       5    H1      16.957056   21.636985   24.442212 H          1 MOL1         0.0750
       6    H2      17.218196   20.651109   23.009961 H          1 MOL1         0.0750
       7    C3      19.021000   20.995050   24.207883 C.3        1 MOL1        -0.1860
       8    H3      19.224015   22.043682   23.951759 H          1 MOL1         0.0752
       9    H4      19.324244   20.877090   25.257503 H          1 MOL1         0.0752
      10    C4      19.906365   20.108964   23.296339 C.3        1 MOL1        -0.1858
      11    H5      20.933901   20.487612   23.362024 H          1 MOL1         0.0752
      12    H6      19.598014   20.232229   22.249305 H          1 MOL1         0.0752
      13    C5      19.889854   18.606772   23.669878 C.3        1 MOL1        -0.1858
      14    H7      20.138388   18.483175   24.732763 H          1 MOL1         0.0752
      15    H8      18.874534   18.213211   23.539220 H          1 MOL1         0.0752
      16    C6      20.843914   17.744991   22.808207 C.3        1 MOL1        -0.1858
      17    H9      20.615627   17.894568   21.744093 H          1 MOL1         0.0752
      18    H10     20.641862   16.686642   23.022627 H          1 MOL1         0.0752
      19    C7      22.341257   18.028184   23.067444 C.3        1 MOL1        -0.1834
      20    H11     22.588437   19.058825   22.782115 H          1 MOL1         0.0752
      21    H12     22.555946   17.932211   24.140704 H          1 MOL1         0.0752
      22    C8      23.244514   17.060399   22.276487 C.3        1 MOL1        -0.2849
      23    H13     23.069661   17.154520   21.196702 H          1 MOL1         0.0764
      24    H14     24.303677   17.275785   22.468405 H          1 MOL1         0.0764
      25    H15     23.053066   16.018674   22.565449 H          1 MOL1         0.0764
@<TRIPOS>BOND
    1     1     2    1
    2     1     3    2
    3     1     4    1
    4     4     5    1
    5     4     6    1
    6     4     7    1
    7     7     8    1
    8     7     9    1
    9     7    10    1
   10    10    11    1
   11    10    12    1
   12    10    13    1
   13    13    14    1
   14    13    15    1
   15    13    16    1
   16    16    17    1
   17    16    18    1
   18    16    19    1
   19    19    20    1
   20    19    21    1
   21    19    22    1
   22    22    23    1
   23    22    24    1
   24    22    25    1
@<TRIPOS>SUBSTRUCTURE
       1 MOL1            1 RESIDUE      1      MOL     
@<SCITEGIC>MOL_PROPERTY
VConf Rank
SciTegic.value.IntegerValue
717

@<SCITEGIC>MOL_PROPERTY
Conf_Id
SciTegic.value.IntegerValue
114

@<SCITEGIC>MOL_PROPERTY
Delta U+W
SciTegic.value.DoubleValue
2.758

@<SCITEGIC>MOL_PROPERTY
U+W
SciTegic.value.DoubleValue
-48.871

@<SCITEGIC>MOL_PROPERTY
Grad RMS
SciTegic.value.DoubleValue
0.000000

@<SCITEGIC>MOL_PROPERTY
U
SciTegic.value.DoubleValue
11.422

@<SCITEGIC>MOL_PROPERTY
W
SciTegic.value.DoubleValue
-60.293

@<SCITEGIC>MOL_PROPERTY
W(PB)
SciTegic.value.DoubleValue
-62.719

@<SCITEGIC>MOL_PROPERTY
W(SA)
SciTegic.value.DoubleValue
2.425

@<SCITEGIC>MOL_PROPERTY
Valence
SciTegic.value.DoubleValue
10.135

@<SCITEGIC>MOL_PROPERTY
Coulomb
SciTegic.value.DoubleValue
0.369

@<SCITEGIC>MOL_PROPERTY
VdW
SciTegic.value.DoubleValue
0.918

@<SCITEGIC>MOL_PROPERTY
VdW6
SciTegic.value.DoubleValue
-10.482

@<SCITEGIC>MOL_PROPERTY
VdW12
SciTegic.value.DoubleValue
11.400

@<SCITEGIC>MOL_PROPERTY
Bond
SciTegic.value.DoubleValue
0.245

@<SCITEGIC>MOL_PROPERTY
Angle
SciTegic.value.DoubleValue
3.539

@<SCITEGIC>MOL_PROPERTY
Pdih
SciTegic.value.DoubleValue
6.346

@<SCITEGIC>MOL_PROPERTY
Idih
SciTegic.value.DoubleValue
0.006

@<SCITEGIC>MOL_PROPERTY
Tether
SciTegic.value.DoubleValue
0.000

@<TRIPOS>MOLECULE
guest-8_confgen4.mol2 : confsearch ligand conformer 718
          25          24           1
SMALL
USER_CHARGES
 
@<TRIPOS>ATOM
       1    C1      16.436752   19.566501   23.810287 C.2        1 MOL1         0.6168
       2    O1      16.010256   19.785587   22.693521 O.co2      1 MOL1        -0.6703
       3    O2      16.102899   18.610520   24.482403 O.co2      1 MOL1        -0.6703
       4    C2      17.430668   20.556056   24.411835 C.3        1 MOL1        -0.1963
       5    H1      17.113240   20.754964   25.442201 H          1 MOL1         0.0750
       6    H2      17.353129   21.504779   23.867146 H          1 MOL1         0.0750
       7    C3      18.897960   20.054034   24.409364 C.3        1 MOL1        -0.1860
       8    H3      19.518756   20.764047   24.972162 H          1 MOL1         0.0752
       9    H4      18.945961   19.096322   24.943977 H          1 MOL1         0.0752
      10    C4      19.467795   19.899183   22.978782 C.3        1 MOL1        -0.1858
      11    H5      19.322567   20.842235   22.434350 H          1 MOL1         0.0752
      12    H6      18.899073   19.135524   22.430439 H          1 MOL1         0.0752
      13    C5      20.973257   19.542438   22.947139 C.3        1 MOL1        -0.1858
      14    H7      21.312973   19.599917   21.905278 H          1 MOL1         0.0752
      15    H8      21.542912   20.299616   23.502744 H          1 MOL1         0.0752
      16    C6      21.285025   18.134503   23.511996 C.3        1 MOL1        -0.1858
      17    H9      20.712315   17.378084   22.958358 H          1 MOL1         0.0752
      18    H10     20.949886   18.076940   24.555275 H          1 MOL1         0.0752
      19    C7      22.789116   17.775882   23.472758 C.3        1 MOL1        -0.1834
      20    H11     23.366432   18.536815   24.015876 H          1 MOL1         0.0752
      21    H12     22.938817   16.830243   24.011827 H          1 MOL1         0.0752
      22    C8      23.347172   17.622633   22.040978 C.3        1 MOL1        -0.2849
      23    H13     24.387949   17.275037   22.070367 H          1 MOL1         0.0764
      24    H14     22.762941   16.891100   21.467700 H          1 MOL1         0.0764
      25    H15     23.331959   18.576557   21.499495 H          1 MOL1         0.0764
@<TRIPOS>BOND
    1     1     2    1
    2     1     3    2
    3     1     4    1
    4     4     5    1
    5     4     6    1
    6     4     7    1
    7     7     8    1
    8     7     9    1
    9     7    10    1
   10    10    11    1
   11    10    12    1
   12    10    13    1
   13    13    14    1
   14    13    15    1
   15    13    16    1
   16    16    17    1
   17    16    18    1
   18    16    19    1
   19    19    20    1
   20    19    21    1
   21    19    22    1
   22    22    23    1
   23    22    24    1
   24    22    25    1
@<TRIPOS>SUBSTRUCTURE
       1 MOL1            1 RESIDUE      1      MOL     
@<SCITEGIC>MOL_PROPERTY
VConf Rank
SciTegic.value.IntegerValue
718

@<SCITEGIC>MOL_PROPERTY
Conf_Id
SciTegic.value.IntegerValue
87

@<SCITEGIC>MOL_PROPERTY
Delta U+W
SciTegic.value.DoubleValue
1.453

@<SCITEGIC>MOL_PROPERTY
U+W
SciTegic.value.DoubleValue
-50.176

@<SCITEGIC>MOL_PROPERTY
Grad RMS
SciTegic.value.DoubleValue
0.000000

@<SCITEGIC>MOL_PROPERTY
U
SciTegic.value.DoubleValue
9.763

@<SCITEGIC>MOL_PROPERTY
W
SciTegic.value.DoubleValue
-59.940

@<SCITEGIC>MOL_PROPERTY
W(PB)
SciTegic.value.DoubleValue
-62.392

@<SCITEGIC>MOL_PROPERTY
W(SA)
SciTegic.value.DoubleValue
2.452

@<SCITEGIC>MOL_PROPERTY
Valence
SciTegic.value.DoubleValue
8.883

@<SCITEGIC>MOL_PROPERTY
Coulomb
SciTegic.value.DoubleValue
-0.122

@<SCITEGIC>MOL_PROPERTY
VdW
SciTegic.value.DoubleValue
1.003

@<SCITEGIC>MOL_PROPERTY
VdW6
SciTegic.value.DoubleValue
-9.782

@<SCITEGIC>MOL_PROPERTY
VdW12
SciTegic.value.DoubleValue
10.785

@<SCITEGIC>MOL_PROPERTY
Bond
SciTegic.value.DoubleValue
0.212

@<SCITEGIC>MOL_PROPERTY
Angle
SciTegic.value.DoubleValue
2.940

@<SCITEGIC>MOL_PROPERTY
Pdih
SciTegic.value.DoubleValue
5.730

@<SCITEGIC>MOL_PROPERTY
Idih
SciTegic.value.DoubleValue
0.001

@<SCITEGIC>MOL_PROPERTY
Tether
SciTegic.value.DoubleValue
0.000

@<TRIPOS>MOLECULE
guest-8_confgen4.mol2 : confsearch ligand conformer 719
          25          24           1
SMALL
USER_CHARGES
 
@<TRIPOS>ATOM
       1    C1      16.139097   19.021665   22.826540 C.2        1 MOL1         0.6168
       2    O1      15.794096   18.203984   23.656634 O.co2      1 MOL1        -0.6703
       3    O2      15.456949   19.969890   22.491450 O.co2      1 MOL1        -0.6703
       4    C2      17.511592   18.859276   22.183069 C.3        1 MOL1        -0.1963
       5    H1      17.452724   19.236993   21.155282 H          1 MOL1         0.0750
       6    H2      17.734962   17.787344   22.122718 H          1 MOL1         0.0750
       7    C3      18.630942   19.594602   22.960435 C.3        1 MOL1        -0.1860
       8    H3      18.389599   20.664804   23.020132 H          1 MOL1         0.0752
       9    H4      18.657092   19.213935   23.990092 H          1 MOL1         0.0752
      10    C4      20.012119   19.407870   22.291026 C.3        1 MOL1        -0.1858
      11    H5      19.947454   19.729243   21.242618 H          1 MOL1         0.0752
      12    H6      20.272394   18.341528   22.266988 H          1 MOL1         0.0752
      13    C5      21.144239   20.211574   22.978560 C.3        1 MOL1        -0.1858
      14    H7      22.073269   20.072402   22.410307 H          1 MOL1         0.0752
      15    H8      20.911101   21.282635   22.908223 H          1 MOL1         0.0752
      16    C6      21.398277   19.857424   24.467809 C.3        1 MOL1        -0.1858
      17    H9      20.524973   20.150425   25.065100 H          1 MOL1         0.0752
      18    H10     22.229498   20.473376   24.836812 H          1 MOL1         0.0752
      19    C7      21.719767   18.368331   24.745973 C.3        1 MOL1        -0.1834
      20    H11     21.854120   18.235250   25.828167 H          1 MOL1         0.0752
      21    H12     20.864689   17.738609   24.466466 H          1 MOL1         0.0752
      22    C8      22.990799   17.873073   24.022620 C.3        1 MOL1        -0.2849
      23    H13     23.855909   18.499638   24.275476 H          1 MOL1         0.0764
      24    H14     23.222549   16.841092   24.315940 H          1 MOL1         0.0764
      25    H15     22.860797   17.888409   22.933212 H          1 MOL1         0.0764
@<TRIPOS>BOND
    1     1     2    1
    2     1     3    2
    3     1     4    1
    4     4     5    1
    5     4     6    1
    6     4     7    1
    7     7     8    1
    8     7     9    1
    9     7    10    1
   10    10    11    1
   11    10    12    1
   12    10    13    1
   13    13    14    1
   14    13    15    1
   15    13    16    1
   16    16    17    1
   17    16    18    1
   18    16    19    1
   19    19    20    1
   20    19    21    1
   21    19    22    1
   22    22    23    1
   23    22    24    1
   24    22    25    1
@<TRIPOS>SUBSTRUCTURE
       1 MOL1            1 RESIDUE      1      MOL     
@<SCITEGIC>MOL_PROPERTY
VConf Rank
SciTegic.value.IntegerValue
719

@<SCITEGIC>MOL_PROPERTY
Conf_Id
SciTegic.value.IntegerValue
29

@<SCITEGIC>MOL_PROPERTY
Delta U+W
SciTegic.value.DoubleValue
0.850

@<SCITEGIC>MOL_PROPERTY
U+W
SciTegic.value.DoubleValue
-50.780

@<SCITEGIC>MOL_PROPERTY
Grad RMS
SciTegic.value.DoubleValue
0.000000

@<SCITEGIC>MOL_PROPERTY
U
SciTegic.value.DoubleValue
8.646

@<SCITEGIC>MOL_PROPERTY
W
SciTegic.value.DoubleValue
-59.426

@<SCITEGIC>MOL_PROPERTY
W(PB)
SciTegic.value.DoubleValue
-61.868

@<SCITEGIC>MOL_PROPERTY
W(SA)
SciTegic.value.DoubleValue
2.442

@<SCITEGIC>MOL_PROPERTY
Valence
SciTegic.value.DoubleValue
8.924

@<SCITEGIC>MOL_PROPERTY
Coulomb
SciTegic.value.DoubleValue
-1.171

@<SCITEGIC>MOL_PROPERTY
VdW
SciTegic.value.DoubleValue
0.894

@<SCITEGIC>MOL_PROPERTY
VdW6
SciTegic.value.DoubleValue
-10.223

@<SCITEGIC>MOL_PROPERTY
VdW12
SciTegic.value.DoubleValue
11.117

@<SCITEGIC>MOL_PROPERTY
Bond
SciTegic.value.DoubleValue
0.231

@<SCITEGIC>MOL_PROPERTY
Angle
SciTegic.value.DoubleValue
3.232

@<SCITEGIC>MOL_PROPERTY
Pdih
SciTegic.value.DoubleValue
5.461

@<SCITEGIC>MOL_PROPERTY
Idih
SciTegic.value.DoubleValue
0.001

@<SCITEGIC>MOL_PROPERTY
Tether
SciTegic.value.DoubleValue
0.000

@<TRIPOS>MOLECULE
guest-8_confgen4.mol2 : confsearch ligand conformer 720
          25          24           1
SMALL
USER_CHARGES
 
@<TRIPOS>ATOM
       1    C1      21.126598   22.878266   22.502217 C.2        1 MOL1         0.6168
       2    O1      20.839056   22.969371   21.325057 O.co2      1 MOL1        -0.6703
       3    O2      22.066960   23.454821   23.012161 O.co2      1 MOL1        -0.6703
       4    C2      20.271508   21.975668   23.384436 C.3        1 MOL1        -0.1963
       5    H1      19.244543   21.997781   23.000473 H          1 MOL1         0.0750
       6    H2      20.250416   22.406017   24.392819 H          1 MOL1         0.0750
       7    C3      20.790840   20.517702   23.435274 C.3        1 MOL1        -0.1860
       8    H3      20.821726   20.116009   22.413768 H          1 MOL1         0.0752
       9    H4      21.822364   20.512017   23.813516 H          1 MOL1         0.0752
      10    C4      19.902176   19.623069   24.330004 C.3        1 MOL1        -0.1858
      11    H5      18.880093   19.595909   23.929984 H          1 MOL1         0.0752
      12    H6      19.826916   20.077553   25.327200 H          1 MOL1         0.0752
      13    C5      20.443814   18.180498   24.491105 C.3        1 MOL1        -0.1858
      14    H7      21.426493   18.223813   24.979918 H          1 MOL1         0.0752
      15    H8      19.791919   17.632384   25.183915 H          1 MOL1         0.0752
      16    C6      20.582156   17.373403   23.173045 C.3        1 MOL1        -0.1858
      17    H9      20.953304   16.368487   23.415705 H          1 MOL1         0.0752
      18    H10     21.357869   17.831902   22.545898 H          1 MOL1         0.0752
      19    C7      19.281621   17.237424   22.343437 C.3        1 MOL1        -0.1834
      20    H11     18.939122   18.227016   22.012927 H          1 MOL1         0.0752
      21    H12     19.507284   16.672861   21.428424 H          1 MOL1         0.0752
      22    C8      18.145477   16.519171   23.103255 C.3        1 MOL1        -0.2849
      23    H13     17.814009   17.104217   23.970317 H          1 MOL1         0.0764
      24    H14     17.277039   16.373465   22.448035 H          1 MOL1         0.0764
      25    H15     18.472118   15.532829   23.457331 H          1 MOL1         0.0764
@<TRIPOS>BOND
    1     1     2    1
    2     1     3    2
    3     1     4    1
    4     4     5    1
    5     4     6    1
    6     4     7    1
    7     7     8    1
    8     7     9    1
    9     7    10    1
   10    10    11    1
   11    10    12    1
   12    10    13    1
   13    13    14    1
   14    13    15    1
   15    13    16    1
   16    16    17    1
   17    16    18    1
   18    16    19    1
   19    19    20    1
   20    19    21    1
   21    19    22    1
   22    22    23    1
   23    22    24    1
   24    22    25    1
@<TRIPOS>SUBSTRUCTURE
       1 MOL1            1 RESIDUE      1      MOL     
@<SCITEGIC>MOL_PROPERTY
VConf Rank
SciTegic.value.IntegerValue
720

@<SCITEGIC>MOL_PROPERTY
Conf_Id
SciTegic.value.IntegerValue
30

@<SCITEGIC>MOL_PROPERTY
Delta U+W
SciTegic.value.DoubleValue
0.843

@<SCITEGIC>MOL_PROPERTY
U+W
SciTegic.value.DoubleValue
-50.787

@<SCITEGIC>MOL_PROPERTY
Grad RMS
SciTegic.value.DoubleValue
0.000000

@<SCITEGIC>MOL_PROPERTY
U
SciTegic.value.DoubleValue
8.647

@<SCITEGIC>MOL_PROPERTY
W
SciTegic.value.DoubleValue
-59.434

@<SCITEGIC>MOL_PROPERTY
W(PB)
SciTegic.value.DoubleValue
-61.861

@<SCITEGIC>MOL_PROPERTY
W(SA)
SciTegic.value.DoubleValue
2.428

@<SCITEGIC>MOL_PROPERTY
Valence
SciTegic.value.DoubleValue
8.924

@<SCITEGIC>MOL_PROPERTY
Coulomb
SciTegic.value.DoubleValue
-1.170

@<SCITEGIC>MOL_PROPERTY
VdW
SciTegic.value.DoubleValue
0.894

@<SCITEGIC>MOL_PROPERTY
VdW6
SciTegic.value.DoubleValue
-10.224

@<SCITEGIC>MOL_PROPERTY
VdW12
SciTegic.value.DoubleValue
11.118

@<SCITEGIC>MOL_PROPERTY
Bond
SciTegic.value.DoubleValue
0.231

@<SCITEGIC>MOL_PROPERTY
Angle
SciTegic.value.DoubleValue
3.232

@<SCITEGIC>MOL_PROPERTY
Pdih
SciTegic.value.DoubleValue
5.460

@<SCITEGIC>MOL_PROPERTY
Idih
SciTegic.value.DoubleValue
0.000

@<SCITEGIC>MOL_PROPERTY
Tether
SciTegic.value.DoubleValue
0.000

@<TRIPOS>MOLECULE
guest-8_confgen4.mol2 : confsearch ligand conformer 721
          25          24           1
SMALL
USER_CHARGES
 
@<TRIPOS>ATOM
       1    C1      23.267117   19.206350   26.581035 C.2        1 MOL1         0.6168
       2    O1      23.297562   17.993915   26.668657 O.co2      1 MOL1        -0.6703
       3    O2      23.941344   19.939306   27.276959 O.co2      1 MOL1        -0.6703
       4    C2      22.346215   19.869934   25.555856 C.3        1 MOL1        -0.1963
       5    H1      22.973725   20.492930   24.907770 H          1 MOL1         0.0750
       6    H2      21.680209   20.546366   26.104292 H          1 MOL1         0.0750
       7    C3      21.505712   18.893367   24.690819 C.3        1 MOL1        -0.1860
       8    H3      22.178954   18.214520   24.149138 H          1 MOL1         0.0752
       9    H4      20.884221   18.268038   25.346729 H          1 MOL1         0.0752
      10    C4      20.606647   19.645119   23.685236 C.3        1 MOL1        -0.1858
      11    H5      21.230078   20.269609   23.030650 H          1 MOL1         0.0752
      12    H6      19.934522   20.323143   24.228991 H          1 MOL1         0.0752
      13    C5      19.771491   18.671783   22.825807 C.3        1 MOL1        -0.1858
      14    H7      20.443361   17.993649   22.281904 H          1 MOL1         0.0752
      15    H8      19.147917   18.047183   23.480126 H          1 MOL1         0.0752
      16    C6      18.872322   19.422791   21.820125 C.3        1 MOL1        -0.1858
      17    H9      19.495705   20.047422   21.165661 H          1 MOL1         0.0752
      18    H10     18.200287   20.100916   22.363826 H          1 MOL1         0.0752
      19    C7      18.037519   18.449984   20.960991 C.3        1 MOL1        -0.1834
      20    H11     18.706556   17.771176   20.414093 H          1 MOL1         0.0752
      21    H12     17.411143   17.824673   21.612242 H          1 MOL1         0.0752
      22    C8      17.141045   19.203722   19.958087 C.3        1 MOL1        -0.2849
      23    H13     17.744518   19.813518   19.272984 H          1 MOL1         0.0764
      24    H14     16.555034   18.497176   19.356031 H          1 MOL1         0.0764
      25    H15     16.439344   19.867400   20.480145 H          1 MOL1         0.0764
@<TRIPOS>BOND
    1     1     2    1
    2     1     3    2
    3     1     4    1
    4     4     5    1
    5     4     6    1
    6     4     7    1
    7     7     8    1
    8     7     9    1
    9     7    10    1
   10    10    11    1
   11    10    12    1
   12    10    13    1
   13    13    14    1
   14    13    15    1
   15    13    16    1
   16    16    17    1
   17    16    18    1
   18    16    19    1
   19    19    20    1
   20    19    21    1
   21    19    22    1
   22    22    23    1
   23    22    24    1
   24    22    25    1
@<TRIPOS>SUBSTRUCTURE
       1 MOL1            1 RESIDUE      1      MOL     
@<SCITEGIC>MOL_PROPERTY
VConf Rank
SciTegic.value.IntegerValue
721

@<SCITEGIC>MOL_PROPERTY
Conf_Id
SciTegic.value.IntegerValue
0

@<SCITEGIC>MOL_PROPERTY
Delta U+W
SciTegic.value.DoubleValue
0.000

@<SCITEGIC>MOL_PROPERTY
U+W
SciTegic.value.DoubleValue
-51.629

@<SCITEGIC>MOL_PROPERTY
Grad RMS
SciTegic.value.DoubleValue
0.000000

@<SCITEGIC>MOL_PROPERTY
U
SciTegic.value.DoubleValue
6.586

@<SCITEGIC>MOL_PROPERTY
W
SciTegic.value.DoubleValue
-58.216

@<SCITEGIC>MOL_PROPERTY
W(PB)
SciTegic.value.DoubleValue
-60.757

@<SCITEGIC>MOL_PROPERTY
W(SA)
SciTegic.value.DoubleValue
2.541

@<SCITEGIC>MOL_PROPERTY
Valence
SciTegic.value.DoubleValue
8.027

@<SCITEGIC>MOL_PROPERTY
Coulomb
SciTegic.value.DoubleValue
-2.892

@<SCITEGIC>MOL_PROPERTY
VdW
SciTegic.value.DoubleValue
1.451

@<SCITEGIC>MOL_PROPERTY
VdW6
SciTegic.value.DoubleValue
-7.931

@<SCITEGIC>MOL_PROPERTY
VdW12
SciTegic.value.DoubleValue
9.383

@<SCITEGIC>MOL_PROPERTY
Bond
SciTegic.value.DoubleValue
0.149

@<SCITEGIC>MOL_PROPERTY
Angle
SciTegic.value.DoubleValue
2.726

@<SCITEGIC>MOL_PROPERTY
Pdih
SciTegic.value.DoubleValue
5.152

@<SCITEGIC>MOL_PROPERTY
Idih
SciTegic.value.DoubleValue
0.000

@<SCITEGIC>MOL_PROPERTY
Tether
SciTegic.value.DoubleValue
0.000

@<TRIPOS>MOLECULE
guest-8_confgen4.mol2 : confsearch ligand conformer 722
          25          24           1
SMALL
USER_CHARGES
 
@<TRIPOS>ATOM
       1    C1      15.953456   20.735099   21.738703 C.2        1 MOL1         0.6168
       2    O1      16.003095   21.730663   21.043714 O.co2      1 MOL1        -0.6703
       3    O2      15.100864   19.876660   21.625609 O.co2      1 MOL1        -0.6703
       4    C2      17.034355   20.540969   22.796083 C.3        1 MOL1        -0.1963
       5    H1      16.590606   20.002140   23.641869 H          1 MOL1         0.0750
       6    H2      17.333663   21.530182   23.162797 H          1 MOL1         0.0750
       7    C3      18.268112   19.773222   22.260890 C.3        1 MOL1        -0.1860
       8    H3      17.949441   18.790766   21.885628 H          1 MOL1         0.0752
       9    H4      18.692378   20.318703   21.406465 H          1 MOL1         0.0752
      10    C4      19.347689   19.589654   23.349393 C.3        1 MOL1        -0.1858
      11    H5      18.920116   19.045055   24.202489 H          1 MOL1         0.0752
      12    H6      19.663087   20.573449   23.723359 H          1 MOL1         0.0752
      13    C5      20.576404   18.824201   22.812914 C.3        1 MOL1        -0.1858
      14    H7      20.261266   17.840355   22.438963 H          1 MOL1         0.0752
      15    H8      21.004132   19.368635   21.959835 H          1 MOL1         0.0752
      16    C6      21.656431   18.640308   23.900850 C.3        1 MOL1        -0.1858
      17    H9      21.229038   18.095803   24.754047 H          1 MOL1         0.0752
      18    H10     21.971792   19.624002   24.275001 H          1 MOL1         0.0752
      19    C7      22.884720   17.875275   23.364761 C.3        1 MOL1        -0.1834
      20    H11     22.573390   16.889847   22.991275 H          1 MOL1         0.0752
      21    H12     23.316154   18.418042   22.512260 H          1 MOL1         0.0752
      22    C8      23.960838   17.693680   24.454071 C.3        1 MOL1        -0.2849
      23    H13     24.826282   17.148219   24.055866 H          1 MOL1         0.0764
      24    H14     24.313536   18.665468   24.823707 H          1 MOL1         0.0764
      25    H15     23.565177   17.125773   25.306321 H          1 MOL1         0.0764
@<TRIPOS>BOND
    1     1     2    1
    2     1     3    2
    3     1     4    1
    4     4     5    1
    5     4     6    1
    6     4     7    1
    7     7     8    1
    8     7     9    1
    9     7    10    1
   10    10    11    1
   11    10    12    1
   12    10    13    1
   13    13    14    1
   14    13    15    1
   15    13    16    1
   16    16    17    1
   17    16    18    1
   18    16    19    1
   19    19    20    1
   20    19    21    1
   21    19    22    1
   22    22    23    1
   23    22    24    1
   24    22    25    1
@<TRIPOS>SUBSTRUCTURE
       1 MOL1            1 RESIDUE      1      MOL     
@<SCITEGIC>MOL_PROPERTY
VConf Rank
SciTegic.value.IntegerValue
722

@<SCITEGIC>MOL_PROPERTY
Conf_Id
SciTegic.value.IntegerValue
27

@<SCITEGIC>MOL_PROPERTY
Delta U+W
SciTegic.value.DoubleValue
-1.297

@<SCITEGIC>MOL_PROPERTY
U+W
SciTegic.value.DoubleValue
-52.926

@<SCITEGIC>MOL_PROPERTY
Grad RMS
SciTegic.value.DoubleValue
0.000000

@<SCITEGIC>MOL_PROPERTY
U
SciTegic.value.DoubleValue
5.617

@<SCITEGIC>MOL_PROPERTY
W
SciTegic.value.DoubleValue
-58.543

@<SCITEGIC>MOL_PROPERTY
W(PB)
SciTegic.value.DoubleValue
-61.065

@<SCITEGIC>MOL_PROPERTY
W(SA)
SciTegic.value.DoubleValue
2.522

@<SCITEGIC>MOL_PROPERTY
Valence
SciTegic.value.DoubleValue
7.531

@<SCITEGIC>MOL_PROPERTY
Coulomb
SciTegic.value.DoubleValue
-2.818

@<SCITEGIC>MOL_PROPERTY
VdW
SciTegic.value.DoubleValue
0.904

@<SCITEGIC>MOL_PROPERTY
VdW6
SciTegic.value.DoubleValue
-7.640

@<SCITEGIC>MOL_PROPERTY
VdW12
SciTegic.value.DoubleValue
8.544

@<SCITEGIC>MOL_PROPERTY
Bond
SciTegic.value.DoubleValue
0.115

@<SCITEGIC>MOL_PROPERTY
Angle
SciTegic.value.DoubleValue
2.271

@<SCITEGIC>MOL_PROPERTY
Pdih
SciTegic.value.DoubleValue
5.144

@<SCITEGIC>MOL_PROPERTY
Idih
SciTegic.value.DoubleValue
0.001

@<SCITEGIC>MOL_PROPERTY
Tether
SciTegic.value.DoubleValue
0.000

@<TRIPOS>MOLECULE
guest-8_confgen4.mol2 : confsearch ligand conformer 723
          25          24           1
SMALL
USER_CHARGES
 
@<TRIPOS>ATOM
       1    C1      20.114132   21.102816   19.852529 C.2        1 MOL1         0.6168
       2    O1      21.201266   21.505499   19.487755 O.co2      1 MOL1        -0.6703
       3    O2      19.481655   20.247487   19.264864 O.co2      1 MOL1        -0.6703
       4    C2      19.504059   21.718600   21.108548 C.3        1 MOL1        -0.1963
       5    H1      18.425621   21.519059   21.107912 H          1 MOL1         0.0750
       6    H2      19.625826   22.805555   21.033141 H          1 MOL1         0.0750
       7    C3      20.141127   21.216180   22.430162 C.3        1 MOL1        -0.1860
       8    H3      21.224635   21.397828   22.403966 H          1 MOL1         0.0752
       9    H4      19.741672   21.807047   23.265543 H          1 MOL1         0.0752
      10    C4      19.867801   19.717584   22.689528 C.3        1 MOL1        -0.1858
      11    H5      20.280168   19.118099   21.866124 H          1 MOL1         0.0752
      12    H6      18.783850   19.538885   22.701349 H          1 MOL1         0.0752
      13    C5      20.483337   19.246849   24.024877 C.3        1 MOL1        -0.1858
      14    H7      21.567245   19.425925   24.012100 H          1 MOL1         0.0752
      15    H8      20.070148   19.842935   24.850101 H          1 MOL1         0.0752
      16    C6      20.211350   17.749321   24.284290 C.3        1 MOL1        -0.1858
      17    H9      20.624438   17.153082   23.459071 H          1 MOL1         0.0752
      18    H10     19.127489   17.569960   24.296750 H          1 MOL1         0.0752
      19    C7      20.826858   17.278202   25.618669 C.3        1 MOL1        -0.1834
      20    H11     21.911445   17.454442   25.609010 H          1 MOL1         0.0752
      21    H12     20.414427   17.871250   26.446723 H          1 MOL1         0.0752
      22    C8      20.553164   15.782343   25.873819 C.3        1 MOL1        -0.2849
      23    H13     20.982858   15.162701   25.075819 H          1 MOL1         0.0764
      24    H14     20.997518   15.464607   26.826013 H          1 MOL1         0.0764
      25    H15     19.474558   15.582616   25.919794 H          1 MOL1         0.0764
@<TRIPOS>BOND
    1     1     2    1
    2     1     3    2
    3     1     4    1
    4     4     5    1
    5     4     6    1
    6     4     7    1
    7     7     8    1
    8     7     9    1
    9     7    10    1
   10    10    11    1
   11    10    12    1
   12    10    13    1
   13    13    14    1
   14    13    15    1
   15    13    16    1
   16    16    17    1
   17    16    18    1
   18    16    19    1
   19    19    20    1
   20    19    21    1
   21    19    22    1
   22    22    23    1
   23    22    24    1
   24    22    25    1
@<TRIPOS>SUBSTRUCTURE
       1 MOL1            1 RESIDUE      1      MOL     
@<SCITEGIC>MOL_PROPERTY
VConf Rank
SciTegic.value.IntegerValue
723

@<SCITEGIC>MOL_PROPERTY
Conf_Id
SciTegic.value.IntegerValue
37

@<SCITEGIC>MOL_PROPERTY
Delta U+W
SciTegic.value.DoubleValue
-0.230

@<SCITEGIC>MOL_PROPERTY
U+W
SciTegic.value.DoubleValue
-51.860

@<SCITEGIC>MOL_PROPERTY
Grad RMS
SciTegic.value.DoubleValue
0.000000

@<SCITEGIC>MOL_PROPERTY
U
SciTegic.value.DoubleValue
7.816

@<SCITEGIC>MOL_PROPERTY
W
SciTegic.value.DoubleValue
-59.675

@<SCITEGIC>MOL_PROPERTY
W(PB)
SciTegic.value.DoubleValue
-62.180

@<SCITEGIC>MOL_PROPERTY
W(SA)
SciTegic.value.DoubleValue
2.505

@<SCITEGIC>MOL_PROPERTY
Valence
SciTegic.value.DoubleValue
7.785

@<SCITEGIC>MOL_PROPERTY
Coulomb
SciTegic.value.DoubleValue
-0.713

@<SCITEGIC>MOL_PROPERTY
VdW
SciTegic.value.DoubleValue
0.744

@<SCITEGIC>MOL_PROPERTY
VdW6
SciTegic.value.DoubleValue
-8.514

@<SCITEGIC>MOL_PROPERTY
VdW12
SciTegic.value.DoubleValue
9.259

@<SCITEGIC>MOL_PROPERTY
Bond
SciTegic.value.DoubleValue
0.136

@<SCITEGIC>MOL_PROPERTY
Angle
SciTegic.value.DoubleValue
2.433

@<SCITEGIC>MOL_PROPERTY
Pdih
SciTegic.value.DoubleValue
5.216

@<SCITEGIC>MOL_PROPERTY
Idih
SciTegic.value.DoubleValue
0.000

@<SCITEGIC>MOL_PROPERTY
Tether
SciTegic.value.DoubleValue
0.000

@<TRIPOS>MOLECULE
guest-8_confgen4.mol2 : confsearch ligand conformer 724
          25          24           1
SMALL
USER_CHARGES
 
@<TRIPOS>ATOM
       1    C1      20.110560   23.148302   24.628807 C.2        1 MOL1         0.6168
       2    O1      19.026277   23.583194   24.963882 O.co2      1 MOL1        -0.6703
       3    O2      20.732773   23.558983   23.669039 O.co2      1 MOL1        -0.6703
       4    C2      20.730308   22.036459   25.470642 C.3        1 MOL1        -0.1963
       5    H1      20.619128   22.321604   26.523407 H          1 MOL1         0.0750
       6    H2      21.806705   21.999246   25.263686 H          1 MOL1         0.0750
       7    C3      20.092072   20.641833   25.241262 C.3        1 MOL1        -0.1860
       8    H3      20.499691   19.937612   25.979143 H          1 MOL1         0.0752
       9    H4      19.010334   20.701908   25.425404 H          1 MOL1         0.0752
      10    C4      20.351369   20.096292   23.818969 C.3        1 MOL1        -0.1858
      11    H5      21.433542   20.050757   23.634981 H          1 MOL1         0.0752
      12    H6      19.930919   20.787139   23.075077 H          1 MOL1         0.0752
      13    C5      19.734838   18.694458   23.623062 C.3        1 MOL1        -0.1858
      14    H7      20.155999   18.001182   24.364026 H          1 MOL1         0.0752
      15    H8      18.652695   18.741034   23.807136 H          1 MOL1         0.0752
      16    C6      19.992926   18.149005   22.201890 C.3        1 MOL1        -0.1858
      17    H9      21.075022   18.102621   22.017501 H          1 MOL1         0.0752
      18    H10     19.571920   18.842268   21.460765 H          1 MOL1         0.0752
      19    C7      19.376334   16.748087   22.005396 C.3        1 MOL1        -0.1834
      20    H11     19.796578   16.051441   22.744014 H          1 MOL1         0.0752
      21    H12     18.293474   16.791143   22.187172 H          1 MOL1         0.0752
      22    C8      19.636268   16.207076   20.585063 C.3        1 MOL1        -0.2849
      23    H13     20.713016   16.123766   20.387405 H          1 MOL1         0.0764
      24    H14     19.191261   15.211011   20.462969 H          1 MOL1         0.0764
      25    H15     19.198647   16.869096   19.826370 H          1 MOL1         0.0764
@<TRIPOS>BOND
    1     1     2    1
    2     1     3    2
    3     1     4    1
    4     4     5    1
    5     4     6    1
    6     4     7    1
    7     7     8    1
    8     7     9    1
    9     7    10    1
   10    10    11    1
   11    10    12    1
   12    10    13    1
   13    13    14    1
   14    13    15    1
   15    13    16    1
   16    16    17    1
   17    16    18    1
   18    16    19    1
   19    19    20    1
   20    19    21    1
   21    19    22    1
   22    22    23    1
   23    22    24    1
   24    22    25    1
@<TRIPOS>SUBSTRUCTURE
       1 MOL1            1 RESIDUE      1      MOL     
@<SCITEGIC>MOL_PROPERTY
VConf Rank
SciTegic.value.IntegerValue
724

@<SCITEGIC>MOL_PROPERTY
Conf_Id
SciTegic.value.IntegerValue
54

@<SCITEGIC>MOL_PROPERTY
Delta U+W
SciTegic.value.DoubleValue
-0.224

@<SCITEGIC>MOL_PROPERTY
U+W
SciTegic.value.DoubleValue
-51.854

@<SCITEGIC>MOL_PROPERTY
Grad RMS
SciTegic.value.DoubleValue
0.000000

@<SCITEGIC>MOL_PROPERTY
U
SciTegic.value.DoubleValue
7.816

@<SCITEGIC>MOL_PROPERTY
W
SciTegic.value.DoubleValue
-59.670

@<SCITEGIC>MOL_PROPERTY
W(PB)
SciTegic.value.DoubleValue
-62.157

@<SCITEGIC>MOL_PROPERTY
W(SA)
SciTegic.value.DoubleValue
2.487

@<SCITEGIC>MOL_PROPERTY
Valence
SciTegic.value.DoubleValue
7.785

@<SCITEGIC>MOL_PROPERTY
Coulomb
SciTegic.value.DoubleValue
-0.713

@<SCITEGIC>MOL_PROPERTY
VdW
SciTegic.value.DoubleValue
0.744

@<SCITEGIC>MOL_PROPERTY
VdW6
SciTegic.value.DoubleValue
-8.515

@<SCITEGIC>MOL_PROPERTY
VdW12
SciTegic.value.DoubleValue
9.259

@<SCITEGIC>MOL_PROPERTY
Bond
SciTegic.value.DoubleValue
0.136

@<SCITEGIC>MOL_PROPERTY
Angle
SciTegic.value.DoubleValue
2.433

@<SCITEGIC>MOL_PROPERTY
Pdih
SciTegic.value.DoubleValue
5.215

@<SCITEGIC>MOL_PROPERTY
Idih
SciTegic.value.DoubleValue
0.000

@<SCITEGIC>MOL_PROPERTY
Tether
SciTegic.value.DoubleValue
0.000

@<TRIPOS>MOLECULE
guest-8_confgen4.mol2 : confsearch ligand conformer 725
          25          24           1
SMALL
USER_CHARGES
 
@<TRIPOS>ATOM
       1    C1      23.247119   21.145343   21.679328 C.2        1 MOL1         0.6168
       2    O1      22.866415   21.455954   20.567737 O.co2      1 MOL1        -0.6703
       3    O2      23.741902   21.930078   22.464496 O.co2      1 MOL1        -0.6703
       4    C2      23.114567   19.686608   22.107939 C.3        1 MOL1        -0.1963
       5    H1      24.068020   19.391399   22.561535 H          1 MOL1         0.0750
       6    H2      22.984544   19.068248   21.211526 H          1 MOL1         0.0750
       7    C3      21.961100   19.424535   23.111183 C.3        1 MOL1        -0.1860
       8    H3      22.046156   18.392949   23.475052 H          1 MOL1         0.0752
       9    H4      22.082563   20.080452   23.984349 H          1 MOL1         0.0752
      10    C4      20.564536   19.643325   22.480556 C.3        1 MOL1        -0.1858
      11    H5      20.426472   18.954895   21.635701 H          1 MOL1         0.0752
      12    H6      20.514222   20.658227   22.062918 H          1 MOL1         0.0752
      13    C5      19.398171   19.474207   23.483525 C.3        1 MOL1        -0.1858
      14    H7      19.546585   20.149265   24.337251 H          1 MOL1         0.0752
      15    H8      18.475408   19.799521   22.986687 H          1 MOL1         0.0752
      16    C6      19.223104   18.020901   23.989571 C.3        1 MOL1        -0.1858
      17    H9      20.141995   17.695753   24.493350 H          1 MOL1         0.0752
      18    H10     19.079804   17.345630   23.135118 H          1 MOL1         0.0752
      19    C7      18.049565   17.853678   24.983215 C.3        1 MOL1        -0.1834
      20    H11     18.081063   16.835785   25.395703 H          1 MOL1         0.0752
      21    H12     18.182910   18.536717   25.833496 H          1 MOL1         0.0752
      22    C8      16.663711   18.084704   24.342143 C.3        1 MOL1        -0.2849
      23    H13     16.537228   19.126547   24.022818 H          1 MOL1         0.0764
      24    H14     16.522111   17.436198   23.467786 H          1 MOL1         0.0764
      25    H15     15.866097   17.859818   25.061965 H          1 MOL1         0.0764
@<TRIPOS>BOND
    1     1     2    1
    2     1     3    2
    3     1     4    1
    4     4     5    1
    5     4     6    1
    6     4     7    1
    7     7     8    1
    8     7     9    1
    9     7    10    1
   10    10    11    1
   11    10    12    1
   12    10    13    1
   13    13    14    1
   14    13    15    1
   15    13    16    1
   16    16    17    1
   17    16    18    1
   18    16    19    1
   19    19    20    1
   20    19    21    1
   21    19    22    1
   22    22    23    1
   23    22    24    1
   24    22    25    1
@<TRIPOS>SUBSTRUCTURE
       1 MOL1            1 RESIDUE      1      MOL     
@<SCITEGIC>MOL_PROPERTY
VConf Rank
SciTegic.value.IntegerValue
725

@<SCITEGIC>MOL_PROPERTY
Conf_Id
SciTegic.value.IntegerValue
101

@<SCITEGIC>MOL_PROPERTY
Delta U+W
SciTegic.value.DoubleValue
1.534

@<SCITEGIC>MOL_PROPERTY
U+W
SciTegic.value.DoubleValue
-50.095

@<SCITEGIC>MOL_PROPERTY
Grad RMS
SciTegic.value.DoubleValue
0.000000

@<SCITEGIC>MOL_PROPERTY
U
SciTegic.value.DoubleValue
9.416

@<SCITEGIC>MOL_PROPERTY
W
SciTegic.value.DoubleValue
-59.512

@<SCITEGIC>MOL_PROPERTY
W(PB)
SciTegic.value.DoubleValue
-61.988

@<SCITEGIC>MOL_PROPERTY
W(SA)
SciTegic.value.DoubleValue
2.476

@<SCITEGIC>MOL_PROPERTY
Valence
SciTegic.value.DoubleValue
8.939

@<SCITEGIC>MOL_PROPERTY
Coulomb
SciTegic.value.DoubleValue
-0.615

@<SCITEGIC>MOL_PROPERTY
VdW
SciTegic.value.DoubleValue
1.092

@<SCITEGIC>MOL_PROPERTY
VdW6
SciTegic.value.DoubleValue
-9.710

@<SCITEGIC>MOL_PROPERTY
VdW12
SciTegic.value.DoubleValue
10.802

@<SCITEGIC>MOL_PROPERTY
Bond
SciTegic.value.DoubleValue
0.216

@<SCITEGIC>MOL_PROPERTY
Angle
SciTegic.value.DoubleValue
2.979

@<SCITEGIC>MOL_PROPERTY
Pdih
SciTegic.value.DoubleValue
5.743

@<SCITEGIC>MOL_PROPERTY
Idih
SciTegic.value.DoubleValue
0.000

@<SCITEGIC>MOL_PROPERTY
Tether
SciTegic.value.DoubleValue
0.000

@<TRIPOS>MOLECULE
guest-8_confgen4.mol2 : confsearch ligand conformer 726
          25          24           1
SMALL
USER_CHARGES
 
@<TRIPOS>ATOM
       1    C1      23.181312   21.764695   22.081433 C.2        1 MOL1         0.6168
       2    O1      23.241974   21.724286   20.868410 O.co2      1 MOL1        -0.6703
       3    O2      23.634704   22.673999   22.748050 O.co2      1 MOL1        -0.6703
       4    C2      22.477625   20.622628   22.805778 C.3        1 MOL1        -0.1963
       5    H1      22.957878   20.492797   23.782937 H          1 MOL1         0.0750
       6    H2      22.654103   19.706294   22.231715 H          1 MOL1         0.0750
       7    C3      20.957651   20.873446   22.985564 C.3        1 MOL1        -0.1860
       8    H3      20.818270   21.846408   23.476833 H          1 MOL1         0.0752
       9    H4      20.478837   20.952914   21.999804 H          1 MOL1         0.0752
      10    C4      20.244308   19.788541   23.827486 C.3        1 MOL1        -0.1858
      11    H5      19.217530   20.127229   24.015923 H          1 MOL1         0.0752
      12    H6      20.730727   19.704063   24.808723 H          1 MOL1         0.0752
      13    C5      20.207574   18.401345   23.140291 C.3        1 MOL1        -0.1858
      14    H7      19.720773   18.485574   22.160012 H          1 MOL1         0.0752
      15    H8      21.232832   18.064212   22.943044 H          1 MOL1         0.0752
      16    C6      19.505752   17.309661   23.987656 C.3        1 MOL1        -0.1858
      17    H9      20.058894   17.179237   24.927710 H          1 MOL1         0.0752
      18    H10     19.581971   16.351107   23.456586 H          1 MOL1         0.0752
      19    C7      18.016366   17.577245   24.318701 C.3        1 MOL1        -0.1834
      20    H11     17.637294   16.740536   24.921417 H          1 MOL1         0.0752
      21    H12     17.921939   18.470706   24.949695 H          1 MOL1         0.0752
      22    C8      17.127623   17.728137   23.065182 C.3        1 MOL1        -0.2849
      23    H13     17.225077   16.855107   22.406928 H          1 MOL1         0.0764
      24    H14     16.072009   17.820565   23.351366 H          1 MOL1         0.0764
      25    H15     17.396281   18.624391   22.491919 H          1 MOL1         0.0764
@<TRIPOS>BOND
    1     1     2    1
    2     1     3    2
    3     1     4    1
    4     4     5    1
    5     4     6    1
    6     4     7    1
    7     7     8    1
    8     7     9    1
    9     7    10    1
   10    10    11    1
   11    10    12    1
   12    10    13    1
   13    13    14    1
   14    13    15    1
   15    13    16    1
   16    16    17    1
   17    16    18    1
   18    16    19    1
   19    19    20    1
   20    19    21    1
   21    19    22    1
   22    22    23    1
   23    22    24    1
   24    22    25    1
@<TRIPOS>SUBSTRUCTURE
       1 MOL1            1 RESIDUE      1      MOL     
@<SCITEGIC>MOL_PROPERTY
VConf Rank
SciTegic.value.IntegerValue
726

@<SCITEGIC>MOL_PROPERTY
Conf_Id
SciTegic.value.IntegerValue
75

@<SCITEGIC>MOL_PROPERTY
Delta U+W
SciTegic.value.DoubleValue
1.014

@<SCITEGIC>MOL_PROPERTY
U+W
SciTegic.value.DoubleValue
-50.615

@<SCITEGIC>MOL_PROPERTY
Grad RMS
SciTegic.value.DoubleValue
0.000000

@<SCITEGIC>MOL_PROPERTY
U
SciTegic.value.DoubleValue
8.474

@<SCITEGIC>MOL_PROPERTY
W
SciTegic.value.DoubleValue
-59.089

@<SCITEGIC>MOL_PROPERTY
W(PB)
SciTegic.value.DoubleValue
-61.530

@<SCITEGIC>MOL_PROPERTY
W(SA)
SciTegic.value.DoubleValue
2.441

@<SCITEGIC>MOL_PROPERTY
Valence
SciTegic.value.DoubleValue
9.080

@<SCITEGIC>MOL_PROPERTY
Coulomb
SciTegic.value.DoubleValue
-1.772

@<SCITEGIC>MOL_PROPERTY
VdW
SciTegic.value.DoubleValue
1.165

@<SCITEGIC>MOL_PROPERTY
VdW6
SciTegic.value.DoubleValue
-9.830

@<SCITEGIC>MOL_PROPERTY
VdW12
SciTegic.value.DoubleValue
10.996

@<SCITEGIC>MOL_PROPERTY
Bond
SciTegic.value.DoubleValue
0.240

@<SCITEGIC>MOL_PROPERTY
Angle
SciTegic.value.DoubleValue
3.225

@<SCITEGIC>MOL_PROPERTY
Pdih
SciTegic.value.DoubleValue
5.615

@<SCITEGIC>MOL_PROPERTY
Idih
SciTegic.value.DoubleValue
0.001

@<SCITEGIC>MOL_PROPERTY
Tether
SciTegic.value.DoubleValue
0.000

@<TRIPOS>MOLECULE
guest-8_confgen4.mol2 : confsearch ligand conformer 727
          25          24           1
SMALL
USER_CHARGES
 
@<TRIPOS>ATOM
       1    C1      17.481889   21.146996   25.974200 C.2        1 MOL1         0.6168
       2    O1      17.786492   22.322936   26.006360 O.co2      1 MOL1        -0.6703
       3    O2      16.368548   20.732568   26.229917 O.co2      1 MOL1        -0.6703
       4    C2      18.550312   20.137517   25.569845 C.3        1 MOL1        -0.1963
       5    H1      18.353305   19.200407   26.104234 H          1 MOL1         0.0750
       6    H2      19.520957   20.511227   25.917401 H          1 MOL1         0.0750
       7    C3      18.590952   19.883810   24.042735 C.3        1 MOL1        -0.1860
       8    H3      17.608496   19.522581   23.708385 H          1 MOL1         0.0752
       9    H4      18.775909   20.833670   23.522072 H          1 MOL1         0.0752
      10    C4      19.681192   18.860028   23.658811 C.3        1 MOL1        -0.1858
      11    H5      19.492561   17.912558   24.181813 H          1 MOL1         0.0752
      12    H6      20.656407   19.221831   24.005610 H          1 MOL1         0.0752
      13    C5      19.713715   18.605598   22.133379 C.3        1 MOL1        -0.1858
      14    H7      18.732313   18.215387   21.830887 H          1 MOL1         0.0752
      15    H8      19.847667   19.551222   21.590543 H          1 MOL1         0.0752
      16    C6      20.800651   17.587718   21.703358 C.3        1 MOL1        -0.1858
      17    H9      20.400518   16.992287   20.871358 H          1 MOL1         0.0752
      18    H10     20.995960   16.873099   22.514535 H          1 MOL1         0.0752
      19    C7      22.128825   18.223938   21.223691 C.3        1 MOL1        -0.1834
      20    H11     22.791085   17.422229   20.868944 H          1 MOL1         0.0752
      21    H12     21.935494   18.869116   20.355585 H          1 MOL1         0.0752
      22    C8      22.870118   19.033542   22.307849 C.3        1 MOL1        -0.2849
      23    H13     23.018940   18.433703   23.215046 H          1 MOL1         0.0764
      24    H14     23.856666   19.348605   21.944237 H          1 MOL1         0.0764
      25    H15     22.312205   19.939477   22.575504 H          1 MOL1         0.0764
@<TRIPOS>BOND
    1     1     2    1
    2     1     3    2
    3     1     4    1
    4     4     5    1
    5     4     6    1
    6     4     7    1
    7     7     8    1
    8     7     9    1
    9     7    10    1
   10    10    11    1
   11    10    12    1
   12    10    13    1
   13    13    14    1
   14    13    15    1
   15    13    16    1
   16    16    17    1
   17    16    18    1
   18    16    19    1
   19    19    20    1
   20    19    21    1
   21    19    22    1
   22    22    23    1
   23    22    24    1
   24    22    25    1
@<TRIPOS>SUBSTRUCTURE
       1 MOL1            1 RESIDUE      1      MOL     
@<SCITEGIC>MOL_PROPERTY
VConf Rank
SciTegic.value.IntegerValue
727

@<SCITEGIC>MOL_PROPERTY
Conf_Id
SciTegic.value.IntegerValue
125

@<SCITEGIC>MOL_PROPERTY
Delta U+W
SciTegic.value.DoubleValue
2.314

@<SCITEGIC>MOL_PROPERTY
U+W
SciTegic.value.DoubleValue
-49.315

@<SCITEGIC>MOL_PROPERTY
Grad RMS
SciTegic.value.DoubleValue
0.000000

@<SCITEGIC>MOL_PROPERTY
U
SciTegic.value.DoubleValue
9.740

@<SCITEGIC>MOL_PROPERTY
W
SciTegic.value.DoubleValue
-59.054

@<SCITEGIC>MOL_PROPERTY
W(PB)
SciTegic.value.DoubleValue
-61.488

@<SCITEGIC>MOL_PROPERTY
W(SA)
SciTegic.value.DoubleValue
2.433

@<SCITEGIC>MOL_PROPERTY
Valence
SciTegic.value.DoubleValue
10.506

@<SCITEGIC>MOL_PROPERTY
Coulomb
SciTegic.value.DoubleValue
-1.761

@<SCITEGIC>MOL_PROPERTY
VdW
SciTegic.value.DoubleValue
0.994

@<SCITEGIC>MOL_PROPERTY
VdW6
SciTegic.value.DoubleValue
-9.209

@<SCITEGIC>MOL_PROPERTY
VdW12
SciTegic.value.DoubleValue
10.203

@<SCITEGIC>MOL_PROPERTY
Bond
SciTegic.value.DoubleValue
0.193

@<SCITEGIC>MOL_PROPERTY
Angle
SciTegic.value.DoubleValue
2.979

@<SCITEGIC>MOL_PROPERTY
Pdih
SciTegic.value.DoubleValue
7.334

@<SCITEGIC>MOL_PROPERTY
Idih
SciTegic.value.DoubleValue
0.001

@<SCITEGIC>MOL_PROPERTY
Tether
SciTegic.value.DoubleValue
0.000

@<TRIPOS>MOLECULE
guest-8_confgen4.mol2 : confsearch ligand conformer 728
          25          24           1
SMALL
USER_CHARGES
 
@<TRIPOS>ATOM
       1    C1      20.176906   15.626207   21.212141 C.2        1 MOL1         0.6168
       2    O1      19.460741   14.867144   21.834735 O.co2      1 MOL1        -0.6703
       3    O2      20.857201   15.284930   20.264792 O.co2      1 MOL1        -0.6703
       4    C2      20.244306   17.082112   21.659151 C.3        1 MOL1        -0.1963
       5    H1      19.258987   17.355190   22.053225 H          1 MOL1         0.0750
       6    H2      20.424108   17.702045   20.772749 H          1 MOL1         0.0750
       7    C3      21.346984   17.332955   22.720481 C.3        1 MOL1        -0.1860
       8    H3      21.130312   16.742241   23.621281 H          1 MOL1         0.0752
       9    H4      22.304098   16.961382   22.328930 H          1 MOL1         0.0752
      10    C4      21.512252   18.823845   23.100068 C.3        1 MOL1        -0.1858
      11    H5      21.738291   19.410211   22.198929 H          1 MOL1         0.0752
      12    H6      22.384917   18.920006   23.760461 H          1 MOL1         0.0752
      13    C5      20.274516   19.418419   23.811185 C.3        1 MOL1        -0.1858
      14    H7      19.412441   19.389118   23.133988 H          1 MOL1         0.0752
      15    H8      20.020933   18.801300   24.683780 H          1 MOL1         0.0752
      16    C6      20.523680   20.875651   24.264611 C.3        1 MOL1        -0.1858
      17    H9      20.731461   21.505176   23.388589 H          1 MOL1         0.0752
      18    H10     21.425793   20.906381   24.890783 H          1 MOL1         0.0752
      19    C7      19.348414   21.479396   25.068390 C.3        1 MOL1        -0.1834
      20    H11     19.141356   20.855042   25.948512 H          1 MOL1         0.0752
      21    H12     19.652132   22.463599   25.450918 H          1 MOL1         0.0752
      22    C8      18.059091   21.646636   24.235167 C.3        1 MOL1        -0.2849
      23    H13     17.651191   20.675428   23.928474 H          1 MOL1         0.0764
      24    H14     17.286822   22.160397   24.822148 H          1 MOL1         0.0764
      25    H15     18.249020   22.241599   23.332364 H          1 MOL1         0.0764
@<TRIPOS>BOND
    1     1     2    1
    2     1     3    2
    3     1     4    1
    4     4     5    1
    5     4     6    1
    6     4     7    1
    7     7     8    1
    8     7     9    1
    9     7    10    1
   10    10    11    1
   11    10    12    1
   12    10    13    1
   13    13    14    1
   14    13    15    1
   15    13    16    1
   16    16    17    1
   17    16    18    1
   18    16    19    1
   19    19    20    1
   20    19    21    1
   21    19    22    1
   22    22    23    1
   23    22    24    1
   24    22    25    1
@<TRIPOS>SUBSTRUCTURE
       1 MOL1            1 RESIDUE      1      MOL     
@<SCITEGIC>MOL_PROPERTY
VConf Rank
SciTegic.value.IntegerValue
728

@<SCITEGIC>MOL_PROPERTY
Conf_Id
SciTegic.value.IntegerValue
4

@<SCITEGIC>MOL_PROPERTY
Delta U+W
SciTegic.value.DoubleValue
0.189

@<SCITEGIC>MOL_PROPERTY
U+W
SciTegic.value.DoubleValue
-51.441

@<SCITEGIC>MOL_PROPERTY
Grad RMS
SciTegic.value.DoubleValue
0.000000

@<SCITEGIC>MOL_PROPERTY
U
SciTegic.value.DoubleValue
7.701

@<SCITEGIC>MOL_PROPERTY
W
SciTegic.value.DoubleValue
-59.141

@<SCITEGIC>MOL_PROPERTY
W(PB)
SciTegic.value.DoubleValue
-61.609

@<SCITEGIC>MOL_PROPERTY
W(SA)
SciTegic.value.DoubleValue
2.467

@<SCITEGIC>MOL_PROPERTY
Valence
SciTegic.value.DoubleValue
8.550

@<SCITEGIC>MOL_PROPERTY
Coulomb
SciTegic.value.DoubleValue
-1.988

@<SCITEGIC>MOL_PROPERTY
VdW
SciTegic.value.DoubleValue
1.139

@<SCITEGIC>MOL_PROPERTY
VdW6
SciTegic.value.DoubleValue
-8.988

@<SCITEGIC>MOL_PROPERTY
VdW12
SciTegic.value.DoubleValue
10.127

@<SCITEGIC>MOL_PROPERTY
Bond
SciTegic.value.DoubleValue
0.191

@<SCITEGIC>MOL_PROPERTY
Angle
SciTegic.value.DoubleValue
2.738

@<SCITEGIC>MOL_PROPERTY
Pdih
SciTegic.value.DoubleValue
5.621

@<SCITEGIC>MOL_PROPERTY
Idih
SciTegic.value.DoubleValue
0.001

@<SCITEGIC>MOL_PROPERTY
Tether
SciTegic.value.DoubleValue
0.000

@<TRIPOS>MOLECULE
guest-8_confgen4.mol2 : confsearch ligand conformer 729
          25          24           1
SMALL
USER_CHARGES
 
@<TRIPOS>ATOM
       1    C1      20.151305   22.067067   20.373105 C.2        1 MOL1         0.6168
       2    O1      19.336297   22.904097   20.707526 O.co2      1 MOL1        -0.6703
       3    O2      20.909374   22.203496   19.433179 O.co2      1 MOL1        -0.6703
       4    C2      20.244161   20.784727   21.192253 C.3        1 MOL1        -0.1963
       5    H1      20.547456   19.973092   20.520229 H          1 MOL1         0.0750
       6    H2      19.237707   20.548131   21.555286 H          1 MOL1         0.0750
       7    C3      21.239810   20.900105   22.375727 C.3        1 MOL1        -0.1860
       8    H3      22.213019   21.230183   21.986677 H          1 MOL1         0.0752
       9    H4      20.899789   21.684424   23.066059 H          1 MOL1         0.0752
      10    C4      21.438839   19.574135   23.147963 C.3        1 MOL1        -0.1858
      11    H5      22.240442   19.717936   23.885299 H          1 MOL1         0.0752
      12    H6      21.788215   18.794690   22.457041 H          1 MOL1         0.0752
      13    C5      20.164316   19.089887   23.877544 C.3        1 MOL1        -0.1858
      14    H7      19.788934   19.889557   24.530369 H          1 MOL1         0.0752
      15    H8      19.378446   18.877999   23.142603 H          1 MOL1         0.0752
      16    C6      20.437229   17.821865   24.719471 C.3        1 MOL1        -0.1858
      17    H9      21.268209   18.022380   25.409478 H          1 MOL1         0.0752
      18    H10     20.768309   17.005924   24.062574 H          1 MOL1         0.0752
      19    C7      19.215311   17.357220   25.545810 C.3        1 MOL1        -0.1834
      20    H11     19.526078   16.530904   26.199915 H          1 MOL1         0.0752
      21    H12     18.884667   18.169342   26.207959 H          1 MOL1         0.0752
      22    C8      18.031866   16.882895   24.674569 C.3        1 MOL1        -0.2849
      23    H13     18.346420   16.091901   23.981392 H          1 MOL1         0.0764
      24    H14     17.228597   16.480010   25.304916 H          1 MOL1         0.0764
      25    H15     17.610269   17.708218   24.087385 H          1 MOL1         0.0764
@<TRIPOS>BOND
    1     1     2    1
    2     1     3    2
    3     1     4    1
    4     4     5    1
    5     4     6    1
    6     4     7    1
    7     7     8    1
    8     7     9    1
    9     7    10    1
   10    10    11    1
   11    10    12    1
   12    10    13    1
   13    13    14    1
   14    13    15    1
   15    13    16    1
   16    16    17    1
   17    16    18    1
   18    16    19    1
   19    19    20    1
   20    19    21    1
   21    19    22    1
   22    22    23    1
   23    22    24    1
   24    22    25    1
@<TRIPOS>SUBSTRUCTURE
       1 MOL1            1 RESIDUE      1      MOL     
@<SCITEGIC>MOL_PROPERTY
VConf Rank
SciTegic.value.IntegerValue
729

@<SCITEGIC>MOL_PROPERTY
Conf_Id
SciTegic.value.IntegerValue
17

@<SCITEGIC>MOL_PROPERTY
Delta U+W
SciTegic.value.DoubleValue
0.219

@<SCITEGIC>MOL_PROPERTY
U+W
SciTegic.value.DoubleValue
-51.411

@<SCITEGIC>MOL_PROPERTY
Grad RMS
SciTegic.value.DoubleValue
0.000000

@<SCITEGIC>MOL_PROPERTY
U
SciTegic.value.DoubleValue
7.701

@<SCITEGIC>MOL_PROPERTY
W
SciTegic.value.DoubleValue
-59.111

@<SCITEGIC>MOL_PROPERTY
W(PB)
SciTegic.value.DoubleValue
-61.599

@<SCITEGIC>MOL_PROPERTY
W(SA)
SciTegic.value.DoubleValue
2.488

@<SCITEGIC>MOL_PROPERTY
Valence
SciTegic.value.DoubleValue
8.550

@<SCITEGIC>MOL_PROPERTY
Coulomb
SciTegic.value.DoubleValue
-1.988

@<SCITEGIC>MOL_PROPERTY
VdW
SciTegic.value.DoubleValue
1.139

@<SCITEGIC>MOL_PROPERTY
VdW6
SciTegic.value.DoubleValue
-8.988

@<SCITEGIC>MOL_PROPERTY
VdW12
SciTegic.value.DoubleValue
10.127

@<SCITEGIC>MOL_PROPERTY
Bond
SciTegic.value.DoubleValue
0.191

@<SCITEGIC>MOL_PROPERTY
Angle
SciTegic.value.DoubleValue
2.738

@<SCITEGIC>MOL_PROPERTY
Pdih
SciTegic.value.DoubleValue
5.621

@<SCITEGIC>MOL_PROPERTY
Idih
SciTegic.value.DoubleValue
0.001

@<SCITEGIC>MOL_PROPERTY
Tether
SciTegic.value.DoubleValue
0.000

@<TRIPOS>MOLECULE
guest-8_confgen4.mol2 : confsearch ligand conformer 730
          25          24           1
SMALL
USER_CHARGES
 
@<TRIPOS>ATOM
       1    C1      17.115469   16.894572   23.831202 C.2        1 MOL1         0.6168
       2    O1      16.910160   16.294976   22.794189 O.co2      1 MOL1        -0.6703
       3    O2      16.313653   17.653164   24.339832 O.co2      1 MOL1        -0.6703
       4    C2      18.444921   16.669153   24.545818 C.3        1 MOL1        -0.1963
       5    H1      18.882315   15.730949   24.183557 H          1 MOL1         0.0750
       6    H2      18.225424   16.526594   25.610470 H          1 MOL1         0.0750
       7    C3      19.455481   17.833178   24.376369 C.3        1 MOL1        -0.1860
       8    H3      18.988624   18.762987   24.727321 H          1 MOL1         0.0752
       9    H4      20.323546   17.649160   25.023567 H          1 MOL1         0.0752
      10    C4      19.933701   17.993546   22.913380 C.3        1 MOL1        -0.1858
      11    H5      19.081644   18.248089   22.267990 H          1 MOL1         0.0752
      12    H6      20.315296   17.027847   22.554690 H          1 MOL1         0.0752
      13    C5      21.045523   19.055640   22.741536 C.3        1 MOL1        -0.1858
      14    H7      21.902198   18.798418   23.379339 H          1 MOL1         0.0752
      15    H8      21.406987   19.015823   21.704898 H          1 MOL1         0.0752
      16    C6      20.575752   20.495200   23.054610 C.3        1 MOL1        -0.1858
      17    H9      20.281350   20.572356   24.109268 H          1 MOL1         0.0752
      18    H10     19.685578   20.729349   22.454895 H          1 MOL1         0.0752
      19    C7      21.680958   21.531985   22.762475 C.3        1 MOL1        -0.1834
      20    H11     22.573618   21.299452   23.359589 H          1 MOL1         0.0752
      21    H12     21.978078   21.469874   21.706404 H          1 MOL1         0.0752
      22    C8      21.212272   22.966585   23.078668 C.3        1 MOL1        -0.2849
      23    H13     20.939059   23.066198   24.137353 H          1 MOL1         0.0764
      24    H14     22.009681   23.690125   22.864928 H          1 MOL1         0.0764
      25    H15     20.337913   23.236711   22.472114 H          1 MOL1         0.0764
@<TRIPOS>BOND
    1     1     2    1
    2     1     3    2
    3     1     4    1
    4     4     5    1
    5     4     6    1
    6     4     7    1
    7     7     8    1
    8     7     9    1
    9     7    10    1
   10    10    11    1
   11    10    12    1
   12    10    13    1
   13    13    14    1
   14    13    15    1
   15    13    16    1
   16    16    17    1
   17    16    18    1
   18    16    19    1
   19    19    20    1
   20    19    21    1
   21    19    22    1
   22    22    23    1
   23    22    24    1
   24    22    25    1
@<TRIPOS>SUBSTRUCTURE
       1 MOL1            1 RESIDUE      1      MOL     
@<SCITEGIC>MOL_PROPERTY
VConf Rank
SciTegic.value.IntegerValue
730

@<SCITEGIC>MOL_PROPERTY
Conf_Id
SciTegic.value.IntegerValue
142

@<SCITEGIC>MOL_PROPERTY
Delta U+W
SciTegic.value.DoubleValue
0.593

@<SCITEGIC>MOL_PROPERTY
U+W
SciTegic.value.DoubleValue
-51.037

@<SCITEGIC>MOL_PROPERTY
Grad RMS
SciTegic.value.DoubleValue
0.000000

@<SCITEGIC>MOL_PROPERTY
U
SciTegic.value.DoubleValue
8.903

@<SCITEGIC>MOL_PROPERTY
W
SciTegic.value.DoubleValue
-59.940

@<SCITEGIC>MOL_PROPERTY
W(PB)
SciTegic.value.DoubleValue
-62.418

@<SCITEGIC>MOL_PROPERTY
W(SA)
SciTegic.value.DoubleValue
2.478

@<SCITEGIC>MOL_PROPERTY
Valence
SciTegic.value.DoubleValue
8.305

@<SCITEGIC>MOL_PROPERTY
Coulomb
SciTegic.value.DoubleValue
-0.223

@<SCITEGIC>MOL_PROPERTY
VdW
SciTegic.value.DoubleValue
0.821

@<SCITEGIC>MOL_PROPERTY
VdW6
SciTegic.value.DoubleValue
-9.236

@<SCITEGIC>MOL_PROPERTY
VdW12
SciTegic.value.DoubleValue
10.057

@<SCITEGIC>MOL_PROPERTY
Bond
SciTegic.value.DoubleValue
0.173

@<SCITEGIC>MOL_PROPERTY
Angle
SciTegic.value.DoubleValue
2.663

@<SCITEGIC>MOL_PROPERTY
Pdih
SciTegic.value.DoubleValue
5.469

@<SCITEGIC>MOL_PROPERTY
Idih
SciTegic.value.DoubleValue
0.001

@<SCITEGIC>MOL_PROPERTY
Tether
SciTegic.value.DoubleValue
0.000

@<TRIPOS>MOLECULE
guest-8_confgen4.mol2 : confsearch ligand conformer 731
          25          24           1
SMALL
USER_CHARGES
 
@<TRIPOS>ATOM
       1    C1      23.346116   20.627564   24.242911 C.2        1 MOL1         0.6168
       2    O1      23.803379   21.714971   24.536194 O.co2      1 MOL1        -0.6703
       3    O2      23.656069   19.594814   24.803636 O.co2      1 MOL1        -0.6703
       4    C2      22.349712   20.554603   23.089311 C.3        1 MOL1        -0.1963
       5    H1      22.252216   19.509214   22.774741 H          1 MOL1         0.0750
       6    H2      22.790480   21.093785   22.242833 H          1 MOL1         0.0750
       7    C3      20.956896   21.159450   23.415434 C.3        1 MOL1        -0.1860
       8    H3      21.083622   22.223221   23.659375 H          1 MOL1         0.0752
       9    H4      20.330167   21.130483   22.514756 H          1 MOL1         0.0752
      10    C4      20.216563   20.467001   24.588918 C.3        1 MOL1        -0.1858
      11    H5      19.251868   20.969324   24.742649 H          1 MOL1         0.0752
      12    H6      20.788280   20.623023   25.514057 H          1 MOL1         0.0752
      13    C5      19.968515   18.948084   24.410901 C.3        1 MOL1        -0.1858
      14    H7      20.928046   18.415526   24.368047 H          1 MOL1         0.0752
      15    H8      19.455197   18.575017   25.307482 H          1 MOL1         0.0752
      16    C6      19.120130   18.601990   23.165458 C.3        1 MOL1        -0.1858
      17    H9      19.653782   18.903700   22.254804 H          1 MOL1         0.0752
      18    H10     18.180804   19.170908   23.191431 H          1 MOL1         0.0752
      19    C7      18.807515   17.092691   23.089795 C.3        1 MOL1        -0.1834
      20    H11     19.745984   16.521549   23.066398 H          1 MOL1         0.0752
      21    H12     18.265976   16.780333   23.993422 H          1 MOL1         0.0752
      22    C8      17.966585   16.748263   21.844043 C.3        1 MOL1        -0.2849
      23    H13     18.498788   17.020953   20.923300 H          1 MOL1         0.0764
      24    H14     17.753683   15.672024   21.806388 H          1 MOL1         0.0764
      25    H15     17.007968   17.283269   21.857208 H          1 MOL1         0.0764
@<TRIPOS>BOND
    1     1     2    1
    2     1     3    2
    3     1     4    1
    4     4     5    1
    5     4     6    1
    6     4     7    1
    7     7     8    1
    8     7     9    1
    9     7    10    1
   10    10    11    1
   11    10    12    1
   12    10    13    1
   13    13    14    1
   14    13    15    1
   15    13    16    1
   16    16    17    1
   17    16    18    1
   18    16    19    1
   19    19    20    1
   20    19    21    1
   21    19    22    1
   22    22    23    1
   23    22    24    1
   24    22    25    1
@<TRIPOS>SUBSTRUCTURE
       1 MOL1            1 RESIDUE      1      MOL     
@<SCITEGIC>MOL_PROPERTY
VConf Rank
SciTegic.value.IntegerValue
731

@<SCITEGIC>MOL_PROPERTY
Conf_Id
SciTegic.value.IntegerValue
135

@<SCITEGIC>MOL_PROPERTY
Delta U+W
SciTegic.value.DoubleValue
1.314

@<SCITEGIC>MOL_PROPERTY
U+W
SciTegic.value.DoubleValue
-50.316

@<SCITEGIC>MOL_PROPERTY
Grad RMS
SciTegic.value.DoubleValue
0.000000

@<SCITEGIC>MOL_PROPERTY
U
SciTegic.value.DoubleValue
9.773

@<SCITEGIC>MOL_PROPERTY
W
SciTegic.value.DoubleValue
-60.088

@<SCITEGIC>MOL_PROPERTY
W(PB)
SciTegic.value.DoubleValue
-62.535

@<SCITEGIC>MOL_PROPERTY
W(SA)
SciTegic.value.DoubleValue
2.447

@<SCITEGIC>MOL_PROPERTY
Valence
SciTegic.value.DoubleValue
8.741

@<SCITEGIC>MOL_PROPERTY
Coulomb
SciTegic.value.DoubleValue
0.479

@<SCITEGIC>MOL_PROPERTY
VdW
SciTegic.value.DoubleValue
0.552

@<SCITEGIC>MOL_PROPERTY
VdW6
SciTegic.value.DoubleValue
-10.627

@<SCITEGIC>MOL_PROPERTY
VdW12
SciTegic.value.DoubleValue
11.179

@<SCITEGIC>MOL_PROPERTY
Bond
SciTegic.value.DoubleValue
0.227

@<SCITEGIC>MOL_PROPERTY
Angle
SciTegic.value.DoubleValue
3.155

@<SCITEGIC>MOL_PROPERTY
Pdih
SciTegic.value.DoubleValue
5.358

@<SCITEGIC>MOL_PROPERTY
Idih
SciTegic.value.DoubleValue
0.001

@<SCITEGIC>MOL_PROPERTY
Tether
SciTegic.value.DoubleValue
0.000

@<TRIPOS>MOLECULE
guest-8_confgen4.mol2 : confsearch ligand conformer 732
          25          24           1
SMALL
USER_CHARGES
 
@<TRIPOS>ATOM
       1    C1      20.113772   23.317636   24.147937 C.2        1 MOL1         0.6168
       2    O1      21.030595   23.922297   23.627781 O.co2      1 MOL1        -0.6703
       3    O2      19.103998   23.852208   24.561892 O.co2      1 MOL1        -0.6703
       4    C2      20.226573   21.801983   24.267319 C.3        1 MOL1        -0.1963
       5    H1      19.687965   21.491372   25.170519 H          1 MOL1         0.0750
       6    H2      21.283906   21.558636   24.418972 H          1 MOL1         0.0750
       7    C3      19.663837   21.059885   23.026977 C.3        1 MOL1        -0.1860
       8    H3      18.635058   21.403360   22.850664 H          1 MOL1         0.0752
       9    H4      20.241270   21.341566   22.135625 H          1 MOL1         0.0752
      10    C4      19.650349   19.519720   23.177458 C.3        1 MOL1        -0.1858
      11    H5      19.097472   19.103409   22.325988 H          1 MOL1         0.0752
      12    H6      19.093994   19.241568   24.082819 H          1 MOL1         0.0752
      13    C5      21.063933   18.891387   23.215396 C.3        1 MOL1        -0.1858
      14    H7      21.591638   19.125047   22.280771 H          1 MOL1         0.0752
      15    H8      21.648266   19.350429   24.022434 H          1 MOL1         0.0752
      16    C6      21.071413   17.358199   23.440668 C.3        1 MOL1        -0.1858
      17    H9      20.629279   17.119552   24.417639 H          1 MOL1         0.0752
      18    H10     22.120764   17.039051   23.502963 H          1 MOL1         0.0752
      19    C7      20.382966   16.533800   22.324152 C.3        1 MOL1        -0.1834
      20    H11     20.417334   17.079164   21.370931 H          1 MOL1         0.0752
      21    H12     20.954489   15.608636   22.166879 H          1 MOL1         0.0752
      22    C8      18.927703   16.143668   22.666601 C.3        1 MOL1        -0.2849
      23    H13     18.296182   17.024639   22.828431 H          1 MOL1         0.0764
      24    H14     18.484714   15.558518   21.850410 H          1 MOL1         0.0764
      25    H15     18.892246   15.530649   23.576564 H          1 MOL1         0.0764
@<TRIPOS>BOND
    1     1     2    1
    2     1     3    2
    3     1     4    1
    4     4     5    1
    5     4     6    1
    6     4     7    1
    7     7     8    1
    8     7     9    1
    9     7    10    1
   10    10    11    1
   11    10    12    1
   12    10    13    1
   13    13    14    1
   14    13    15    1
   15    13    16    1
   16    16    17    1
   17    16    18    1
   18    16    19    1
   19    19    20    1
   20    19    21    1
   21    19    22    1
   22    22    23    1
   23    22    24    1
   24    22    25    1
@<TRIPOS>SUBSTRUCTURE
       1 MOL1            1 RESIDUE      1      MOL     
@<SCITEGIC>MOL_PROPERTY
VConf Rank
SciTegic.value.IntegerValue
732

@<SCITEGIC>MOL_PROPERTY
Conf_Id
SciTegic.value.IntegerValue
19

@<SCITEGIC>MOL_PROPERTY
Delta U+W
SciTegic.value.DoubleValue
3.222

@<SCITEGIC>MOL_PROPERTY
U+W
SciTegic.value.DoubleValue
-48.407

@<SCITEGIC>MOL_PROPERTY
Grad RMS
SciTegic.value.DoubleValue
0.000000

@<SCITEGIC>MOL_PROPERTY
U
SciTegic.value.DoubleValue
10.617

@<SCITEGIC>MOL_PROPERTY
W
SciTegic.value.DoubleValue
-59.025

@<SCITEGIC>MOL_PROPERTY
W(PB)
SciTegic.value.DoubleValue
-61.462

@<SCITEGIC>MOL_PROPERTY
W(SA)
SciTegic.value.DoubleValue
2.437

@<SCITEGIC>MOL_PROPERTY
Valence
SciTegic.value.DoubleValue
11.188

@<SCITEGIC>MOL_PROPERTY
Coulomb
SciTegic.value.DoubleValue
-1.778

@<SCITEGIC>MOL_PROPERTY
VdW
SciTegic.value.DoubleValue
1.208

@<SCITEGIC>MOL_PROPERTY
VdW6
SciTegic.value.DoubleValue
-9.786

@<SCITEGIC>MOL_PROPERTY
VdW12
SciTegic.value.DoubleValue
10.993

@<SCITEGIC>MOL_PROPERTY
Bond
SciTegic.value.DoubleValue
0.241

@<SCITEGIC>MOL_PROPERTY
Angle
SciTegic.value.DoubleValue
3.294

@<SCITEGIC>MOL_PROPERTY
Pdih
SciTegic.value.DoubleValue
7.653

@<SCITEGIC>MOL_PROPERTY
Idih
SciTegic.value.DoubleValue
0.001

@<SCITEGIC>MOL_PROPERTY
Tether
SciTegic.value.DoubleValue
0.000

@<TRIPOS>MOLECULE
guest-8_confgen4.mol2 : confsearch ligand conformer 733
          25          24           1
SMALL
USER_CHARGES
 
@<TRIPOS>ATOM
       1    C1      17.621359   21.804362   21.057975 C.2        1 MOL1         0.6168
       2    O1      16.775372   21.231741   20.399832 O.co2      1 MOL1        -0.6703
       3    O2      17.984180   22.944011   20.842729 O.co2      1 MOL1        -0.6703
       4    C2      18.280762   21.043068   22.202441 C.3        1 MOL1        -0.1963
       5    H1      17.531187   20.365642   22.626004 H          1 MOL1         0.0750
       6    H2      18.545017   21.765908   22.983478 H          1 MOL1         0.0750
       7    C3      19.540132   20.257489   21.752242 C.3        1 MOL1        -0.1860
       8    H3      19.256559   19.503467   21.005033 H          1 MOL1         0.0752
       9    H4      20.223978   20.952944   21.246134 H          1 MOL1         0.0752
      10    C4      20.299725   19.580136   22.918067 C.3        1 MOL1        -0.1858
      11    H5      20.560127   20.331585   23.675757 H          1 MOL1         0.0752
      12    H6      21.245450   19.189781   22.521562 H          1 MOL1         0.0752
      13    C5      19.513180   18.421189   23.575832 C.3        1 MOL1        -0.1858
      14    H7      18.536323   18.786815   23.915749 H          1 MOL1         0.0752
      15    H8      19.308470   17.647004   22.823949 H          1 MOL1         0.0752
      16    C6      20.226634   17.780067   24.792968 C.3        1 MOL1        -0.1858
      17    H9      19.554152   17.014803   25.204075 H          1 MOL1         0.0752
      18    H10     20.352406   18.525156   25.590421 H          1 MOL1         0.0752
      19    C7      21.583351   17.105407   24.469924 C.3        1 MOL1        -0.1834
      20    H11     21.675326   16.192965   25.075144 H          1 MOL1         0.0752
      21    H12     21.607006   16.779175   23.420997 H          1 MOL1         0.0752
      22    C8      22.799121   18.007607   24.778474 C.3        1 MOL1        -0.2849
      23    H13     22.826744   18.273954   25.843076 H          1 MOL1         0.0764
      24    H14     23.734886   17.486426   24.538642 H          1 MOL1         0.0764
      25    H15     22.775201   18.937272   24.198587 H          1 MOL1         0.0764
@<TRIPOS>BOND
    1     1     2    1
    2     1     3    2
    3     1     4    1
    4     4     5    1
    5     4     6    1
    6     4     7    1
    7     7     8    1
    8     7     9    1
    9     7    10    1
   10    10    11    1
   11    10    12    1
   12    10    13    1
   13    13    14    1
   14    13    15    1
   15    13    16    1
   16    16    17    1
   17    16    18    1
   18    16    19    1
   19    19    20    1
   20    19    21    1
   21    19    22    1
   22    22    23    1
   23    22    24    1
   24    22    25    1
@<TRIPOS>SUBSTRUCTURE
       1 MOL1            1 RESIDUE      1      MOL     
@<SCITEGIC>MOL_PROPERTY
VConf Rank
SciTegic.value.IntegerValue
733

@<SCITEGIC>MOL_PROPERTY
Conf_Id
SciTegic.value.IntegerValue
20

@<SCITEGIC>MOL_PROPERTY
Delta U+W
SciTegic.value.DoubleValue
3.224

@<SCITEGIC>MOL_PROPERTY
U+W
SciTegic.value.DoubleValue
-48.406

@<SCITEGIC>MOL_PROPERTY
Grad RMS
SciTegic.value.DoubleValue
0.000000

@<SCITEGIC>MOL_PROPERTY
U
SciTegic.value.DoubleValue
10.617

@<SCITEGIC>MOL_PROPERTY
W
SciTegic.value.DoubleValue
-59.023

@<SCITEGIC>MOL_PROPERTY
W(PB)
SciTegic.value.DoubleValue
-61.467

@<SCITEGIC>MOL_PROPERTY
W(SA)
SciTegic.value.DoubleValue
2.444

@<SCITEGIC>MOL_PROPERTY
Valence
SciTegic.value.DoubleValue
11.188

@<SCITEGIC>MOL_PROPERTY
Coulomb
SciTegic.value.DoubleValue
-1.778

@<SCITEGIC>MOL_PROPERTY
VdW
SciTegic.value.DoubleValue
1.208

@<SCITEGIC>MOL_PROPERTY
VdW6
SciTegic.value.DoubleValue
-9.786

@<SCITEGIC>MOL_PROPERTY
VdW12
SciTegic.value.DoubleValue
10.993

@<SCITEGIC>MOL_PROPERTY
Bond
SciTegic.value.DoubleValue
0.241

@<SCITEGIC>MOL_PROPERTY
Angle
SciTegic.value.DoubleValue
3.294

@<SCITEGIC>MOL_PROPERTY
Pdih
SciTegic.value.DoubleValue
7.653

@<SCITEGIC>MOL_PROPERTY
Idih
SciTegic.value.DoubleValue
0.001

@<SCITEGIC>MOL_PROPERTY
Tether
SciTegic.value.DoubleValue
0.000

@<TRIPOS>MOLECULE
guest-8_confgen4.mol2 : confsearch ligand conformer 734
          25          24           1
SMALL
USER_CHARGES
 
@<TRIPOS>ATOM
       1    C1      18.853722   22.087234   24.685795 C.2        1 MOL1         0.6168
       2    O1      19.142602   22.912660   23.841481 O.co2      1 MOL1        -0.6703
       3    O2      19.480838   21.933406   25.715494 O.co2      1 MOL1        -0.6703
       4    C2      17.598486   21.242753   24.474549 C.3        1 MOL1        -0.1963
       5    H1      16.754629   21.942247   24.465491 H          1 MOL1         0.0750
       6    H2      17.456560   20.591069   25.345154 H          1 MOL1         0.0750
       7    C3      17.575188   20.404967   23.165091 C.3        1 MOL1        -0.1860
       8    H3      16.529793   20.150828   22.943751 H          1 MOL1         0.0752
       9    H4      17.921788   21.018384   22.321775 H          1 MOL1         0.0752
      10    C4      18.379320   19.082544   23.225532 C.3        1 MOL1        -0.1858
      11    H5      18.166855   18.511167   22.311547 H          1 MOL1         0.0752
      12    H6      18.020038   18.469305   24.063201 H          1 MOL1         0.0752
      13    C5      19.907693   19.279159   23.344053 C.3        1 MOL1        -0.1858
      14    H7      20.251196   19.976748   22.567895 H          1 MOL1         0.0752
      15    H8      20.151198   19.731502   24.313638 H          1 MOL1         0.0752
      16    C6      20.667723   17.941549   23.210924 C.3        1 MOL1        -0.1858
      17    H9      20.438061   17.482909   22.239394 H          1 MOL1         0.0752
      18    H10     20.319477   17.243715   23.984735 H          1 MOL1         0.0752
      19    C7      22.193193   18.135244   23.340535 C.3        1 MOL1        -0.1834
      20    H11     22.544866   18.832272   22.567271 H          1 MOL1         0.0752
      21    H12     22.426979   18.592405   24.312107 H          1 MOL1         0.0752
      22    C8      22.949372   16.797996   23.207763 C.3        1 MOL1        -0.2849
      23    H13     22.758131   16.333892   22.231339 H          1 MOL1         0.0764
      24    H14     24.031772   16.954559   23.302430 H          1 MOL1         0.0764
      25    H15     22.639332   16.092211   23.989503 H          1 MOL1         0.0764
@<TRIPOS>BOND
    1     1     2    1
    2     1     3    2
    3     1     4    1
    4     4     5    1
    5     4     6    1
    6     4     7    1
    7     7     8    1
    8     7     9    1
    9     7    10    1
   10    10    11    1
   11    10    12    1
   12    10    13    1
   13    13    14    1
   14    13    15    1
   15    13    16    1
   16    16    17    1
   17    16    18    1
   18    16    19    1
   19    19    20    1
   20    19    21    1
   21    19    22    1
   22    22    23    1
   23    22    24    1
   24    22    25    1
@<TRIPOS>SUBSTRUCTURE
       1 MOL1            1 RESIDUE      1      MOL     
@<SCITEGIC>MOL_PROPERTY
VConf Rank
SciTegic.value.IntegerValue
734

@<SCITEGIC>MOL_PROPERTY
Conf_Id
SciTegic.value.IntegerValue
24

@<SCITEGIC>MOL_PROPERTY
Delta U+W
SciTegic.value.DoubleValue
1.784

@<SCITEGIC>MOL_PROPERTY
U+W
SciTegic.value.DoubleValue
-49.846

@<SCITEGIC>MOL_PROPERTY
Grad RMS
SciTegic.value.DoubleValue
0.000000

@<SCITEGIC>MOL_PROPERTY
U
SciTegic.value.DoubleValue
10.904

@<SCITEGIC>MOL_PROPERTY
W
SciTegic.value.DoubleValue
-60.749

@<SCITEGIC>MOL_PROPERTY
W(PB)
SciTegic.value.DoubleValue
-63.220

@<SCITEGIC>MOL_PROPERTY
W(SA)
SciTegic.value.DoubleValue
2.471

@<SCITEGIC>MOL_PROPERTY
Valence
SciTegic.value.DoubleValue
9.445

@<SCITEGIC>MOL_PROPERTY
Coulomb
SciTegic.value.DoubleValue
0.780

@<SCITEGIC>MOL_PROPERTY
VdW
SciTegic.value.DoubleValue
0.679

@<SCITEGIC>MOL_PROPERTY
VdW6
SciTegic.value.DoubleValue
-10.008

@<SCITEGIC>MOL_PROPERTY
VdW12
SciTegic.value.DoubleValue
10.687

@<SCITEGIC>MOL_PROPERTY
Bond
SciTegic.value.DoubleValue
0.201

@<SCITEGIC>MOL_PROPERTY
Angle
SciTegic.value.DoubleValue
3.198

@<SCITEGIC>MOL_PROPERTY
Pdih
SciTegic.value.DoubleValue
6.039

@<SCITEGIC>MOL_PROPERTY
Idih
SciTegic.value.DoubleValue
0.006

@<SCITEGIC>MOL_PROPERTY
Tether
SciTegic.value.DoubleValue
0.000

@<TRIPOS>MOLECULE
guest-8_confgen4.mol2 : confsearch ligand conformer 735
          25          24           1
SMALL
USER_CHARGES
 
@<TRIPOS>ATOM
       1    C1      22.135055   19.673497   25.993677 C.2        1 MOL1         0.6168
       2    O1      22.830875   18.688577   26.146680 O.co2      1 MOL1        -0.6703
       3    O2      22.514162   20.681472   25.430221 O.co2      1 MOL1        -0.6703
       4    C2      20.732539   19.671458   26.598934 C.3        1 MOL1        -0.1963
       5    H1      20.263483   20.645606   26.415065 H          1 MOL1         0.0750
       6    H2      20.865359   19.587051   27.683693 H          1 MOL1         0.0750
       7    C3      19.801800   18.525066   26.112506 C.3        1 MOL1        -0.1860
       8    H3      20.352174   17.573957   26.103886 H          1 MOL1         0.0752
       9    H4      18.999437   18.402672   26.852549 H          1 MOL1         0.0752
      10    C4      19.138757   18.767326   24.733822 C.3        1 MOL1        -0.1858
      11    H5      18.580583   19.713320   24.753116 H          1 MOL1         0.0752
      12    H6      18.396587   17.974570   24.567378 H          1 MOL1         0.0752
      13    C5      20.131693   18.774409   23.549485 C.3        1 MOL1        -0.1858
      14    H7      20.800699   19.640483   23.629203 H          1 MOL1         0.0752
      15    H8      20.762110   17.875588   23.591217 H          1 MOL1         0.0752
      16    C6      19.399889   18.830772   22.190863 C.3        1 MOL1        -0.1858
      17    H9      18.766325   19.727537   22.152917 H          1 MOL1         0.0752
      18    H10     18.732677   17.963135   22.095987 H          1 MOL1         0.0752
      19    C7      20.390735   18.849473   21.007965 C.3        1 MOL1        -0.1834
      20    H11     21.058838   19.717253   21.098518 H          1 MOL1         0.0752
      21    H12     21.025607   17.953263   21.042666 H          1 MOL1         0.0752
      22    C8      19.657258   18.906169   19.652803 C.3        1 MOL1        -0.2849
      23    H13     19.038566   19.810100   19.578620 H          1 MOL1         0.0764
      24    H14     20.376679   18.918911   18.823747 H          1 MOL1         0.0764
      25    H15     19.005120   18.032637   19.522301 H          1 MOL1         0.0764
@<TRIPOS>BOND
    1     1     2    1
    2     1     3    2
    3     1     4    1
    4     4     5    1
    5     4     6    1
    6     4     7    1
    7     7     8    1
    8     7     9    1
    9     7    10    1
   10    10    11    1
   11    10    12    1
   12    10    13    1
   13    13    14    1
   14    13    15    1
   15    13    16    1
   16    16    17    1
   17    16    18    1
   18    16    19    1
   19    19    20    1
   20    19    21    1
   21    19    22    1
   22    22    23    1
   23    22    24    1
   24    22    25    1
@<TRIPOS>SUBSTRUCTURE
       1 MOL1            1 RESIDUE      1      MOL     
@<SCITEGIC>MOL_PROPERTY
VConf Rank
SciTegic.value.IntegerValue
735

@<SCITEGIC>MOL_PROPERTY
Conf_Id
SciTegic.value.IntegerValue
9

@<SCITEGIC>MOL_PROPERTY
Delta U+W
SciTegic.value.DoubleValue
1.764

@<SCITEGIC>MOL_PROPERTY
U+W
SciTegic.value.DoubleValue
-49.865

@<SCITEGIC>MOL_PROPERTY
Grad RMS
SciTegic.value.DoubleValue
0.000000

@<SCITEGIC>MOL_PROPERTY
U
SciTegic.value.DoubleValue
10.902

@<SCITEGIC>MOL_PROPERTY
W
SciTegic.value.DoubleValue
-60.768

@<SCITEGIC>MOL_PROPERTY
W(PB)
SciTegic.value.DoubleValue
-63.223

@<SCITEGIC>MOL_PROPERTY
W(SA)
SciTegic.value.DoubleValue
2.456

@<SCITEGIC>MOL_PROPERTY
Valence
SciTegic.value.DoubleValue
9.445

@<SCITEGIC>MOL_PROPERTY
Coulomb
SciTegic.value.DoubleValue
0.778

@<SCITEGIC>MOL_PROPERTY
VdW
SciTegic.value.DoubleValue
0.679

@<SCITEGIC>MOL_PROPERTY
VdW6
SciTegic.value.DoubleValue
-10.007

@<SCITEGIC>MOL_PROPERTY
VdW12
SciTegic.value.DoubleValue
10.687

@<SCITEGIC>MOL_PROPERTY
Bond
SciTegic.value.DoubleValue
0.201

@<SCITEGIC>MOL_PROPERTY
Angle
SciTegic.value.DoubleValue
3.198

@<SCITEGIC>MOL_PROPERTY
Pdih
SciTegic.value.DoubleValue
6.040

@<SCITEGIC>MOL_PROPERTY
Idih
SciTegic.value.DoubleValue
0.006

@<SCITEGIC>MOL_PROPERTY
Tether
SciTegic.value.DoubleValue
0.000

@<TRIPOS>MOLECULE
guest-8_confgen4.mol2 : confsearch ligand conformer 736
          25          24           1
SMALL
USER_CHARGES
 
@<TRIPOS>ATOM
       1    C1      23.582674   18.433927   22.911479 C.2        1 MOL1         0.6168
       2    O1      23.577886   18.968531   21.820250 O.co2      1 MOL1        -0.6703
       3    O2      24.596502   18.168433   23.526713 O.co2      1 MOL1        -0.6703
       4    C2      22.242155   18.095913   23.553718 C.3        1 MOL1        -0.1963
       5    H1      22.373220   17.185010   24.149818 H          1 MOL1         0.0750
       6    H2      21.538524   17.853495   22.751471 H          1 MOL1         0.0750
       7    C3      21.699374   19.242543   24.447180 C.3        1 MOL1        -0.1860
       8    H3      22.440646   19.436363   25.234826 H          1 MOL1         0.0752
       9    H4      21.622184   20.171472   23.865330 H          1 MOL1         0.0752
      10    C4      20.340413   18.914194   25.116286 C.3        1 MOL1        -0.1858
      11    H5      20.330656   19.375671   26.113212 H          1 MOL1         0.0752
      12    H6      20.250910   17.832755   25.287514 H          1 MOL1         0.0752
      13    C5      19.099447   19.437284   24.350035 C.3        1 MOL1        -0.1858
      14    H7      18.206544   19.223657   24.953059 H          1 MOL1         0.0752
      15    H8      19.163401   20.530318   24.268723 H          1 MOL1         0.0752
      16    C6      18.914433   18.819900   22.943700 C.3        1 MOL1        -0.1858
      17    H9      19.006094   17.727736   23.015617 H          1 MOL1         0.0752
      18    H10     19.717227   19.164167   22.278682 H          1 MOL1         0.0752
      19    C7      17.549019   19.158917   22.301636 C.3        1 MOL1        -0.1834
      20    H11     17.456738   18.606654   21.356303 H          1 MOL1         0.0752
      21    H12     16.735696   18.803372   22.949191 H          1 MOL1         0.0752
      22    C8      17.366205   20.665798   22.018415 C.3        1 MOL1        -0.2849
      23    H13     18.182513   21.049534   21.392689 H          1 MOL1         0.0764
      24    H14     16.421351   20.845455   21.489430 H          1 MOL1         0.0764
      25    H15     17.342539   21.247510   22.948427 H          1 MOL1         0.0764
@<TRIPOS>BOND
    1     1     2    1
    2     1     3    2
    3     1     4    1
    4     4     5    1
    5     4     6    1
    6     4     7    1
    7     7     8    1
    8     7     9    1
    9     7    10    1
   10    10    11    1
   11    10    12    1
   12    10    13    1
   13    13    14    1
   14    13    15    1
   15    13    16    1
   16    16    17    1
   17    16    18    1
   18    16    19    1
   19    19    20    1
   20    19    21    1
   21    19    22    1
   22    22    23    1
   23    22    24    1
   24    22    25    1
@<TRIPOS>SUBSTRUCTURE
       1 MOL1            1 RESIDUE      1      MOL     
@<SCITEGIC>MOL_PROPERTY
VConf Rank
SciTegic.value.IntegerValue
736

@<SCITEGIC>MOL_PROPERTY
Conf_Id
SciTegic.value.IntegerValue
89

@<SCITEGIC>MOL_PROPERTY
Delta U+W
SciTegic.value.DoubleValue
2.903

@<SCITEGIC>MOL_PROPERTY
U+W
SciTegic.value.DoubleValue
-48.726

@<SCITEGIC>MOL_PROPERTY
Grad RMS
SciTegic.value.DoubleValue
0.000000

@<SCITEGIC>MOL_PROPERTY
U
SciTegic.value.DoubleValue
10.996

@<SCITEGIC>MOL_PROPERTY
W
SciTegic.value.DoubleValue
-59.723

@<SCITEGIC>MOL_PROPERTY
W(PB)
SciTegic.value.DoubleValue
-62.151

@<SCITEGIC>MOL_PROPERTY
W(SA)
SciTegic.value.DoubleValue
2.428

@<SCITEGIC>MOL_PROPERTY
Valence
SciTegic.value.DoubleValue
10.985

@<SCITEGIC>MOL_PROPERTY
Coulomb
SciTegic.value.DoubleValue
-0.995

@<SCITEGIC>MOL_PROPERTY
VdW
SciTegic.value.DoubleValue
1.006

@<SCITEGIC>MOL_PROPERTY
VdW6
SciTegic.value.DoubleValue
-10.062

@<SCITEGIC>MOL_PROPERTY
VdW12
SciTegic.value.DoubleValue
11.069

@<SCITEGIC>MOL_PROPERTY
Bond
SciTegic.value.DoubleValue
0.238

@<SCITEGIC>MOL_PROPERTY
Angle
SciTegic.value.DoubleValue
3.202

@<SCITEGIC>MOL_PROPERTY
Pdih
SciTegic.value.DoubleValue
7.544

@<SCITEGIC>MOL_PROPERTY
Idih
SciTegic.value.DoubleValue
0.001

@<SCITEGIC>MOL_PROPERTY
Tether
SciTegic.value.DoubleValue
0.000

@<TRIPOS>MOLECULE
guest-8_confgen4.mol2 : confsearch ligand conformer 737
          25          24           1
SMALL
USER_CHARGES
 
@<TRIPOS>ATOM
       1    C1      18.758543   19.092221   20.275626 C.2        1 MOL1         0.6168
       2    O1      19.776382   19.328008   19.654605 O.co2      1 MOL1        -0.6703
       3    O2      18.129323   18.058193   20.163929 O.co2      1 MOL1        -0.6703
       4    C2      18.208326   20.180288   21.195746 C.3        1 MOL1        -0.1963
       5    H1      17.243214   20.481525   20.772316 H          1 MOL1         0.0750
       6    H2      18.862629   21.058723   21.140865 H          1 MOL1         0.0750
       7    C3      17.999721   19.754794   22.676630 C.3        1 MOL1        -0.1860
       8    H3      17.272504   20.444069   23.126629 H          1 MOL1         0.0752
       9    H4      17.537354   18.758826   22.719495 H          1 MOL1         0.0752
      10    C4      19.278513   19.784875   23.550541 C.3        1 MOL1        -0.1858
      11    H5      18.971782   19.634909   24.593108 H          1 MOL1         0.0752
      12    H6      19.734803   20.782932   23.503245 H          1 MOL1         0.0752
      13    C5      20.328833   18.714229   23.167230 C.3        1 MOL1        -0.1858
      14    H7      19.861486   17.720159   23.153769 H          1 MOL1         0.0752
      15    H8      20.684129   18.905618   22.147439 H          1 MOL1         0.0752
      16    C6      21.563072   18.696969   24.100896 C.3        1 MOL1        -0.1858
      17    H9      22.010278   19.699657   24.138984 H          1 MOL1         0.0752
      18    H10     22.321276   18.036160   23.658903 H          1 MOL1         0.0752
      19    C7      21.251078   18.207914   25.533699 C.3        1 MOL1        -0.1834
      20    H11     20.556844   18.899019   26.028818 H          1 MOL1         0.0752
      21    H12     20.753462   17.229276   25.490882 H          1 MOL1         0.0752
      22    C8      22.532952   18.093310   26.383264 C.3        1 MOL1        -0.2849
      23    H13     23.037459   19.064964   26.465281 H          1 MOL1         0.0764
      24    H14     22.294992   17.748213   27.397825 H          1 MOL1         0.0764
      25    H15     23.236939   17.377739   25.938626 H          1 MOL1         0.0764
@<TRIPOS>BOND
    1     1     2    1
    2     1     3    2
    3     1     4    1
    4     4     5    1
    5     4     6    1
    6     4     7    1
    7     7     8    1
    8     7     9    1
    9     7    10    1
   10    10    11    1
   11    10    12    1
   12    10    13    1
   13    13    14    1
   14    13    15    1
   15    13    16    1
   16    16    17    1
   17    16    18    1
   18    16    19    1
   19    19    20    1
   20    19    21    1
   21    19    22    1
   22    22    23    1
   23    22    24    1
   24    22    25    1
@<TRIPOS>SUBSTRUCTURE
       1 MOL1            1 RESIDUE      1      MOL     
@<SCITEGIC>MOL_PROPERTY
VConf Rank
SciTegic.value.IntegerValue
737

@<SCITEGIC>MOL_PROPERTY
Conf_Id
SciTegic.value.IntegerValue
114

@<SCITEGIC>MOL_PROPERTY
Delta U+W
SciTegic.value.DoubleValue
2.758

@<SCITEGIC>MOL_PROPERTY
U+W
SciTegic.value.DoubleValue
-48.871

@<SCITEGIC>MOL_PROPERTY
Grad RMS
SciTegic.value.DoubleValue
0.000000

@<SCITEGIC>MOL_PROPERTY
U
SciTegic.value.DoubleValue
11.422

@<SCITEGIC>MOL_PROPERTY
W
SciTegic.value.DoubleValue
-60.293

@<SCITEGIC>MOL_PROPERTY
W(PB)
SciTegic.value.DoubleValue
-62.719

@<SCITEGIC>MOL_PROPERTY
W(SA)
SciTegic.value.DoubleValue
2.425

@<SCITEGIC>MOL_PROPERTY
Valence
SciTegic.value.DoubleValue
10.135

@<SCITEGIC>MOL_PROPERTY
Coulomb
SciTegic.value.DoubleValue
0.369

@<SCITEGIC>MOL_PROPERTY
VdW
SciTegic.value.DoubleValue
0.918

@<SCITEGIC>MOL_PROPERTY
VdW6
SciTegic.value.DoubleValue
-10.482

@<SCITEGIC>MOL_PROPERTY
VdW12
SciTegic.value.DoubleValue
11.400

@<SCITEGIC>MOL_PROPERTY
Bond
SciTegic.value.DoubleValue
0.245

@<SCITEGIC>MOL_PROPERTY
Angle
SciTegic.value.DoubleValue
3.539

@<SCITEGIC>MOL_PROPERTY
Pdih
SciTegic.value.DoubleValue
6.346

@<SCITEGIC>MOL_PROPERTY
Idih
SciTegic.value.DoubleValue
0.006

@<SCITEGIC>MOL_PROPERTY
Tether
SciTegic.value.DoubleValue
0.000

@<TRIPOS>MOLECULE
guest-8_confgen4.mol2 : confsearch ligand conformer 738
          25          24           1
SMALL
USER_CHARGES
 
@<TRIPOS>ATOM
       1    C1      22.707689   19.243385   26.283897 C.2        1 MOL1         0.6168
       2    O1      23.208469   18.137620   26.343597 O.co2      1 MOL1        -0.6703
       3    O2      23.339035   20.256407   26.055232 O.co2      1 MOL1        -0.6703
       4    C2      21.207007   19.371852   26.529658 C.3        1 MOL1        -0.1963
       5    H1      21.056831   20.219282   27.208839 H          1 MOL1         0.0750
       6    H2      20.861085   18.475782   27.058970 H          1 MOL1         0.0750
       7    C3      20.374419   19.588029   25.239293 C.3        1 MOL1        -0.1860
       8    H3      19.333126   19.798651   25.517852 H          1 MOL1         0.0752
       9    H4      20.750949   20.478679   24.719395 H          1 MOL1         0.0752
      10    C4      20.413266   18.360435   24.297613 C.3        1 MOL1        -0.1858
      11    H5      20.122497   17.466757   24.866504 H          1 MOL1         0.0752
      12    H6      21.441947   18.185857   23.953172 H          1 MOL1         0.0752
      13    C5      19.474695   18.488694   23.073964 C.3        1 MOL1        -0.1858
      14    H7      19.461621   17.522145   22.554543 H          1 MOL1         0.0752
      15    H8      18.447113   18.672600   23.415690 H          1 MOL1         0.0752
      16    C6      19.902837   19.598741   22.082484 C.3        1 MOL1        -0.1858
      17    H9      20.931789   19.416282   21.743888 H          1 MOL1         0.0752
      18    H10     19.912067   20.566626   22.599374 H          1 MOL1         0.0752
      19    C7      18.968457   19.720913   20.855925 C.3        1 MOL1        -0.1834
      20    H11     17.936182   19.891947   21.191249 H          1 MOL1         0.0752
      21    H12     19.258747   20.610850   20.280613 H          1 MOL1         0.0752
      22    C8      19.015731   18.491511   19.922520 C.3        1 MOL1        -0.2849
      23    H13     18.411816   18.669444   19.023337 H          1 MOL1         0.0764
      24    H14     20.044330   18.280665   19.602143 H          1 MOL1         0.0764
      25    H15     18.618108   17.596368   20.416505 H          1 MOL1         0.0764
@<TRIPOS>BOND
    1     1     2    1
    2     1     3    2
    3     1     4    1
    4     4     5    1
    5     4     6    1
    6     4     7    1
    7     7     8    1
    8     7     9    1
    9     7    10    1
   10    10    11    1
   11    10    12    1
   12    10    13    1
   13    13    14    1
   14    13    15    1
   15    13    16    1
   16    16    17    1
   17    16    18    1
   18    16    19    1
   19    19    20    1
   20    19    21    1
   21    19    22    1
   22    22    23    1
   23    22    24    1
   24    22    25    1
@<TRIPOS>SUBSTRUCTURE
       1 MOL1            1 RESIDUE      1      MOL     
@<SCITEGIC>MOL_PROPERTY
VConf Rank
SciTegic.value.IntegerValue
738

@<SCITEGIC>MOL_PROPERTY
Conf_Id
SciTegic.value.IntegerValue
87

@<SCITEGIC>MOL_PROPERTY
Delta U+W
SciTegic.value.DoubleValue
1.453

@<SCITEGIC>MOL_PROPERTY
U+W
SciTegic.value.DoubleValue
-50.176

@<SCITEGIC>MOL_PROPERTY
Grad RMS
SciTegic.value.DoubleValue
0.000000

@<SCITEGIC>MOL_PROPERTY
U
SciTegic.value.DoubleValue
9.763

@<SCITEGIC>MOL_PROPERTY
W
SciTegic.value.DoubleValue
-59.940

@<SCITEGIC>MOL_PROPERTY
W(PB)
SciTegic.value.DoubleValue
-62.392

@<SCITEGIC>MOL_PROPERTY
W(SA)
SciTegic.value.DoubleValue
2.452

@<SCITEGIC>MOL_PROPERTY
Valence
SciTegic.value.DoubleValue
8.883

@<SCITEGIC>MOL_PROPERTY
Coulomb
SciTegic.value.DoubleValue
-0.122

@<SCITEGIC>MOL_PROPERTY
VdW
SciTegic.value.DoubleValue
1.003

@<SCITEGIC>MOL_PROPERTY
VdW6
SciTegic.value.DoubleValue
-9.782

@<SCITEGIC>MOL_PROPERTY
VdW12
SciTegic.value.DoubleValue
10.785

@<SCITEGIC>MOL_PROPERTY
Bond
SciTegic.value.DoubleValue
0.212

@<SCITEGIC>MOL_PROPERTY
Angle
SciTegic.value.DoubleValue
2.940

@<SCITEGIC>MOL_PROPERTY
Pdih
SciTegic.value.DoubleValue
5.730

@<SCITEGIC>MOL_PROPERTY
Idih
SciTegic.value.DoubleValue
0.001

@<SCITEGIC>MOL_PROPERTY
Tether
SciTegic.value.DoubleValue
0.000

@<TRIPOS>MOLECULE
guest-8_confgen4.mol2 : confsearch ligand conformer 739
          25          24           1
SMALL
USER_CHARGES
 
@<TRIPOS>ATOM
       1    C1      16.219977   18.184037   23.101156 C.2        1 MOL1         0.6168
       2    O1      16.195114   17.455095   22.129195 O.co2      1 MOL1        -0.6703
       3    O2      15.467368   18.069162   24.048323 O.co2      1 MOL1        -0.6703
       4    C2      17.265412   19.292860   23.142939 C.3        1 MOL1        -0.1963
       5    H1      16.840102   20.141425   23.692057 H          1 MOL1         0.0750
       6    H2      17.446572   19.629285   22.115041 H          1 MOL1         0.0750
       7    C3      18.593861   18.842354   23.798846 C.3        1 MOL1        -0.1860
       8    H3      18.395703   18.500444   24.824016 H          1 MOL1         0.0752
       9    H4      18.989338   17.980965   23.244416 H          1 MOL1         0.0752
      10    C4      19.637876   19.982586   23.821863 C.3        1 MOL1        -0.1858
      11    H5      19.199421   20.858549   24.318923 H          1 MOL1         0.0752
      12    H6      19.866614   20.297888   22.795379 H          1 MOL1         0.0752
      13    C5      20.946020   19.605987   24.561640 C.3        1 MOL1        -0.1858
      14    H7      21.605464   20.483473   24.584674 H          1 MOL1         0.0752
      15    H8      20.708415   19.385841   25.611188 H          1 MOL1         0.0752
      16    C6      21.720501   18.400282   23.966430 C.3        1 MOL1        -0.1858
      17    H9      21.124261   17.487171   24.092888 H          1 MOL1         0.0752
      18    H10     22.631902   18.243187   24.559016 H          1 MOL1         0.0752
      19    C7      22.113712   18.540339   22.475155 C.3        1 MOL1        -0.1834
      20    H11     22.630269   17.622904   22.161486 H          1 MOL1         0.0752
      21    H12     21.212423   18.609613   21.851687 H          1 MOL1         0.0752
      22    C8      23.034033   19.748669   22.197685 C.3        1 MOL1        -0.2849
      23    H13     23.935004   19.707955   22.823408 H          1 MOL1         0.0764
      24    H14     23.351297   19.756910   21.146970 H          1 MOL1         0.0764
      25    H15     22.518350   20.696395   22.397265 H          1 MOL1         0.0764
@<TRIPOS>BOND
    1     1     2    1
    2     1     3    2
    3     1     4    1
    4     4     5    1
    5     4     6    1
    6     4     7    1
    7     7     8    1
    8     7     9    1
    9     7    10    1
   10    10    11    1
   11    10    12    1
   12    10    13    1
   13    13    14    1
   14    13    15    1
   15    13    16    1
   16    16    17    1
   17    16    18    1
   18    16    19    1
   19    19    20    1
   20    19    21    1
   21    19    22    1
   22    22    23    1
   23    22    24    1
   24    22    25    1
@<TRIPOS>SUBSTRUCTURE
       1 MOL1            1 RESIDUE      1      MOL     
@<SCITEGIC>MOL_PROPERTY
VConf Rank
SciTegic.value.IntegerValue
739

@<SCITEGIC>MOL_PROPERTY
Conf_Id
SciTegic.value.IntegerValue
29

@<SCITEGIC>MOL_PROPERTY
Delta U+W
SciTegic.value.DoubleValue
0.850

@<SCITEGIC>MOL_PROPERTY
U+W
SciTegic.value.DoubleValue
-50.780

@<SCITEGIC>MOL_PROPERTY
Grad RMS
SciTegic.value.DoubleValue
0.000000

@<SCITEGIC>MOL_PROPERTY
U
SciTegic.value.DoubleValue
8.646

@<SCITEGIC>MOL_PROPERTY
W
SciTegic.value.DoubleValue
-59.426

@<SCITEGIC>MOL_PROPERTY
W(PB)
SciTegic.value.DoubleValue
-61.868

@<SCITEGIC>MOL_PROPERTY
W(SA)
SciTegic.value.DoubleValue
2.442

@<SCITEGIC>MOL_PROPERTY
Valence
SciTegic.value.DoubleValue
8.924

@<SCITEGIC>MOL_PROPERTY
Coulomb
SciTegic.value.DoubleValue
-1.171

@<SCITEGIC>MOL_PROPERTY
VdW
SciTegic.value.DoubleValue
0.894

@<SCITEGIC>MOL_PROPERTY
VdW6
SciTegic.value.DoubleValue
-10.223

@<SCITEGIC>MOL_PROPERTY
VdW12
SciTegic.value.DoubleValue
11.117

@<SCITEGIC>MOL_PROPERTY
Bond
SciTegic.value.DoubleValue
0.231

@<SCITEGIC>MOL_PROPERTY
Angle
SciTegic.value.DoubleValue
3.232

@<SCITEGIC>MOL_PROPERTY
Pdih
SciTegic.value.DoubleValue
5.461

@<SCITEGIC>MOL_PROPERTY
Idih
SciTegic.value.DoubleValue
0.001

@<SCITEGIC>MOL_PROPERTY
Tether
SciTegic.value.DoubleValue
0.000

@<TRIPOS>MOLECULE
guest-8_confgen4.mol2 : confsearch ligand conformer 740
          25          24           1
SMALL
USER_CHARGES
 
@<TRIPOS>ATOM
       1    C1      21.105618   22.941396   22.815060 C.2        1 MOL1         0.6168
       2    O1      20.372619   23.296930   21.913399 O.co2      1 MOL1        -0.6703
       3    O2      22.232474   23.367485   22.974386 O.co2      1 MOL1        -0.6703
       4    C2      20.589864   21.888403   23.789419 C.3        1 MOL1        -0.1963
       5    H1      19.506032   22.020481   23.891575 H          1 MOL1         0.0750
       6    H2      21.035047   22.086310   24.771827 H          1 MOL1         0.0750
       7    C3      20.910910   20.442467   23.337583 C.3        1 MOL1        -0.1860
       8    H3      20.472525   20.275147   22.344806 H          1 MOL1         0.0752
       9    H4      21.998426   20.327552   23.231528 H          1 MOL1         0.0752
      10    C4      20.370861   19.395328   24.338823 C.3        1 MOL1        -0.1858
      11    H5      19.279120   19.482778   24.415383 H          1 MOL1         0.0752
      12    H6      20.765270   19.620600   25.338981 H          1 MOL1         0.0752
      13    C5      20.759163   17.939539   23.977939 C.3        1 MOL1        -0.1858
      14    H7      21.853624   17.849265   23.999779 H          1 MOL1         0.0752
      15    H8      20.390552   17.268820   24.765113 H          1 MOL1         0.0752
      16    C6      20.249006   17.439571   22.600407 C.3        1 MOL1        -0.1858
      17    H9      20.567508   16.396854   22.467032 H          1 MOL1         0.0752
      18    H10     20.746141   18.005315   21.801623 H          1 MOL1         0.0752
      19    C7      18.716344   17.522616   22.395023 C.3        1 MOL1        -0.1834
      20    H11     18.385878   18.569031   22.435574 H          1 MOL1         0.0752
      21    H12     18.478908   17.168102   21.382675 H          1 MOL1         0.0752
      22    C8      17.917581   16.683436   23.415705 C.3        1 MOL1        -0.2849
      23    H13     18.042021   17.071158   24.434592 H          1 MOL1         0.0764
      24    H14     16.846166   16.707668   23.178613 H          1 MOL1         0.0764
      25    H15     18.243764   15.635397   23.403375 H          1 MOL1         0.0764
@<TRIPOS>BOND
    1     1     2    1
    2     1     3    2
    3     1     4    1
    4     4     5    1
    5     4     6    1
    6     4     7    1
    7     7     8    1
    8     7     9    1
    9     7    10    1
   10    10    11    1
   11    10    12    1
   12    10    13    1
   13    13    14    1
   14    13    15    1
   15    13    16    1
   16    16    17    1
   17    16    18    1
   18    16    19    1
   19    19    20    1
   20    19    21    1
   21    19    22    1
   22    22    23    1
   23    22    24    1
   24    22    25    1
@<TRIPOS>SUBSTRUCTURE
       1 MOL1            1 RESIDUE      1      MOL     
@<SCITEGIC>MOL_PROPERTY
VConf Rank
SciTegic.value.IntegerValue
740

@<SCITEGIC>MOL_PROPERTY
Conf_Id
SciTegic.value.IntegerValue
30

@<SCITEGIC>MOL_PROPERTY
Delta U+W
SciTegic.value.DoubleValue
0.843

@<SCITEGIC>MOL_PROPERTY
U+W
SciTegic.value.DoubleValue
-50.787

@<SCITEGIC>MOL_PROPERTY
Grad RMS
SciTegic.value.DoubleValue
0.000000

@<SCITEGIC>MOL_PROPERTY
U
SciTegic.value.DoubleValue
8.647

@<SCITEGIC>MOL_PROPERTY
W
SciTegic.value.DoubleValue
-59.434

@<SCITEGIC>MOL_PROPERTY
W(PB)
SciTegic.value.DoubleValue
-61.861

@<SCITEGIC>MOL_PROPERTY
W(SA)
SciTegic.value.DoubleValue
2.428

@<SCITEGIC>MOL_PROPERTY
Valence
SciTegic.value.DoubleValue
8.924

@<SCITEGIC>MOL_PROPERTY
Coulomb
SciTegic.value.DoubleValue
-1.170

@<SCITEGIC>MOL_PROPERTY
VdW
SciTegic.value.DoubleValue
0.894

@<SCITEGIC>MOL_PROPERTY
VdW6
SciTegic.value.DoubleValue
-10.224

@<SCITEGIC>MOL_PROPERTY
VdW12
SciTegic.value.DoubleValue
11.118

@<SCITEGIC>MOL_PROPERTY
Bond
SciTegic.value.DoubleValue
0.231

@<SCITEGIC>MOL_PROPERTY
Angle
SciTegic.value.DoubleValue
3.232

@<SCITEGIC>MOL_PROPERTY
Pdih
SciTegic.value.DoubleValue
5.460

@<SCITEGIC>MOL_PROPERTY
Idih
SciTegic.value.DoubleValue
0.000

@<SCITEGIC>MOL_PROPERTY
Tether
SciTegic.value.DoubleValue
0.000

@<TRIPOS>MOLECULE
guest-8_confgen4.mol2 : confsearch ligand conformer 741
          25          24           1
SMALL
USER_CHARGES
 
@<TRIPOS>ATOM
       1    C1      22.415684   23.036242   21.815340 C.2        1 MOL1         0.6168
       2    O1      21.656098   23.278580   20.897243 O.co2      1 MOL1        -0.6703
       3    O2      23.378584   23.728088   22.080466 O.co2      1 MOL1        -0.6703
       4    C2      22.174169   21.809244   22.695990 C.3        1 MOL1        -0.1963
       5    H1      22.081211   22.162087   23.729802 H          1 MOL1         0.0750
       6    H2      23.077390   21.189715   22.648219 H          1 MOL1         0.0750
       7    C3      20.933042   20.957355   22.318753 C.3        1 MOL1        -0.1860
       8    H3      20.032665   21.585780   22.362446 H          1 MOL1         0.0752
       9    H4      21.029760   20.612473   21.279904 H          1 MOL1         0.0752
      10    C4      20.764227   19.741837   23.256123 C.3        1 MOL1        -0.1858
      11    H5      20.667786   20.089021   24.294053 H          1 MOL1         0.0752
      12    H6      21.665493   19.115097   23.210818 H          1 MOL1         0.0752
      13    C5      19.529052   18.895866   22.879079 C.3        1 MOL1        -0.1858
      14    H7      18.627620   19.522345   22.924331 H          1 MOL1         0.0752
      15    H8      19.625234   18.548499   21.841202 H          1 MOL1         0.0752
      16    C6      19.359668   17.680343   23.815950 C.3        1 MOL1        -0.1858
      17    H9      19.263414   18.027487   24.853890 H          1 MOL1         0.0752
      18    H10     20.260957   17.053660   23.770776 H          1 MOL1         0.0752
      19    C7      18.125045   16.834695   23.439194 C.3        1 MOL1        -0.1834
      20    H11     17.221144   17.457868   23.485104 H          1 MOL1         0.0752
      21    H12     18.218677   16.484042   22.402003 H          1 MOL1         0.0752
      22    C8      17.959370   15.621969   24.376984 C.3        1 MOL1        -0.2849
      23    H13     17.831908   15.945260   25.418441 H          1 MOL1         0.0764
      24    H14     17.077417   15.032347   24.094864 H          1 MOL1         0.0764
      25    H15     18.836934   14.964095   24.327177 H          1 MOL1         0.0764
@<TRIPOS>BOND
    1     1     2    1
    2     1     3    2
    3     1     4    1
    4     4     5    1
    5     4     6    1
    6     4     7    1
    7     7     8    1
    8     7     9    1
    9     7    10    1
   10    10    11    1
   11    10    12    1
   12    10    13    1
   13    13    14    1
   14    13    15    1
   15    13    16    1
   16    16    17    1
   17    16    18    1
   18    16    19    1
   19    19    20    1
   20    19    21    1
   21    19    22    1
   22    22    23    1
   23    22    24    1
   24    22    25    1
@<TRIPOS>SUBSTRUCTURE
       1 MOL1            1 RESIDUE      1      MOL     
@<SCITEGIC>MOL_PROPERTY
VConf Rank
SciTegic.value.IntegerValue
741

@<SCITEGIC>MOL_PROPERTY
Conf_Id
SciTegic.value.IntegerValue
0

@<SCITEGIC>MOL_PROPERTY
Delta U+W
SciTegic.value.DoubleValue
0.000

@<SCITEGIC>MOL_PROPERTY
U+W
SciTegic.value.DoubleValue
-51.629

@<SCITEGIC>MOL_PROPERTY
Grad RMS
SciTegic.value.DoubleValue
0.000000

@<SCITEGIC>MOL_PROPERTY
U
SciTegic.value.DoubleValue
6.586

@<SCITEGIC>MOL_PROPERTY
W
SciTegic.value.DoubleValue
-58.216

@<SCITEGIC>MOL_PROPERTY
W(PB)
SciTegic.value.DoubleValue
-60.757

@<SCITEGIC>MOL_PROPERTY
W(SA)
SciTegic.value.DoubleValue
2.541

@<SCITEGIC>MOL_PROPERTY
Valence
SciTegic.value.DoubleValue
8.027

@<SCITEGIC>MOL_PROPERTY
Coulomb
SciTegic.value.DoubleValue
-2.892

@<SCITEGIC>MOL_PROPERTY
VdW
SciTegic.value.DoubleValue
1.451

@<SCITEGIC>MOL_PROPERTY
VdW6
SciTegic.value.DoubleValue
-7.931

@<SCITEGIC>MOL_PROPERTY
VdW12
SciTegic.value.DoubleValue
9.383

@<SCITEGIC>MOL_PROPERTY
Bond
SciTegic.value.DoubleValue
0.149

@<SCITEGIC>MOL_PROPERTY
Angle
SciTegic.value.DoubleValue
2.726

@<SCITEGIC>MOL_PROPERTY
Pdih
SciTegic.value.DoubleValue
5.152

@<SCITEGIC>MOL_PROPERTY
Idih
SciTegic.value.DoubleValue
0.000

@<SCITEGIC>MOL_PROPERTY
Tether
SciTegic.value.DoubleValue
0.000

@<TRIPOS>MOLECULE
guest-8_confgen4.mol2 : confsearch ligand conformer 742
          25          24           1
SMALL
USER_CHARGES
 
@<TRIPOS>ATOM
       1    C1      19.745949   21.475974   27.174510 C.2        1 MOL1         0.6168
       2    O1      19.583338   22.673755   27.050023 O.co2      1 MOL1        -0.6703
       3    O2      19.281305   20.824731   28.089174 O.co2      1 MOL1        -0.6703
       4    C2      20.558940   20.745784   26.111519 C.3        1 MOL1        -0.1963
       5    H1      21.078347   19.909517   26.594716 H          1 MOL1         0.0750
       6    H2      21.327756   21.433254   25.738811 H          1 MOL1         0.0750
       7    C3      19.689390   20.229387   24.938813 C.3        1 MOL1        -0.1860
       8    H3      18.916743   19.553122   25.330319 H          1 MOL1         0.0752
       9    H4      19.166029   21.076818   24.474542 H          1 MOL1         0.0752
      10    C4      20.534908   19.494334   23.876355 C.3        1 MOL1        -0.1858
      11    H5      21.057606   18.648516   24.343857 H          1 MOL1         0.0752
      12    H6      21.307130   20.172598   23.488010 H          1 MOL1         0.0752
      13    C5      19.665440   18.980897   22.708503 C.3        1 MOL1        -0.1858
      14    H7      18.893200   18.302563   23.096591 H          1 MOL1         0.0752
      15    H8      19.142675   19.826550   22.240859 H          1 MOL1         0.0752
      16    C6      20.510290   18.245786   21.645620 C.3        1 MOL1        -0.1858
      17    H9      21.033115   17.399993   22.112935 H          1 MOL1         0.0752
      18    H10     21.282631   18.923878   21.257321 H          1 MOL1         0.0752
      19    C7      19.641376   17.732571   20.478162 C.3        1 MOL1        -0.1834
      20    H11     18.868692   17.052368   20.862572 H          1 MOL1         0.0752
      21    H12     19.118233   18.576234   20.006948 H          1 MOL1         0.0752
      22    C8      20.488634   16.999126   19.419004 C.3        1 MOL1        -0.2849
      23    H13     19.855269   16.641242   18.596900 H          1 MOL1         0.0764
      24    H14     21.250225   17.666253   18.994367 H          1 MOL1         0.0764
      25    H15     20.998802   16.130921   19.856436 H          1 MOL1         0.0764
@<TRIPOS>BOND
    1     1     2    1
    2     1     3    2
    3     1     4    1
    4     4     5    1
    5     4     6    1
    6     4     7    1
    7     7     8    1
    8     7     9    1
    9     7    10    1
   10    10    11    1
   11    10    12    1
   12    10    13    1
   13    13    14    1
   14    13    15    1
   15    13    16    1
   16    16    17    1
   17    16    18    1
   18    16    19    1
   19    19    20    1
   20    19    21    1
   21    19    22    1
   22    22    23    1
   23    22    24    1
   24    22    25    1
@<TRIPOS>SUBSTRUCTURE
       1 MOL1            1 RESIDUE      1      MOL     
@<SCITEGIC>MOL_PROPERTY
VConf Rank
SciTegic.value.IntegerValue
742

@<SCITEGIC>MOL_PROPERTY
Conf_Id
SciTegic.value.IntegerValue
27

@<SCITEGIC>MOL_PROPERTY
Delta U+W
SciTegic.value.DoubleValue
-1.297

@<SCITEGIC>MOL_PROPERTY
U+W
SciTegic.value.DoubleValue
-52.926

@<SCITEGIC>MOL_PROPERTY
Grad RMS
SciTegic.value.DoubleValue
0.000000

@<SCITEGIC>MOL_PROPERTY
U
SciTegic.value.DoubleValue
5.617

@<SCITEGIC>MOL_PROPERTY
W
SciTegic.value.DoubleValue
-58.543

@<SCITEGIC>MOL_PROPERTY
W(PB)
SciTegic.value.DoubleValue
-61.065

@<SCITEGIC>MOL_PROPERTY
W(SA)
SciTegic.value.DoubleValue
2.522

@<SCITEGIC>MOL_PROPERTY
Valence
SciTegic.value.DoubleValue
7.531

@<SCITEGIC>MOL_PROPERTY
Coulomb
SciTegic.value.DoubleValue
-2.818

@<SCITEGIC>MOL_PROPERTY
VdW
SciTegic.value.DoubleValue
0.904

@<SCITEGIC>MOL_PROPERTY
VdW6
SciTegic.value.DoubleValue
-7.640

@<SCITEGIC>MOL_PROPERTY
VdW12
SciTegic.value.DoubleValue
8.544

@<SCITEGIC>MOL_PROPERTY
Bond
SciTegic.value.DoubleValue
0.115

@<SCITEGIC>MOL_PROPERTY
Angle
SciTegic.value.DoubleValue
2.271

@<SCITEGIC>MOL_PROPERTY
Pdih
SciTegic.value.DoubleValue
5.144

@<SCITEGIC>MOL_PROPERTY
Idih
SciTegic.value.DoubleValue
0.001

@<SCITEGIC>MOL_PROPERTY
Tether
SciTegic.value.DoubleValue
0.000

@<TRIPOS>MOLECULE
guest-8_confgen4.mol2 : confsearch ligand conformer 743
          25          24           1
SMALL
USER_CHARGES
 
@<TRIPOS>ATOM
       1    C1      22.955892   20.654703   20.825566 C.2        1 MOL1         0.6168
       2    O1      23.791842   19.853922   20.455414 O.co2      1 MOL1        -0.6703
       3    O2      22.133065   21.158418   20.086519 O.co2      1 MOL1        -0.6703
       4    C2      22.951906   21.061348   22.296479 C.3        1 MOL1        -0.1963
       5    H1      22.402183   22.005002   22.397320 H          1 MOL1         0.0750
       6    H2      23.990139   21.266632   22.582689 H          1 MOL1         0.0750
       7    C3      22.355038   19.989556   23.245138 C.3        1 MOL1        -0.1860
       8    H3      22.897856   19.043285   23.112495 H          1 MOL1         0.0752
       9    H4      22.517278   20.303948   24.285034 H          1 MOL1         0.0752
      10    C4      20.844442   19.763664   23.010958 C.3        1 MOL1        -0.1858
      11    H5      20.675599   19.431836   21.977128 H          1 MOL1         0.0752
      12    H6      20.308089   20.714898   23.131388 H          1 MOL1         0.0752
      13    C5      20.264814   18.716923   23.986661 C.3        1 MOL1        -0.1858
      14    H7      20.801755   17.766082   23.865483 H          1 MOL1         0.0752
      15    H8      20.429821   19.048105   25.021132 H          1 MOL1         0.0752
      16    C6      18.755625   18.490072   23.752682 C.3        1 MOL1        -0.1858
      17    H9      18.590444   18.158940   22.718180 H          1 MOL1         0.0752
      18    H10     18.218531   19.440874   23.873461 H          1 MOL1         0.0752
      19    C7      18.175911   17.443504   24.727360 C.3        1 MOL1        -0.1834
      20    H11     18.709678   16.490444   24.607980 H          1 MOL1         0.0752
      21    H12     18.337670   17.772414   25.763280 H          1 MOL1         0.0752
      22    C8      16.668808   17.219802   24.490283 C.3        1 MOL1        -0.2849
      23    H13     16.480816   16.859786   23.470261 H          1 MOL1         0.0764
      24    H14     16.273455   16.473295   25.191356 H          1 MOL1         0.0764
      25    H15     16.105988   18.151421   24.634209 H          1 MOL1         0.0764
@<TRIPOS>BOND
    1     1     2    1
    2     1     3    2
    3     1     4    1
    4     4     5    1
    5     4     6    1
    6     4     7    1
    7     7     8    1
    8     7     9    1
    9     7    10    1
   10    10    11    1
   11    10    12    1
   12    10    13    1
   13    13    14    1
   14    13    15    1
   15    13    16    1
   16    16    17    1
   17    16    18    1
   18    16    19    1
   19    19    20    1
   20    19    21    1
   21    19    22    1
   22    22    23    1
   23    22    24    1
   24    22    25    1
@<TRIPOS>SUBSTRUCTURE
       1 MOL1            1 RESIDUE      1      MOL     
@<SCITEGIC>MOL_PROPERTY
VConf Rank
SciTegic.value.IntegerValue
743

@<SCITEGIC>MOL_PROPERTY
Conf_Id
SciTegic.value.IntegerValue
37

@<SCITEGIC>MOL_PROPERTY
Delta U+W
SciTegic.value.DoubleValue
-0.230

@<SCITEGIC>MOL_PROPERTY
U+W
SciTegic.value.DoubleValue
-51.860

@<SCITEGIC>MOL_PROPERTY
Grad RMS
SciTegic.value.DoubleValue
0.000000

@<SCITEGIC>MOL_PROPERTY
U
SciTegic.value.DoubleValue
7.816

@<SCITEGIC>MOL_PROPERTY
W
SciTegic.value.DoubleValue
-59.675

@<SCITEGIC>MOL_PROPERTY
W(PB)
SciTegic.value.DoubleValue
-62.180

@<SCITEGIC>MOL_PROPERTY
W(SA)
SciTegic.value.DoubleValue
2.505

@<SCITEGIC>MOL_PROPERTY
Valence
SciTegic.value.DoubleValue
7.785

@<SCITEGIC>MOL_PROPERTY
Coulomb
SciTegic.value.DoubleValue
-0.713

@<SCITEGIC>MOL_PROPERTY
VdW
SciTegic.value.DoubleValue
0.744

@<SCITEGIC>MOL_PROPERTY
VdW6
SciTegic.value.DoubleValue
-8.514

@<SCITEGIC>MOL_PROPERTY
VdW12
SciTegic.value.DoubleValue
9.259

@<SCITEGIC>MOL_PROPERTY
Bond
SciTegic.value.DoubleValue
0.136

@<SCITEGIC>MOL_PROPERTY
Angle
SciTegic.value.DoubleValue
2.433

@<SCITEGIC>MOL_PROPERTY
Pdih
SciTegic.value.DoubleValue
5.216

@<SCITEGIC>MOL_PROPERTY
Idih
SciTegic.value.DoubleValue
0.000

@<SCITEGIC>MOL_PROPERTY
Tether
SciTegic.value.DoubleValue
0.000

@<TRIPOS>MOLECULE
guest-8_confgen4.mol2 : confsearch ligand conformer 744
          25          24           1
SMALL
USER_CHARGES
 
@<TRIPOS>ATOM
       1    C1      16.617051   20.952080   24.831372 C.2        1 MOL1         0.6168
       2    O1      15.987962   21.603139   24.020544 O.co2      1 MOL1        -0.6703
       3    O2      17.161953   21.434729   25.804560 O.co2      1 MOL1        -0.6703
       4    C2      16.712989   19.443362   24.622720 C.3        1 MOL1        -0.1963
       5    H1      15.707804   19.081980   24.375761 H          1 MOL1         0.0750
       6    H2      16.993806   18.975538   25.574102 H          1 MOL1         0.0750
       7    C3      17.703661   19.023192   23.506041 C.3        1 MOL1        -0.1860
       8    H3      17.606890   17.943018   23.331664 H          1 MOL1         0.0752
       9    H4      17.425812   19.521311   22.566706 H          1 MOL1         0.0752
      10    C4      19.171512   19.352788   23.858957 C.3        1 MOL1        -0.1858
      11    H5      19.440209   18.863573   24.805263 H          1 MOL1         0.0752
      12    H6      19.280137   20.434611   24.017960 H          1 MOL1         0.0752
      13    C5      20.142650   18.897624   22.748395 C.3        1 MOL1        -0.1858
      14    H7      20.037876   17.815559   22.589672 H          1 MOL1         0.0752
      15    H8      19.873238   19.387434   21.802567 H          1 MOL1         0.0752
      16    C6      21.609465   19.227268   23.100024 C.3        1 MOL1        -0.1858
      17    H9      21.878997   18.737785   24.045984 H          1 MOL1         0.0752
      18    H10     21.714386   20.309336   23.258916 H          1 MOL1         0.0752
      19    C7      22.580482   18.773053   21.989988 C.3        1 MOL1        -0.1834
      20    H11     22.479549   17.690667   21.829578 H          1 MOL1         0.0752
      21    H12     22.314986   19.262315   21.042561 H          1 MOL1         0.0752
      22    C8      24.044042   19.104071   22.344985 C.3        1 MOL1        -0.2849
      23    H13     24.346430   18.601532   23.273107 H          1 MOL1         0.0764
      24    H14     24.720173   18.774526   21.545405 H          1 MOL1         0.0764
      25    H15     24.180595   20.185023   22.480236 H          1 MOL1         0.0764
@<TRIPOS>BOND
    1     1     2    1
    2     1     3    2
    3     1     4    1
    4     4     5    1
    5     4     6    1
    6     4     7    1
    7     7     8    1
    8     7     9    1
    9     7    10    1
   10    10    11    1
   11    10    12    1
   12    10    13    1
   13    13    14    1
   14    13    15    1
   15    13    16    1
   16    16    17    1
   17    16    18    1
   18    16    19    1
   19    19    20    1
   20    19    21    1
   21    19    22    1
   22    22    23    1
   23    22    24    1
   24    22    25    1
@<TRIPOS>SUBSTRUCTURE
       1 MOL1            1 RESIDUE      1      MOL     
@<SCITEGIC>MOL_PROPERTY
VConf Rank
SciTegic.value.IntegerValue
744

@<SCITEGIC>MOL_PROPERTY
Conf_Id
SciTegic.value.IntegerValue
54

@<SCITEGIC>MOL_PROPERTY
Delta U+W
SciTegic.value.DoubleValue
-0.224

@<SCITEGIC>MOL_PROPERTY
U+W
SciTegic.value.DoubleValue
-51.854

@<SCITEGIC>MOL_PROPERTY
Grad RMS
SciTegic.value.DoubleValue
0.000000

@<SCITEGIC>MOL_PROPERTY
U
SciTegic.value.DoubleValue
7.816

@<SCITEGIC>MOL_PROPERTY
W
SciTegic.value.DoubleValue
-59.670

@<SCITEGIC>MOL_PROPERTY
W(PB)
SciTegic.value.DoubleValue
-62.157

@<SCITEGIC>MOL_PROPERTY
W(SA)
SciTegic.value.DoubleValue
2.487

@<SCITEGIC>MOL_PROPERTY
Valence
SciTegic.value.DoubleValue
7.785

@<SCITEGIC>MOL_PROPERTY
Coulomb
SciTegic.value.DoubleValue
-0.713

@<SCITEGIC>MOL_PROPERTY
VdW
SciTegic.value.DoubleValue
0.744

@<SCITEGIC>MOL_PROPERTY
VdW6
SciTegic.value.DoubleValue
-8.515

@<SCITEGIC>MOL_PROPERTY
VdW12
SciTegic.value.DoubleValue
9.259

@<SCITEGIC>MOL_PROPERTY
Bond
SciTegic.value.DoubleValue
0.136

@<SCITEGIC>MOL_PROPERTY
Angle
SciTegic.value.DoubleValue
2.433

@<SCITEGIC>MOL_PROPERTY
Pdih
SciTegic.value.DoubleValue
5.215

@<SCITEGIC>MOL_PROPERTY
Idih
SciTegic.value.DoubleValue
0.000

@<SCITEGIC>MOL_PROPERTY
Tether
SciTegic.value.DoubleValue
0.000

@<TRIPOS>MOLECULE
guest-8_confgen4.mol2 : confsearch ligand conformer 745
          25          24           1
SMALL
USER_CHARGES
 
@<TRIPOS>ATOM
       1    C1      20.706229   22.531916   21.193969 C.2        1 MOL1         0.6168
       2    O1      19.699101   22.654397   20.524834 O.co2      1 MOL1        -0.6703
       3    O2      21.170280   23.421430   21.879921 O.co2      1 MOL1        -0.6703
       4    C2      21.440411   21.194434   21.157868 C.3        1 MOL1        -0.1963
       5    H1      22.506995   21.410657   21.025143 H          1 MOL1         0.0750
       6    H2      21.115830   20.640219   20.268867 H          1 MOL1         0.0750
       7    C3      21.242118   20.329599   22.430034 C.3        1 MOL1        -0.1860
       8    H3      21.925436   19.472855   22.376461 H          1 MOL1         0.0752
       9    H4      21.532414   20.912668   23.314996 H          1 MOL1         0.0752
      10    C4      19.785979   19.828376   22.586192 C.3        1 MOL1        -0.1858
      11    H5      19.512140   19.207595   21.722235 H          1 MOL1         0.0752
      12    H6      19.106044   20.691230   22.573981 H          1 MOL1         0.0752
      13    C5      19.539806   19.036519   23.892836 C.3        1 MOL1        -0.1858
      14    H7      19.831536   19.650753   24.755499 H          1 MOL1         0.0752
      15    H8      18.460050   18.863894   23.985017 H          1 MOL1         0.0752
      16    C6      20.282295   17.678178   23.942345 C.3        1 MOL1        -0.1858
      17    H9      21.362881   17.848628   23.857764 H          1 MOL1         0.0752
      18    H10     19.994016   17.066426   23.076740 H          1 MOL1         0.0752
      19    C7      20.025041   16.884694   25.244915 C.3        1 MOL1        -0.1834
      20    H11     20.689608   16.009844   25.260192 H          1 MOL1         0.0752
      21    H12     20.300559   17.498175   26.113841 H          1 MOL1         0.0752
      22    C8      18.566100   16.399948   25.391370 C.3        1 MOL1        -0.2849
      23    H13     17.872156   17.242074   25.503926 H          1 MOL1         0.0764
      24    H14     18.257319   15.812925   24.516630 H          1 MOL1         0.0764
      25    H15     18.461023   15.763302   26.279371 H          1 MOL1         0.0764
@<TRIPOS>BOND
    1     1     2    1
    2     1     3    2
    3     1     4    1
    4     4     5    1
    5     4     6    1
    6     4     7    1
    7     7     8    1
    8     7     9    1
    9     7    10    1
   10    10    11    1
   11    10    12    1
   12    10    13    1
   13    13    14    1
   14    13    15    1
   15    13    16    1
   16    16    17    1
   17    16    18    1
   18    16    19    1
   19    19    20    1
   20    19    21    1
   21    19    22    1
   22    22    23    1
   23    22    24    1
   24    22    25    1
@<TRIPOS>SUBSTRUCTURE
       1 MOL1            1 RESIDUE      1      MOL     
@<SCITEGIC>MOL_PROPERTY
VConf Rank
SciTegic.value.IntegerValue
745

@<SCITEGIC>MOL_PROPERTY
Conf_Id
SciTegic.value.IntegerValue
101

@<SCITEGIC>MOL_PROPERTY
Delta U+W
SciTegic.value.DoubleValue
1.534

@<SCITEGIC>MOL_PROPERTY
U+W
SciTegic.value.DoubleValue
-50.095

@<SCITEGIC>MOL_PROPERTY
Grad RMS
SciTegic.value.DoubleValue
0.000000

@<SCITEGIC>MOL_PROPERTY
U
SciTegic.value.DoubleValue
9.416

@<SCITEGIC>MOL_PROPERTY
W
SciTegic.value.DoubleValue
-59.512

@<SCITEGIC>MOL_PROPERTY
W(PB)
SciTegic.value.DoubleValue
-61.988

@<SCITEGIC>MOL_PROPERTY
W(SA)
SciTegic.value.DoubleValue
2.476

@<SCITEGIC>MOL_PROPERTY
Valence
SciTegic.value.DoubleValue
8.939

@<SCITEGIC>MOL_PROPERTY
Coulomb
SciTegic.value.DoubleValue
-0.615

@<SCITEGIC>MOL_PROPERTY
VdW
SciTegic.value.DoubleValue
1.092

@<SCITEGIC>MOL_PROPERTY
VdW6
SciTegic.value.DoubleValue
-9.710

@<SCITEGIC>MOL_PROPERTY
VdW12
SciTegic.value.DoubleValue
10.802

@<SCITEGIC>MOL_PROPERTY
Bond
SciTegic.value.DoubleValue
0.216

@<SCITEGIC>MOL_PROPERTY
Angle
SciTegic.value.DoubleValue
2.979

@<SCITEGIC>MOL_PROPERTY
Pdih
SciTegic.value.DoubleValue
5.743

@<SCITEGIC>MOL_PROPERTY
Idih
SciTegic.value.DoubleValue
0.000

@<SCITEGIC>MOL_PROPERTY
Tether
SciTegic.value.DoubleValue
0.000

@<TRIPOS>MOLECULE
guest-8_confgen4.mol2 : confsearch ligand conformer 746
          25          24           1
SMALL
USER_CHARGES
 
@<TRIPOS>ATOM
       1    C1      23.175605   16.363233   23.101978 C.2        1 MOL1         0.6168
       2    O1      23.842901   16.609641   22.116718 O.co2      1 MOL1        -0.6703
       3    O2      23.580104   15.708147   24.042201 O.co2      1 MOL1        -0.6703
       4    C2      21.760494   16.925947   23.172561 C.3        1 MOL1        -0.1963
       5    H1      21.144297   16.224915   23.748056 H          1 MOL1         0.0750
       6    H2      21.361013   16.949387   22.152646 H          1 MOL1         0.0750
       7    C3      21.708055   18.336618   23.815066 C.3        1 MOL1        -0.1860
       8    H3      22.204747   18.294846   24.794340 H          1 MOL1         0.0752
       9    H4      22.288330   19.041195   23.203386 H          1 MOL1         0.0752
      10    C4      20.271217   18.876149   24.012834 C.3        1 MOL1        -0.1858
      11    H5      20.335219   19.802995   24.597086 H          1 MOL1         0.0752
      12    H6      19.690222   18.165626   24.616297 H          1 MOL1         0.0752
      13    C5      19.531680   19.160031   22.682271 C.3        1 MOL1        -0.1858
      14    H7      20.111886   19.870698   22.079502 H          1 MOL1         0.0752
      15    H8      19.473832   18.236768   22.092392 H          1 MOL1         0.0752
      16    C6      18.087375   19.687441   22.877665 C.3        1 MOL1        -0.1858
      17    H9      17.499296   18.925239   23.406709 H          1 MOL1         0.0752
      18    H10     17.618795   19.799413   21.890464 H          1 MOL1         0.0752
      19    C7      17.965130   21.029853   23.640848 C.3        1 MOL1        -0.1834
      20    H11     16.900963   21.292197   23.716790 H          1 MOL1         0.0752
      21    H12     18.321718   20.914144   24.672739 H          1 MOL1         0.0752
      22    C8      18.715284   22.193618   22.957576 C.3        1 MOL1        -0.2849
      23    H13     18.391227   22.312075   21.915494 H          1 MOL1         0.0764
      24    H14     18.520016   23.137578   23.482529 H          1 MOL1         0.0764
      25    H15     19.799896   22.027368   22.965015 H          1 MOL1         0.0764
@<TRIPOS>BOND
    1     1     2    1
    2     1     3    2
    3     1     4    1
    4     4     5    1
    5     4     6    1
    6     4     7    1
    7     7     8    1
    8     7     9    1
    9     7    10    1
   10    10    11    1
   11    10    12    1
   12    10    13    1
   13    13    14    1
   14    13    15    1
   15    13    16    1
   16    16    17    1
   17    16    18    1
   18    16    19    1
   19    19    20    1
   20    19    21    1
   21    19    22    1
   22    22    23    1
   23    22    24    1
   24    22    25    1
@<TRIPOS>SUBSTRUCTURE
       1 MOL1            1 RESIDUE      1      MOL     
@<SCITEGIC>MOL_PROPERTY
VConf Rank
SciTegic.value.IntegerValue
746

@<SCITEGIC>MOL_PROPERTY
Conf_Id
SciTegic.value.IntegerValue
75

@<SCITEGIC>MOL_PROPERTY
Delta U+W
SciTegic.value.DoubleValue
1.014

@<SCITEGIC>MOL_PROPERTY
U+W
SciTegic.value.DoubleValue
-50.615

@<SCITEGIC>MOL_PROPERTY
Grad RMS
SciTegic.value.DoubleValue
0.000000

@<SCITEGIC>MOL_PROPERTY
U
SciTegic.value.DoubleValue
8.474

@<SCITEGIC>MOL_PROPERTY
W
SciTegic.value.DoubleValue
-59.089

@<SCITEGIC>MOL_PROPERTY
W(PB)
SciTegic.value.DoubleValue
-61.530

@<SCITEGIC>MOL_PROPERTY
W(SA)
SciTegic.value.DoubleValue
2.441

@<SCITEGIC>MOL_PROPERTY
Valence
SciTegic.value.DoubleValue
9.080

@<SCITEGIC>MOL_PROPERTY
Coulomb
SciTegic.value.DoubleValue
-1.772

@<SCITEGIC>MOL_PROPERTY
VdW
SciTegic.value.DoubleValue
1.165

@<SCITEGIC>MOL_PROPERTY
VdW6
SciTegic.value.DoubleValue
-9.830

@<SCITEGIC>MOL_PROPERTY
VdW12
SciTegic.value.DoubleValue
10.996

@<SCITEGIC>MOL_PROPERTY
Bond
SciTegic.value.DoubleValue
0.240

@<SCITEGIC>MOL_PROPERTY
Angle
SciTegic.value.DoubleValue
3.225

@<SCITEGIC>MOL_PROPERTY
Pdih
SciTegic.value.DoubleValue
5.615

@<SCITEGIC>MOL_PROPERTY
Idih
SciTegic.value.DoubleValue
0.001

@<SCITEGIC>MOL_PROPERTY
Tether
SciTegic.value.DoubleValue
0.000

@<TRIPOS>MOLECULE
guest-8_confgen4.mol2 : confsearch ligand conformer 747
          25          24           1
SMALL
USER_CHARGES
 
@<TRIPOS>ATOM
       1    C1      16.782672   17.387717   21.332510 C.2        1 MOL1         0.6168
       2    O1      16.896365   17.579323   20.137933 O.co2      1 MOL1        -0.6703
       3    O2      16.166522   16.455114   21.809249 O.co2      1 MOL1        -0.6703
       4    C2      17.469080   18.359335   22.285863 C.3        1 MOL1        -0.1963
       5    H1      16.863351   18.427385   23.197467 H          1 MOL1         0.0750
       6    H2      17.467000   19.352178   21.820174 H          1 MOL1         0.0750
       7    C3      18.916970   17.936402   22.636326 C.3        1 MOL1        -0.1860
       8    H3      18.903248   16.935470   23.089582 H          1 MOL1         0.0752
       9    H4      19.506339   17.860176   21.712005 H          1 MOL1         0.0752
      10    C4      19.590500   18.936387   23.600969 C.3        1 MOL1        -0.1858
      11    H5      18.997831   19.009670   24.523024 H          1 MOL1         0.0752
      12    H6      19.590139   19.934379   23.146847 H          1 MOL1         0.0752
      13    C5      21.034165   18.506389   23.952633 C.3        1 MOL1        -0.1858
      14    H7      20.989503   17.519169   24.432548 H          1 MOL1         0.0752
      15    H8      21.627947   18.375362   23.037715 H          1 MOL1         0.0752
      16    C6      21.750476   19.488104   24.914691 C.3        1 MOL1        -0.1858
      17    H9      22.385597   18.900293   25.591425 H          1 MOL1         0.0752
      18    H10     21.017750   19.994214   25.557965 H          1 MOL1         0.0752
      19    C7      22.656285   20.532498   24.216368 C.3        1 MOL1        -0.1834
      20    H11     23.173337   21.117632   24.989316 H          1 MOL1         0.0752
      21    H12     23.440780   20.016476   23.645819 H          1 MOL1         0.0752
      22    C8      21.900696   21.503015   23.284943 C.3        1 MOL1        -0.2849
      23    H13     21.066687   21.985319   23.811037 H          1 MOL1         0.0764
      24    H14     22.574258   22.290673   22.923469 H          1 MOL1         0.0764
      25    H15     21.503682   20.979370   22.406420 H          1 MOL1         0.0764
@<TRIPOS>BOND
    1     1     2    1
    2     1     3    2
    3     1     4    1
    4     4     5    1
    5     4     6    1
    6     4     7    1
    7     7     8    1
    8     7     9    1
    9     7    10    1
   10    10    11    1
   11    10    12    1
   12    10    13    1
   13    13    14    1
   14    13    15    1
   15    13    16    1
   16    16    17    1
   17    16    18    1
   18    16    19    1
   19    19    20    1
   20    19    21    1
   21    19    22    1
   22    22    23    1
   23    22    24    1
   24    22    25    1
@<TRIPOS>SUBSTRUCTURE
       1 MOL1            1 RESIDUE      1      MOL     
@<SCITEGIC>MOL_PROPERTY
VConf Rank
SciTegic.value.IntegerValue
747

@<SCITEGIC>MOL_PROPERTY
Conf_Id
SciTegic.value.IntegerValue
125

@<SCITEGIC>MOL_PROPERTY
Delta U+W
SciTegic.value.DoubleValue
2.314

@<SCITEGIC>MOL_PROPERTY
U+W
SciTegic.value.DoubleValue
-49.315

@<SCITEGIC>MOL_PROPERTY
Grad RMS
SciTegic.value.DoubleValue
0.000000

@<SCITEGIC>MOL_PROPERTY
U
SciTegic.value.DoubleValue
9.740

@<SCITEGIC>MOL_PROPERTY
W
SciTegic.value.DoubleValue
-59.054

@<SCITEGIC>MOL_PROPERTY
W(PB)
SciTegic.value.DoubleValue
-61.488

@<SCITEGIC>MOL_PROPERTY
W(SA)
SciTegic.value.DoubleValue
2.433

@<SCITEGIC>MOL_PROPERTY
Valence
SciTegic.value.DoubleValue
10.506

@<SCITEGIC>MOL_PROPERTY
Coulomb
SciTegic.value.DoubleValue
-1.761

@<SCITEGIC>MOL_PROPERTY
VdW
SciTegic.value.DoubleValue
0.994

@<SCITEGIC>MOL_PROPERTY
VdW6
SciTegic.value.DoubleValue
-9.209

@<SCITEGIC>MOL_PROPERTY
VdW12
SciTegic.value.DoubleValue
10.203

@<SCITEGIC>MOL_PROPERTY
Bond
SciTegic.value.DoubleValue
0.193

@<SCITEGIC>MOL_PROPERTY
Angle
SciTegic.value.DoubleValue
2.979

@<SCITEGIC>MOL_PROPERTY
Pdih
SciTegic.value.DoubleValue
7.334

@<SCITEGIC>MOL_PROPERTY
Idih
SciTegic.value.DoubleValue
0.001

@<SCITEGIC>MOL_PROPERTY
Tether
SciTegic.value.DoubleValue
0.000

@<TRIPOS>MOLECULE
guest-8_confgen4.mol2 : confsearch ligand conformer 748
          25          24           1
SMALL
USER_CHARGES
 
@<TRIPOS>ATOM
       1    C1      16.246220   18.048136   22.502997 C.2        1 MOL1         0.6168
       2    O1      15.654712   18.162587   23.558323 O.co2      1 MOL1        -0.6703
       3    O2      15.755048   17.556965   21.505880 O.co2      1 MOL1        -0.6703
       4    C2      17.692469   18.525042   22.432686 C.3        1 MOL1        -0.1963
       5    H1      17.790487   19.389741   23.098574 H          1 MOL1         0.0750
       6    H2      17.885561   18.876106   21.411988 H          1 MOL1         0.0750
       7    C3      18.708075   17.418569   22.819342 C.3        1 MOL1        -0.1860
       8    H3      18.534557   17.108433   23.859071 H          1 MOL1         0.0752
       9    H4      18.519190   16.533426   22.196213 H          1 MOL1         0.0752
      10    C4      20.184752   17.844599   22.640248 C.3        1 MOL1        -0.1858
      11    H5      20.357343   18.144855   21.597640 H          1 MOL1         0.0752
      12    H6      20.823716   16.969512   22.821518 H          1 MOL1         0.0752
      13    C5      20.614693   18.987404   23.589111 C.3        1 MOL1        -0.1858
      14    H7      20.028186   19.887590   23.369331 H          1 MOL1         0.0752
      15    H8      20.395150   18.704382   24.627505 H          1 MOL1         0.0752
      16    C6      22.121050   19.307489   23.448979 C.3        1 MOL1        -0.1858
      17    H9      22.335425   19.636182   22.422874 H          1 MOL1         0.0752
      18    H10     22.698896   18.386779   23.607830 H          1 MOL1         0.0752
      19    C7      22.618453   20.376976   24.449283 C.3        1 MOL1        -0.1834
      20    H11     22.410459   20.048914   25.477106 H          1 MOL1         0.0752
      21    H12     23.710961   20.457439   24.364565 H          1 MOL1         0.0752
      22    C8      21.997961   21.771225   24.213399 C.3        1 MOL1        -0.2849
      23    H13     20.917292   21.766298   24.402653 H          1 MOL1         0.0764
      24    H14     22.449369   22.511071   24.887011 H          1 MOL1         0.0764
      25    H15     22.165929   22.106691   23.181722 H          1 MOL1         0.0764
@<TRIPOS>BOND
    1     1     2    1
    2     1     3    2
    3     1     4    1
    4     4     5    1
    5     4     6    1
    6     4     7    1
    7     7     8    1
    8     7     9    1
    9     7    10    1
   10    10    11    1
   11    10    12    1
   12    10    13    1
   13    13    14    1
   14    13    15    1
   15    13    16    1
   16    16    17    1
   17    16    18    1
   18    16    19    1
   19    19    20    1
   20    19    21    1
   21    19    22    1
   22    22    23    1
   23    22    24    1
   24    22    25    1
@<TRIPOS>SUBSTRUCTURE
       1 MOL1            1 RESIDUE      1      MOL     
@<SCITEGIC>MOL_PROPERTY
VConf Rank
SciTegic.value.IntegerValue
748

@<SCITEGIC>MOL_PROPERTY
Conf_Id
SciTegic.value.IntegerValue
4

@<SCITEGIC>MOL_PROPERTY
Delta U+W
SciTegic.value.DoubleValue
0.189

@<SCITEGIC>MOL_PROPERTY
U+W
SciTegic.value.DoubleValue
-51.441

@<SCITEGIC>MOL_PROPERTY
Grad RMS
SciTegic.value.DoubleValue
0.000000

@<SCITEGIC>MOL_PROPERTY
U
SciTegic.value.DoubleValue
7.701

@<SCITEGIC>MOL_PROPERTY
W
SciTegic.value.DoubleValue
-59.141

@<SCITEGIC>MOL_PROPERTY
W(PB)
SciTegic.value.DoubleValue
-61.609

@<SCITEGIC>MOL_PROPERTY
W(SA)
SciTegic.value.DoubleValue
2.467

@<SCITEGIC>MOL_PROPERTY
Valence
SciTegic.value.DoubleValue
8.550

@<SCITEGIC>MOL_PROPERTY
Coulomb
SciTegic.value.DoubleValue
-1.988

@<SCITEGIC>MOL_PROPERTY
VdW
SciTegic.value.DoubleValue
1.139

@<SCITEGIC>MOL_PROPERTY
VdW6
SciTegic.value.DoubleValue
-8.988

@<SCITEGIC>MOL_PROPERTY
VdW12
SciTegic.value.DoubleValue
10.127

@<SCITEGIC>MOL_PROPERTY
Bond
SciTegic.value.DoubleValue
0.191

@<SCITEGIC>MOL_PROPERTY
Angle
SciTegic.value.DoubleValue
2.738

@<SCITEGIC>MOL_PROPERTY
Pdih
SciTegic.value.DoubleValue
5.621

@<SCITEGIC>MOL_PROPERTY
Idih
SciTegic.value.DoubleValue
0.001

@<SCITEGIC>MOL_PROPERTY
Tether
SciTegic.value.DoubleValue
0.000

@<TRIPOS>MOLECULE
guest-8_confgen4.mol2 : confsearch ligand conformer 749
          25          24           1
SMALL
USER_CHARGES
 
@<TRIPOS>ATOM
       1    C1      19.343134   23.240999   23.215498 C.2        1 MOL1         0.6168
       2    O1      20.066146   23.709781   24.072348 O.co2      1 MOL1        -0.6703
       3    O2      18.696751   23.914749   22.437687 O.co2      1 MOL1        -0.6703
       4    C2      19.260434   21.723614   23.094149 C.3        1 MOL1        -0.1963
       5    H1      18.255399   21.465024   22.740044 H          1 MOL1         0.0750
       6    H2      19.369688   21.302880   24.100015 H          1 MOL1         0.0750
       7    C3      20.331963   21.139433   22.137175 C.3        1 MOL1        -0.1860
       8    H3      20.254807   21.650602   21.167536 H          1 MOL1         0.0752
       9    H4      21.334153   21.364571   22.527379 H          1 MOL1         0.0752
      10    C4      20.190635   19.615925   21.906730 C.3        1 MOL1        -0.1858
      11    H5      20.908636   19.313151   21.132319 H          1 MOL1         0.0752
      12    H6      19.191249   19.395232   21.507362 H          1 MOL1         0.0752
      13    C5      20.439468   18.775386   23.180610 C.3        1 MOL1        -0.1858
      14    H7      21.418644   19.034372   23.605704 H          1 MOL1         0.0752
      15    H8      19.684295   19.021859   23.936646 H          1 MOL1         0.0752
      16    C6      20.391866   17.259159   22.880624 C.3        1 MOL1        -0.1858
      17    H9      21.106077   17.030543   22.077827 H          1 MOL1         0.0752
      18    H10     19.397838   16.988663   22.499014 H          1 MOL1         0.0752
      19    C7      20.732932   16.378630   24.105434 C.3        1 MOL1        -0.1834
      20    H11     20.793411   15.330902   23.780111 H          1 MOL1         0.0752
      21    H12     21.728999   16.642961   24.486600 H          1 MOL1         0.0752
      22    C8      19.695581   16.485994   25.244277 C.3        1 MOL1        -0.2849
      23    H13     18.686012   16.256705   24.879165 H          1 MOL1         0.0764
      24    H14     19.933332   15.777153   26.047964 H          1 MOL1         0.0764
      25    H15     19.683611   17.491897   25.682116 H          1 MOL1         0.0764
@<TRIPOS>BOND
    1     1     2    1
    2     1     3    2
    3     1     4    1
    4     4     5    1
    5     4     6    1
    6     4     7    1
    7     7     8    1
    8     7     9    1
    9     7    10    1
   10    10    11    1
   11    10    12    1
   12    10    13    1
   13    13    14    1
   14    13    15    1
   15    13    16    1
   16    16    17    1
   17    16    18    1
   18    16    19    1
   19    19    20    1
   20    19    21    1
   21    19    22    1
   22    22    23    1
   23    22    24    1
   24    22    25    1
@<TRIPOS>SUBSTRUCTURE
       1 MOL1            1 RESIDUE      1      MOL     
@<SCITEGIC>MOL_PROPERTY
VConf Rank
SciTegic.value.IntegerValue
749

@<SCITEGIC>MOL_PROPERTY
Conf_Id
SciTegic.value.IntegerValue
17

@<SCITEGIC>MOL_PROPERTY
Delta U+W
SciTegic.value.DoubleValue
0.219

@<SCITEGIC>MOL_PROPERTY
U+W
SciTegic.value.DoubleValue
-51.411

@<SCITEGIC>MOL_PROPERTY
Grad RMS
SciTegic.value.DoubleValue
0.000000

@<SCITEGIC>MOL_PROPERTY
U
SciTegic.value.DoubleValue
7.701

@<SCITEGIC>MOL_PROPERTY
W
SciTegic.value.DoubleValue
-59.111

@<SCITEGIC>MOL_PROPERTY
W(PB)
SciTegic.value.DoubleValue
-61.599

@<SCITEGIC>MOL_PROPERTY
W(SA)
SciTegic.value.DoubleValue
2.488

@<SCITEGIC>MOL_PROPERTY
Valence
SciTegic.value.DoubleValue
8.550

@<SCITEGIC>MOL_PROPERTY
Coulomb
SciTegic.value.DoubleValue
-1.988

@<SCITEGIC>MOL_PROPERTY
VdW
SciTegic.value.DoubleValue
1.139

@<SCITEGIC>MOL_PROPERTY
VdW6
SciTegic.value.DoubleValue
-8.988

@<SCITEGIC>MOL_PROPERTY
VdW12
SciTegic.value.DoubleValue
10.127

@<SCITEGIC>MOL_PROPERTY
Bond
SciTegic.value.DoubleValue
0.191

@<SCITEGIC>MOL_PROPERTY
Angle
SciTegic.value.DoubleValue
2.738

@<SCITEGIC>MOL_PROPERTY
Pdih
SciTegic.value.DoubleValue
5.621

@<SCITEGIC>MOL_PROPERTY
Idih
SciTegic.value.DoubleValue
0.001

@<SCITEGIC>MOL_PROPERTY
Tether
SciTegic.value.DoubleValue
0.000

@<TRIPOS>MOLECULE
guest-8_confgen4.mol2 : confsearch ligand conformer 750
          25          24           1
SMALL
USER_CHARGES
 
@<TRIPOS>ATOM
       1    C1      22.790421   19.752770   20.891555 C.2        1 MOL1         0.6168
       2    O1      23.695496   20.403533   21.375713 O.co2      1 MOL1        -0.6703
       3    O2      22.126873   20.124408   19.943575 O.co2      1 MOL1        -0.6703
       4    C2      22.481047   18.384871   21.493278 C.3        1 MOL1        -0.1963
       5    H1      23.354207   18.048586   22.065359 H          1 MOL1         0.0750
       6    H2      22.356162   17.681077   20.661977 H          1 MOL1         0.0750
       7    C3      21.213269   18.362534   22.386104 C.3        1 MOL1        -0.1860
       8    H3      20.358077   18.720842   21.797945 H          1 MOL1         0.0752
       9    H4      20.993096   17.323913   22.667273 H          1 MOL1         0.0752
      10    C4      21.376480   19.215107   23.667210 C.3        1 MOL1        -0.1858
      11    H5      21.526933   20.269507   23.397162 H          1 MOL1         0.0752
      12    H6      22.287191   18.897981   24.193407 H          1 MOL1         0.0752
      13    C5      20.180263   19.098445   24.641467 C.3        1 MOL1        -0.1858
      14    H7      20.033413   18.045931   24.919854 H          1 MOL1         0.0752
      15    H8      20.433010   19.632405   25.567677 H          1 MOL1         0.0752
      16    C6      18.863704   19.676009   24.072148 C.3        1 MOL1        -0.1858
      17    H9      18.555375   19.104349   23.187238 H          1 MOL1         0.0752
      18    H10     19.028772   20.711359   23.743976 H          1 MOL1         0.0752
      19    C7      17.727389   19.641454   25.115864 C.3        1 MOL1        -0.1834
      20    H11     17.560993   18.607178   25.447592 H          1 MOL1         0.0752
      21    H12     18.021530   20.218192   26.003714 H          1 MOL1         0.0752
      22    C8      16.414275   20.214273   24.545487 C.3        1 MOL1        -0.2849
      23    H13     16.078976   19.635889   23.674608 H          1 MOL1         0.0764
      24    H14     15.618017   20.182372   25.300479 H          1 MOL1         0.0764
      25    H15     16.544235   21.258946   24.233799 H          1 MOL1         0.0764
@<TRIPOS>BOND
    1     1     2    1
    2     1     3    2
    3     1     4    1
    4     4     5    1
    5     4     6    1
    6     4     7    1
    7     7     8    1
    8     7     9    1
    9     7    10    1
   10    10    11    1
   11    10    12    1
   12    10    13    1
   13    13    14    1
   14    13    15    1
   15    13    16    1
   16    16    17    1
   17    16    18    1
   18    16    19    1
   19    19    20    1
   20    19    21    1
   21    19    22    1
   22    22    23    1
   23    22    24    1
   24    22    25    1
@<TRIPOS>SUBSTRUCTURE
       1 MOL1            1 RESIDUE      1      MOL     
@<SCITEGIC>MOL_PROPERTY
VConf Rank
SciTegic.value.IntegerValue
750

@<SCITEGIC>MOL_PROPERTY
Conf_Id
SciTegic.value.IntegerValue
142

@<SCITEGIC>MOL_PROPERTY
Delta U+W
SciTegic.value.DoubleValue
0.593

@<SCITEGIC>MOL_PROPERTY
U+W
SciTegic.value.DoubleValue
-51.037

@<SCITEGIC>MOL_PROPERTY
Grad RMS
SciTegic.value.DoubleValue
0.000000

@<SCITEGIC>MOL_PROPERTY
U
SciTegic.value.DoubleValue
8.903

@<SCITEGIC>MOL_PROPERTY
W
SciTegic.value.DoubleValue
-59.940

@<SCITEGIC>MOL_PROPERTY
W(PB)
SciTegic.value.DoubleValue
-62.418

@<SCITEGIC>MOL_PROPERTY
W(SA)
SciTegic.value.DoubleValue
2.478

@<SCITEGIC>MOL_PROPERTY
Valence
SciTegic.value.DoubleValue
8.305

@<SCITEGIC>MOL_PROPERTY
Coulomb
SciTegic.value.DoubleValue
-0.223

@<SCITEGIC>MOL_PROPERTY
VdW
SciTegic.value.DoubleValue
0.821

@<SCITEGIC>MOL_PROPERTY
VdW6
SciTegic.value.DoubleValue
-9.236

@<SCITEGIC>MOL_PROPERTY
VdW12
SciTegic.value.DoubleValue
10.057

@<SCITEGIC>MOL_PROPERTY
Bond
SciTegic.value.DoubleValue
0.173

@<SCITEGIC>MOL_PROPERTY
Angle
SciTegic.value.DoubleValue
2.663

@<SCITEGIC>MOL_PROPERTY
Pdih
SciTegic.value.DoubleValue
5.469

@<SCITEGIC>MOL_PROPERTY
Idih
SciTegic.value.DoubleValue
0.001

@<SCITEGIC>MOL_PROPERTY
Tether
SciTegic.value.DoubleValue
0.000

@<TRIPOS>MOLECULE
guest-8_confgen4.mol2 : confsearch ligand conformer 751
          25          24           1
SMALL
USER_CHARGES
 
@<TRIPOS>ATOM
       1    C1      18.144014   17.480726   21.158536 C.2        1 MOL1         0.6168
       2    O1      17.272172   16.633818   21.172488 O.co2      1 MOL1        -0.6703
       3    O2      18.089233   18.490510   20.484450 O.co2      1 MOL1        -0.6703
       4    C2      19.386140   17.247270   22.013849 C.3        1 MOL1        -0.1963
       5    H1      20.173642   17.934989   21.684941 H          1 MOL1         0.0750
       6    H2      19.746761   16.235305   21.796136 H          1 MOL1         0.0750
       7    C3      19.140045   17.388234   23.540838 C.3        1 MOL1        -0.1860
       8    H3      18.397039   16.639424   23.848091 H          1 MOL1         0.0752
       9    H4      20.061869   17.135640   24.080546 H          1 MOL1         0.0752
      10    C4      18.643495   18.789118   23.983113 C.3        1 MOL1        -0.1858
      11    H5      18.494545   18.783035   25.071403 H          1 MOL1         0.0752
      12    H6      17.652960   18.972207   23.544476 H          1 MOL1         0.0752
      13    C5      19.575221   19.969649   23.610876 C.3        1 MOL1        -0.1858
      14    H7      19.645650   20.059713   22.518593 H          1 MOL1         0.0752
      15    H8      19.109526   20.900510   23.961816 H          1 MOL1         0.0752
      16    C6      20.991566   19.855378   24.220447 C.3        1 MOL1        -0.1858
      17    H9      21.498554   18.966748   23.822446 H          1 MOL1         0.0752
      18    H10     20.913513   19.721335   25.307928 H          1 MOL1         0.0752
      19    C7      21.846615   21.102997   23.914223 C.3        1 MOL1        -0.1834
      20    H11     21.923737   21.240422   22.826730 H          1 MOL1         0.0752
      21    H12     21.352471   21.998815   24.315106 H          1 MOL1         0.0752
      22    C8      23.260721   20.984871   24.517582 C.3        1 MOL1        -0.2849
      23    H13     23.790433   20.114214   24.109257 H          1 MOL1         0.0764
      24    H14     23.854305   21.879920   24.290470 H          1 MOL1         0.0764
      25    H15     23.214116   20.876914   25.609152 H          1 MOL1         0.0764
@<TRIPOS>BOND
    1     1     2    1
    2     1     3    2
    3     1     4    1
    4     4     5    1
    5     4     6    1
    6     4     7    1
    7     7     8    1
    8     7     9    1
    9     7    10    1
   10    10    11    1
   11    10    12    1
   12    10    13    1
   13    13    14    1
   14    13    15    1
   15    13    16    1
   16    16    17    1
   17    16    18    1
   18    16    19    1
   19    19    20    1
   20    19    21    1
   21    19    22    1
   22    22    23    1
   23    22    24    1
   24    22    25    1
@<TRIPOS>SUBSTRUCTURE
       1 MOL1            1 RESIDUE      1      MOL     
@<SCITEGIC>MOL_PROPERTY
VConf Rank
SciTegic.value.IntegerValue
751

@<SCITEGIC>MOL_PROPERTY
Conf_Id
SciTegic.value.IntegerValue
135

@<SCITEGIC>MOL_PROPERTY
Delta U+W
SciTegic.value.DoubleValue
1.314

@<SCITEGIC>MOL_PROPERTY
U+W
SciTegic.value.DoubleValue
-50.316

@<SCITEGIC>MOL_PROPERTY
Grad RMS
SciTegic.value.DoubleValue
0.000000

@<SCITEGIC>MOL_PROPERTY
U
SciTegic.value.DoubleValue
9.773

@<SCITEGIC>MOL_PROPERTY
W
SciTegic.value.DoubleValue
-60.088

@<SCITEGIC>MOL_PROPERTY
W(PB)
SciTegic.value.DoubleValue
-62.535

@<SCITEGIC>MOL_PROPERTY
W(SA)
SciTegic.value.DoubleValue
2.447

@<SCITEGIC>MOL_PROPERTY
Valence
SciTegic.value.DoubleValue
8.741

@<SCITEGIC>MOL_PROPERTY
Coulomb
SciTegic.value.DoubleValue
0.479

@<SCITEGIC>MOL_PROPERTY
VdW
SciTegic.value.DoubleValue
0.552

@<SCITEGIC>MOL_PROPERTY
VdW6
SciTegic.value.DoubleValue
-10.627

@<SCITEGIC>MOL_PROPERTY
VdW12
SciTegic.value.DoubleValue
11.179

@<SCITEGIC>MOL_PROPERTY
Bond
SciTegic.value.DoubleValue
0.227

@<SCITEGIC>MOL_PROPERTY
Angle
SciTegic.value.DoubleValue
3.155

@<SCITEGIC>MOL_PROPERTY
Pdih
SciTegic.value.DoubleValue
5.358

@<SCITEGIC>MOL_PROPERTY
Idih
SciTegic.value.DoubleValue
0.001

@<SCITEGIC>MOL_PROPERTY
Tether
SciTegic.value.DoubleValue
0.000

@<TRIPOS>MOLECULE
guest-8_confgen4.mol2 : confsearch ligand conformer 752
          25          24           1
SMALL
USER_CHARGES
 
@<TRIPOS>ATOM
       1    C1      16.047222   18.127230   23.750669 C.2        1 MOL1         0.6168
       2    O1      15.292820   19.079363   23.783261 O.co2      1 MOL1        -0.6703
       3    O2      15.688272   16.992194   23.506497 O.co2      1 MOL1        -0.6703
       4    C2      17.529523   18.373760   24.007938 C.3        1 MOL1        -0.1963
       5    H1      17.945340   17.477624   24.483737 H          1 MOL1         0.0750
       6    H2      17.609291   19.192947   24.730947 H          1 MOL1         0.0750
       7    C3      18.315336   18.705192   22.712377 C.3        1 MOL1        -0.1860
       8    H3      18.131566   17.908538   21.978199 H          1 MOL1         0.0752
       9    H4      17.922366   19.630840   22.269622 H          1 MOL1         0.0752
      10    C4      19.842384   18.834453   22.927667 C.3        1 MOL1        -0.1858
      11    H5      20.315832   18.911766   21.940824 H          1 MOL1         0.0752
      12    H6      20.228977   17.917848   23.393456 H          1 MOL1         0.0752
      13    C5      20.243604   20.064713   23.776162 C.3        1 MOL1        -0.1858
      14    H7      19.904590   20.980439   23.273061 H          1 MOL1         0.0752
      15    H8      19.721823   20.031571   24.740590 H          1 MOL1         0.0752
      16    C6      21.762583   20.168831   24.064833 C.3        1 MOL1        -0.1858
      17    H9      22.094371   19.300649   24.650566 H          1 MOL1         0.0752
      18    H10     21.915947   21.041856   24.713817 H          1 MOL1         0.0752
      19    C7      22.652703   20.340603   22.808496 C.3        1 MOL1        -0.1834
      20    H11     22.082261   20.816520   21.998968 H          1 MOL1         0.0752
      21    H12     23.472766   21.030801   23.050207 H          1 MOL1         0.0752
      22    C8      23.274216   19.013692   22.318299 C.3        1 MOL1        -0.2849
      23    H13     22.507263   18.278151   22.050191 H          1 MOL1         0.0764
      24    H14     23.898237   19.186186   21.431930 H          1 MOL1         0.0764
      25    H15     23.910421   18.570609   23.095475 H          1 MOL1         0.0764
@<TRIPOS>BOND
    1     1     2    1
    2     1     3    2
    3     1     4    1
    4     4     5    1
    5     4     6    1
    6     4     7    1
    7     7     8    1
    8     7     9    1
    9     7    10    1
   10    10    11    1
   11    10    12    1
   12    10    13    1
   13    13    14    1
   14    13    15    1
   15    13    16    1
   16    16    17    1
   17    16    18    1
   18    16    19    1
   19    19    20    1
   20    19    21    1
   21    19    22    1
   22    22    23    1
   23    22    24    1
   24    22    25    1
@<TRIPOS>SUBSTRUCTURE
       1 MOL1            1 RESIDUE      1      MOL     
@<SCITEGIC>MOL_PROPERTY
VConf Rank
SciTegic.value.IntegerValue
752

@<SCITEGIC>MOL_PROPERTY
Conf_Id
SciTegic.value.IntegerValue
19

@<SCITEGIC>MOL_PROPERTY
Delta U+W
SciTegic.value.DoubleValue
3.222

@<SCITEGIC>MOL_PROPERTY
U+W
SciTegic.value.DoubleValue
-48.407

@<SCITEGIC>MOL_PROPERTY
Grad RMS
SciTegic.value.DoubleValue
0.000000

@<SCITEGIC>MOL_PROPERTY
U
SciTegic.value.DoubleValue
10.617

@<SCITEGIC>MOL_PROPERTY
W
SciTegic.value.DoubleValue
-59.025

@<SCITEGIC>MOL_PROPERTY
W(PB)
SciTegic.value.DoubleValue
-61.462

@<SCITEGIC>MOL_PROPERTY
W(SA)
SciTegic.value.DoubleValue
2.437

@<SCITEGIC>MOL_PROPERTY
Valence
SciTegic.value.DoubleValue
11.188

@<SCITEGIC>MOL_PROPERTY
Coulomb
SciTegic.value.DoubleValue
-1.778

@<SCITEGIC>MOL_PROPERTY
VdW
SciTegic.value.DoubleValue
1.208

@<SCITEGIC>MOL_PROPERTY
VdW6
SciTegic.value.DoubleValue
-9.786

@<SCITEGIC>MOL_PROPERTY
VdW12
SciTegic.value.DoubleValue
10.993

@<SCITEGIC>MOL_PROPERTY
Bond
SciTegic.value.DoubleValue
0.241

@<SCITEGIC>MOL_PROPERTY
Angle
SciTegic.value.DoubleValue
3.294

@<SCITEGIC>MOL_PROPERTY
Pdih
SciTegic.value.DoubleValue
7.653

@<SCITEGIC>MOL_PROPERTY
Idih
SciTegic.value.DoubleValue
0.001

@<SCITEGIC>MOL_PROPERTY
Tether
SciTegic.value.DoubleValue
0.000

@<TRIPOS>MOLECULE
guest-8_confgen4.mol2 : confsearch ligand conformer 753
          25          24           1
SMALL
USER_CHARGES
 
@<TRIPOS>ATOM
       1    C1      22.495293   20.046390   26.615223 C.2        1 MOL1         0.6168
       2    O1      22.910059   19.053356   27.179662 O.co2      1 MOL1        -0.6703
       3    O2      22.440592   21.143075   27.135858 O.co2      1 MOL1        -0.6703
       4    C2      21.994102   19.903968   25.182496 C.3        1 MOL1        -0.1963
       5    H1      22.597537   19.130422   24.694987 H          1 MOL1         0.0750
       6    H2      22.189214   20.847501   24.659022 H          1 MOL1         0.0750
       7    C3      20.485151   19.552796   25.107837 C.3        1 MOL1        -0.1860
       8    H3      20.308045   18.582949   25.592928 H          1 MOL1         0.0752
       9    H4      19.923517   20.296961   25.689414 H          1 MOL1         0.0752
      10    C4      19.923522   19.527867   23.666003 C.3        1 MOL1        -0.1858
      11    H5      20.123977   20.489535   23.174482 H          1 MOL1         0.0752
      12    H6      18.832838   19.427389   23.731576 H          1 MOL1         0.0752
      13    C5      20.484731   18.370718   22.805470 C.3        1 MOL1        -0.1858
      14    H7      21.580393   18.423087   22.789329 H          1 MOL1         0.0752
      15    H8      20.228414   17.410836   23.274004 H          1 MOL1         0.0752
      16    C6      19.990491   18.374238   21.336733 C.3        1 MOL1        -0.1858
      17    H9      20.494084   17.547571   20.817225 H          1 MOL1         0.0752
      18    H10     20.323136   19.290627   20.830291 H          1 MOL1         0.0752
      19    C7      18.461767   18.190730   21.164888 C.3        1 MOL1        -0.1834
      20    H11     18.279907   17.565166   20.280073 H          1 MOL1         0.0752
      21    H12     18.045341   17.639147   22.019043 H          1 MOL1         0.0752
      22    C8      17.707953   19.525187   20.969304 C.3        1 MOL1        -0.2849
      23    H13     18.064351   20.046279   20.071237 H          1 MOL1         0.0764
      24    H14     16.632177   19.344379   20.847564 H          1 MOL1         0.0764
      25    H15     17.840056   20.197799   21.824441 H          1 MOL1         0.0764
@<TRIPOS>BOND
    1     1     2    1
    2     1     3    2
    3     1     4    1
    4     4     5    1
    5     4     6    1
    6     4     7    1
    7     7     8    1
    8     7     9    1
    9     7    10    1
   10    10    11    1
   11    10    12    1
   12    10    13    1
   13    13    14    1
   14    13    15    1
   15    13    16    1
   16    16    17    1
   17    16    18    1
   18    16    19    1
   19    19    20    1
   20    19    21    1
   21    19    22    1
   22    22    23    1
   23    22    24    1
   24    22    25    1
@<TRIPOS>SUBSTRUCTURE
       1 MOL1            1 RESIDUE      1      MOL     
@<SCITEGIC>MOL_PROPERTY
VConf Rank
SciTegic.value.IntegerValue
753

@<SCITEGIC>MOL_PROPERTY
Conf_Id
SciTegic.value.IntegerValue
20

@<SCITEGIC>MOL_PROPERTY
Delta U+W
SciTegic.value.DoubleValue
3.224

@<SCITEGIC>MOL_PROPERTY
U+W
SciTegic.value.DoubleValue
-48.406

@<SCITEGIC>MOL_PROPERTY
Grad RMS
SciTegic.value.DoubleValue
0.000000

@<SCITEGIC>MOL_PROPERTY
U
SciTegic.value.DoubleValue
10.617

@<SCITEGIC>MOL_PROPERTY
W
SciTegic.value.DoubleValue
-59.023

@<SCITEGIC>MOL_PROPERTY
W(PB)
SciTegic.value.DoubleValue
-61.467

@<SCITEGIC>MOL_PROPERTY
W(SA)
SciTegic.value.DoubleValue
2.444

@<SCITEGIC>MOL_PROPERTY
Valence
SciTegic.value.DoubleValue
11.188

@<SCITEGIC>MOL_PROPERTY
Coulomb
SciTegic.value.DoubleValue
-1.778

@<SCITEGIC>MOL_PROPERTY
VdW
SciTegic.value.DoubleValue
1.208

@<SCITEGIC>MOL_PROPERTY
VdW6
SciTegic.value.DoubleValue
-9.786

@<SCITEGIC>MOL_PROPERTY
VdW12
SciTegic.value.DoubleValue
10.993

@<SCITEGIC>MOL_PROPERTY
Bond
SciTegic.value.DoubleValue
0.241

@<SCITEGIC>MOL_PROPERTY
Angle
SciTegic.value.DoubleValue
3.294

@<SCITEGIC>MOL_PROPERTY
Pdih
SciTegic.value.DoubleValue
7.653

@<SCITEGIC>MOL_PROPERTY
Idih
SciTegic.value.DoubleValue
0.001

@<SCITEGIC>MOL_PROPERTY
Tether
SciTegic.value.DoubleValue
0.000

@<TRIPOS>MOLECULE
guest-8_confgen4.mol2 : confsearch ligand conformer 754
          25          24           1
SMALL
USER_CHARGES
 
@<TRIPOS>ATOM
       1    C1      18.871858   22.119731   24.618034 C.2        1 MOL1         0.6168
       2    O1      17.948523   22.437891   23.894244 O.co2      1 MOL1        -0.6703
       3    O2      19.992088   22.580439   24.517775 O.co2      1 MOL1        -0.6703
       4    C2      18.596212   21.138844   25.756133 C.3        1 MOL1        -0.1963
       5    H1      17.876209   21.631508   26.419719 H          1 MOL1         0.0750
       6    H2      19.515495   21.000432   26.337984 H          1 MOL1         0.0750
       7    C3      18.022079   19.761348   25.320259 C.3        1 MOL1        -0.1860
       8    H3      17.533478   19.306362   26.192432 H          1 MOL1         0.0752
       9    H4      17.230483   19.905395   24.571780 H          1 MOL1         0.0752
      10    C4      19.075534   18.756135   24.792184 C.3        1 MOL1        -0.1858
      11    H5      18.583711   17.782433   24.661813 H          1 MOL1         0.0752
      12    H6      19.857345   18.607875   25.549565 H          1 MOL1         0.0752
      13    C5      19.723421   19.168579   23.451005 C.3        1 MOL1        -0.1858
      14    H7      18.938791   19.418047   22.723565 H          1 MOL1         0.0752
      15    H8      20.329967   20.071978   23.592339 H          1 MOL1         0.0752
      16    C6      20.620107   18.047895   22.881278 C.3        1 MOL1        -0.1858
      17    H9      20.021207   17.139797   22.727512 H          1 MOL1         0.0752
      18    H10     21.401057   17.796466   23.611985 H          1 MOL1         0.0752
      19    C7      21.276538   18.463052   21.547817 C.3        1 MOL1        -0.1834
      20    H11     20.497877   18.714478   20.814380 H          1 MOL1         0.0752
      21    H12     21.877984   19.370402   21.698097 H          1 MOL1         0.0752
      22    C8      22.171655   17.342391   20.981644 C.3        1 MOL1        -0.2849
      23    H13     21.588339   16.431797   20.792088 H          1 MOL1         0.0764
      24    H14     22.629879   17.654704   20.034250 H          1 MOL1         0.0764
      25    H15     22.978974   17.092745   21.682564 H          1 MOL1         0.0764
@<TRIPOS>BOND
    1     1     2    1
    2     1     3    2
    3     1     4    1
    4     4     5    1
    5     4     6    1
    6     4     7    1
    7     7     8    1
    8     7     9    1
    9     7    10    1
   10    10    11    1
   11    10    12    1
   12    10    13    1
   13    13    14    1
   14    13    15    1
   15    13    16    1
   16    16    17    1
   17    16    18    1
   18    16    19    1
   19    19    20    1
   20    19    21    1
   21    19    22    1
   22    22    23    1
   23    22    24    1
   24    22    25    1
@<TRIPOS>SUBSTRUCTURE
       1 MOL1            1 RESIDUE      1      MOL     
@<SCITEGIC>MOL_PROPERTY
VConf Rank
SciTegic.value.IntegerValue
754

@<SCITEGIC>MOL_PROPERTY
Conf_Id
SciTegic.value.IntegerValue
24

@<SCITEGIC>MOL_PROPERTY
Delta U+W
SciTegic.value.DoubleValue
1.784

@<SCITEGIC>MOL_PROPERTY
U+W
SciTegic.value.DoubleValue
-49.846

@<SCITEGIC>MOL_PROPERTY
Grad RMS
SciTegic.value.DoubleValue
0.000000

@<SCITEGIC>MOL_PROPERTY
U
SciTegic.value.DoubleValue
10.904

@<SCITEGIC>MOL_PROPERTY
W
SciTegic.value.DoubleValue
-60.749

@<SCITEGIC>MOL_PROPERTY
W(PB)
SciTegic.value.DoubleValue
-63.220

@<SCITEGIC>MOL_PROPERTY
W(SA)
SciTegic.value.DoubleValue
2.471

@<SCITEGIC>MOL_PROPERTY
Valence
SciTegic.value.DoubleValue
9.445

@<SCITEGIC>MOL_PROPERTY
Coulomb
SciTegic.value.DoubleValue
0.780

@<SCITEGIC>MOL_PROPERTY
VdW
SciTegic.value.DoubleValue
0.679

@<SCITEGIC>MOL_PROPERTY
VdW6
SciTegic.value.DoubleValue
-10.008

@<SCITEGIC>MOL_PROPERTY
VdW12
SciTegic.value.DoubleValue
10.687

@<SCITEGIC>MOL_PROPERTY
Bond
SciTegic.value.DoubleValue
0.201

@<SCITEGIC>MOL_PROPERTY
Angle
SciTegic.value.DoubleValue
3.198

@<SCITEGIC>MOL_PROPERTY
Pdih
SciTegic.value.DoubleValue
6.039

@<SCITEGIC>MOL_PROPERTY
Idih
SciTegic.value.DoubleValue
0.006

@<SCITEGIC>MOL_PROPERTY
Tether
SciTegic.value.DoubleValue
0.000

@<TRIPOS>MOLECULE
guest-8_confgen4.mol2 : confsearch ligand conformer 755
          25          24           1
SMALL
USER_CHARGES
 
@<TRIPOS>ATOM
       1    C1      22.130077   18.966848   21.055818 C.2        1 MOL1         0.6168
       2    O1      21.458755   19.284226   20.093404 O.co2      1 MOL1        -0.6703
       3    O2      22.894385   19.725136   21.619777 O.co2      1 MOL1        -0.6703
       4    C2      22.061051   17.520637   21.542747 C.3        1 MOL1        -0.1963
       5    H1      22.759734   17.392044   22.378265 H          1 MOL1         0.0750
       6    H2      22.437428   16.900663   20.720895 H          1 MOL1         0.0750
       7    C3      20.643964   17.022741   21.944080 C.3        1 MOL1        -0.1860
       8    H3      19.908392   17.340683   21.192123 H          1 MOL1         0.0752
       9    H4      20.649602   15.924758   21.915259 H          1 MOL1         0.0752
      10    C4      20.179522   17.454981   23.357073 C.3        1 MOL1        -0.1858
      11    H5      20.912993   17.123676   24.104797 H          1 MOL1         0.0752
      12    H6      19.244557   16.925626   23.586433 H          1 MOL1         0.0752
      13    C5      19.938565   18.974523   23.503900 C.3        1 MOL1        -0.1858
      14    H7      20.889490   19.513611   23.408333 H          1 MOL1         0.0752
      15    H8      19.286746   19.324857   22.691838 H          1 MOL1         0.0752
      16    C6      19.300699   19.322706   24.866422 C.3        1 MOL1        -0.1858
      17    H9      19.951475   18.967324   25.677115 H          1 MOL1         0.0752
      18    H10     18.342849   18.794727   24.969994 H          1 MOL1         0.0752
      19    C7      19.070250   20.840958   25.018665 C.3        1 MOL1        -0.1834
      20    H11     20.026735   21.372451   24.917392 H          1 MOL1         0.0752
      21    H12     18.418989   21.199503   24.209492 H          1 MOL1         0.0752
      22    C8      18.433672   21.185657   26.380142 C.3        1 MOL1        -0.2849
      23    H13     19.079941   20.865890   27.208066 H          1 MOL1         0.0764
      24    H14     18.277230   22.268399   26.471029 H          1 MOL1         0.0764
      25    H15     17.459907   20.691676   26.494760 H          1 MOL1         0.0764
@<TRIPOS>BOND
    1     1     2    1
    2     1     3    2
    3     1     4    1
    4     4     5    1
    5     4     6    1
    6     4     7    1
    7     7     8    1
    8     7     9    1
    9     7    10    1
   10    10    11    1
   11    10    12    1
   12    10    13    1
   13    13    14    1
   14    13    15    1
   15    13    16    1
   16    16    17    1
   17    16    18    1
   18    16    19    1
   19    19    20    1
   20    19    21    1
   21    19    22    1
   22    22    23    1
   23    22    24    1
   24    22    25    1
@<TRIPOS>SUBSTRUCTURE
       1 MOL1            1 RESIDUE      1      MOL     
@<SCITEGIC>MOL_PROPERTY
VConf Rank
SciTegic.value.IntegerValue
755

@<SCITEGIC>MOL_PROPERTY
Conf_Id
SciTegic.value.IntegerValue
9

@<SCITEGIC>MOL_PROPERTY
Delta U+W
SciTegic.value.DoubleValue
1.764

@<SCITEGIC>MOL_PROPERTY
U+W
SciTegic.value.DoubleValue
-49.865

@<SCITEGIC>MOL_PROPERTY
Grad RMS
SciTegic.value.DoubleValue
0.000000

@<SCITEGIC>MOL_PROPERTY
U
SciTegic.value.DoubleValue
10.902

@<SCITEGIC>MOL_PROPERTY
W
SciTegic.value.DoubleValue
-60.768

@<SCITEGIC>MOL_PROPERTY
W(PB)
SciTegic.value.DoubleValue
-63.223

@<SCITEGIC>MOL_PROPERTY
W(SA)
SciTegic.value.DoubleValue
2.456

@<SCITEGIC>MOL_PROPERTY
Valence
SciTegic.value.DoubleValue
9.445

@<SCITEGIC>MOL_PROPERTY
Coulomb
SciTegic.value.DoubleValue
0.778

@<SCITEGIC>MOL_PROPERTY
VdW
SciTegic.value.DoubleValue
0.679

@<SCITEGIC>MOL_PROPERTY
VdW6
SciTegic.value.DoubleValue
-10.007

@<SCITEGIC>MOL_PROPERTY
VdW12
SciTegic.value.DoubleValue
10.687

@<SCITEGIC>MOL_PROPERTY
Bond
SciTegic.value.DoubleValue
0.201

@<SCITEGIC>MOL_PROPERTY
Angle
SciTegic.value.DoubleValue
3.198

@<SCITEGIC>MOL_PROPERTY
Pdih
SciTegic.value.DoubleValue
6.040

@<SCITEGIC>MOL_PROPERTY
Idih
SciTegic.value.DoubleValue
0.006

@<SCITEGIC>MOL_PROPERTY
Tether
SciTegic.value.DoubleValue
0.000

@<TRIPOS>MOLECULE
guest-8_confgen4.mol2 : confsearch ligand conformer 756
          25          24           1
SMALL
USER_CHARGES
 
@<TRIPOS>ATOM
       1    C1      20.628747   22.799443   23.328553 C.2        1 MOL1         0.6168
       2    O1      20.896935   22.812084   24.513677 O.co2      1 MOL1        -0.6703
       3    O2      20.900320   23.706768   22.567069 O.co2      1 MOL1        -0.6703
       4    C2      19.931172   21.568536   22.761124 C.3        1 MOL1        -0.1963
       5    H1      19.276194   21.897273   21.945530 H          1 MOL1         0.0750
       6    H2      19.285009   21.159609   23.543885 H          1 MOL1         0.0750
       7    C3      20.929211   20.499159   22.243437 C.3        1 MOL1        -0.1860
       8    H3      21.543245   20.962454   21.458736 H          1 MOL1         0.0752
       9    H4      21.624014   20.210793   23.044380 H          1 MOL1         0.0752
      10    C4      20.238452   19.242888   21.654433 C.3        1 MOL1        -0.1858
      11    H5      20.844549   18.883981   20.811372 H          1 MOL1         0.0752
      12    H6      19.261970   19.509333   21.227432 H          1 MOL1         0.0752
      13    C5      20.082127   18.065019   22.648892 C.3        1 MOL1        -0.1858
      14    H7      19.661921   17.208114   22.105117 H          1 MOL1         0.0752
      15    H8      21.076673   17.754155   22.994820 H          1 MOL1         0.0752
      16    C6      19.180683   18.377228   23.866716 C.3        1 MOL1        -0.1858
      17    H9      18.245177   18.832236   23.514304 H          1 MOL1         0.0752
      18    H10     19.671856   19.117182   24.512056 H          1 MOL1         0.0752
      19    C7      18.834450   17.126700   24.708046 C.3        1 MOL1        -0.1834
      20    H11     18.117115   17.414305   25.488993 H          1 MOL1         0.0752
      21    H12     18.325648   16.384347   24.077755 H          1 MOL1         0.0752
      22    C8      20.067676   16.481858   25.377118 C.3        1 MOL1        -0.2849
      23    H13     20.607295   17.212917   25.993160 H          1 MOL1         0.0764
      24    H14     19.762089   15.651771   26.027059 H          1 MOL1         0.0764
      25    H15     20.763824   16.080455   24.630039 H          1 MOL1         0.0764
@<TRIPOS>BOND
    1     1     2    1
    2     1     3    2
    3     1     4    1
    4     4     5    1
    5     4     6    1
    6     4     7    1
    7     7     8    1
    8     7     9    1
    9     7    10    1
   10    10    11    1
   11    10    12    1
   12    10    13    1
   13    13    14    1
   14    13    15    1
   15    13    16    1
   16    16    17    1
   17    16    18    1
   18    16    19    1
   19    19    20    1
   20    19    21    1
   21    19    22    1
   22    22    23    1
   23    22    24    1
   24    22    25    1
@<TRIPOS>SUBSTRUCTURE
       1 MOL1            1 RESIDUE      1      MOL     
@<SCITEGIC>MOL_PROPERTY
VConf Rank
SciTegic.value.IntegerValue
756

@<SCITEGIC>MOL_PROPERTY
Conf_Id
SciTegic.value.IntegerValue
89

@<SCITEGIC>MOL_PROPERTY
Delta U+W
SciTegic.value.DoubleValue
2.903

@<SCITEGIC>MOL_PROPERTY
U+W
SciTegic.value.DoubleValue
-48.726

@<SCITEGIC>MOL_PROPERTY
Grad RMS
SciTegic.value.DoubleValue
0.000000

@<SCITEGIC>MOL_PROPERTY
U
SciTegic.value.DoubleValue
10.996

@<SCITEGIC>MOL_PROPERTY
W
SciTegic.value.DoubleValue
-59.723

@<SCITEGIC>MOL_PROPERTY
W(PB)
SciTegic.value.DoubleValue
-62.151

@<SCITEGIC>MOL_PROPERTY
W(SA)
SciTegic.value.DoubleValue
2.428

@<SCITEGIC>MOL_PROPERTY
Valence
SciTegic.value.DoubleValue
10.985

@<SCITEGIC>MOL_PROPERTY
Coulomb
SciTegic.value.DoubleValue
-0.995

@<SCITEGIC>MOL_PROPERTY
VdW
SciTegic.value.DoubleValue
1.006

@<SCITEGIC>MOL_PROPERTY
VdW6
SciTegic.value.DoubleValue
-10.062

@<SCITEGIC>MOL_PROPERTY
VdW12
SciTegic.value.DoubleValue
11.069

@<SCITEGIC>MOL_PROPERTY
Bond
SciTegic.value.DoubleValue
0.238

@<SCITEGIC>MOL_PROPERTY
Angle
SciTegic.value.DoubleValue
3.202

@<SCITEGIC>MOL_PROPERTY
Pdih
SciTegic.value.DoubleValue
7.544

@<SCITEGIC>MOL_PROPERTY
Idih
SciTegic.value.DoubleValue
0.001

@<SCITEGIC>MOL_PROPERTY
Tether
SciTegic.value.DoubleValue
0.000

@<TRIPOS>MOLECULE
guest-8_confgen4.mol2 : confsearch ligand conformer 757
          25          24           1
SMALL
USER_CHARGES
 
@<TRIPOS>ATOM
       1    C1      19.054066   15.773697   24.079730 C.2        1 MOL1         0.6168
       2    O1      20.105875   15.313414   24.478601 O.co2      1 MOL1        -0.6703
       3    O2      18.059192   15.870146   24.771490 O.co2      1 MOL1        -0.6703
       4    C2      18.961483   16.192454   22.613675 C.3        1 MOL1        -0.1963
       5    H1      18.228475   15.523111   22.148749 H          1 MOL1         0.0750
       6    H2      19.922497   15.993402   22.124185 H          1 MOL1         0.0750
       7    C3      18.526846   17.665288   22.369889 C.3        1 MOL1        -0.1860
       8    H3      18.130129   17.735411   21.348057 H          1 MOL1         0.0752
       9    H4      17.692228   17.925509   23.035675 H          1 MOL1         0.0752
      10    C4      19.661227   18.711486   22.506212 C.3        1 MOL1        -0.1858
      11    H5      19.271820   19.672157   22.147058 H          1 MOL1         0.0752
      12    H6      20.491391   18.445346   21.837968 H          1 MOL1         0.0752
      13    C5      20.190712   18.881990   23.950843 C.3        1 MOL1        -0.1858
      14    H7      19.354970   19.088169   24.633336 H          1 MOL1         0.0752
      15    H8      20.640358   17.938916   24.284409 H          1 MOL1         0.0752
      16    C6      21.262213   19.990128   24.089740 C.3        1 MOL1        -0.1858
      17    H9      22.082066   19.800464   23.383556 H          1 MOL1         0.0752
      18    H10     21.698513   19.924518   25.095841 H          1 MOL1         0.0752
      19    C7      20.709509   21.418284   23.879197 C.3        1 MOL1        -0.1834
      20    H11     20.341436   21.536120   22.851886 H          1 MOL1         0.0752
      21    H12     19.854003   21.586634   24.547744 H          1 MOL1         0.0752
      22    C8      21.787931   22.486995   24.149303 C.3        1 MOL1        -0.2849
      23    H13     22.644989   22.358648   23.475250 H          1 MOL1         0.0764
      24    H14     21.381572   23.494689   23.992858 H          1 MOL1         0.0764
      25    H15     22.152396   22.425613   25.183101 H          1 MOL1         0.0764
@<TRIPOS>BOND
    1     1     2    1
    2     1     3    2
    3     1     4    1
    4     4     5    1
    5     4     6    1
    6     4     7    1
    7     7     8    1
    8     7     9    1
    9     7    10    1
   10    10    11    1
   11    10    12    1
   12    10    13    1
   13    13    14    1
   14    13    15    1
   15    13    16    1
   16    16    17    1
   17    16    18    1
   18    16    19    1
   19    19    20    1
   20    19    21    1
   21    19    22    1
   22    22    23    1
   23    22    24    1
   24    22    25    1
@<TRIPOS>SUBSTRUCTURE
       1 MOL1            1 RESIDUE      1      MOL     
@<SCITEGIC>MOL_PROPERTY
VConf Rank
SciTegic.value.IntegerValue
757

@<SCITEGIC>MOL_PROPERTY
Conf_Id
SciTegic.value.IntegerValue
114

@<SCITEGIC>MOL_PROPERTY
Delta U+W
SciTegic.value.DoubleValue
2.758

@<SCITEGIC>MOL_PROPERTY
U+W
SciTegic.value.DoubleValue
-48.871

@<SCITEGIC>MOL_PROPERTY
Grad RMS
SciTegic.value.DoubleValue
0.000000

@<SCITEGIC>MOL_PROPERTY
U
SciTegic.value.DoubleValue
11.422

@<SCITEGIC>MOL_PROPERTY
W
SciTegic.value.DoubleValue
-60.293

@<SCITEGIC>MOL_PROPERTY
W(PB)
SciTegic.value.DoubleValue
-62.719

@<SCITEGIC>MOL_PROPERTY
W(SA)
SciTegic.value.DoubleValue
2.425

@<SCITEGIC>MOL_PROPERTY
Valence
SciTegic.value.DoubleValue
10.135

@<SCITEGIC>MOL_PROPERTY
Coulomb
SciTegic.value.DoubleValue
0.369

@<SCITEGIC>MOL_PROPERTY
VdW
SciTegic.value.DoubleValue
0.918

@<SCITEGIC>MOL_PROPERTY
VdW6
SciTegic.value.DoubleValue
-10.482

@<SCITEGIC>MOL_PROPERTY
VdW12
SciTegic.value.DoubleValue
11.400

@<SCITEGIC>MOL_PROPERTY
Bond
SciTegic.value.DoubleValue
0.245

@<SCITEGIC>MOL_PROPERTY
Angle
SciTegic.value.DoubleValue
3.539

@<SCITEGIC>MOL_PROPERTY
Pdih
SciTegic.value.DoubleValue
6.346

@<SCITEGIC>MOL_PROPERTY
Idih
SciTegic.value.DoubleValue
0.006

@<SCITEGIC>MOL_PROPERTY
Tether
SciTegic.value.DoubleValue
0.000

@<TRIPOS>MOLECULE
guest-8_confgen4.mol2 : confsearch ligand conformer 758
          25          24           1
SMALL
USER_CHARGES
 
@<TRIPOS>ATOM
       1    C1      18.429041   15.806891   22.543839 C.2        1 MOL1         0.6168
       2    O1      18.456667   15.146560   23.563772 O.co2      1 MOL1        -0.6703
       3    O2      17.401992   16.174291   22.007850 O.co2      1 MOL1        -0.6703
       4    C2      19.755380   16.178831   21.887001 C.3        1 MOL1        -0.1963
       5    H1      19.655017   15.986329   20.812363 H          1 MOL1         0.0750
       6    H2      20.532713   15.500821   22.259602 H          1 MOL1         0.0750
       7    C3      20.176983   17.654155   22.112051 C.3        1 MOL1        -0.1860
       8    H3      21.065639   17.867966   21.503097 H          1 MOL1         0.0752
       9    H4      19.376335   18.311226   21.747979 H          1 MOL1         0.0752
      10    C4      20.489010   17.960339   23.596687 C.3        1 MOL1        -0.1858
      11    H5      21.223259   17.230138   23.963468 H          1 MOL1         0.0752
      12    H6      19.584785   17.821067   24.205194 H          1 MOL1         0.0752
      13    C5      21.053668   19.382048   23.830335 C.3        1 MOL1        -0.1858
      14    H7      21.377686   19.449912   24.876562 H          1 MOL1         0.0752
      15    H8      21.952526   19.526888   23.215845 H          1 MOL1         0.0752
      16    C6      20.031375   20.507405   23.535326 C.3        1 MOL1        -0.1858
      17    H9      19.131246   20.359986   24.147467 H          1 MOL1         0.0752
      18    H10     19.709770   20.443572   22.488158 H          1 MOL1         0.0752
      19    C7      20.594330   21.927723   23.776605 C.3        1 MOL1        -0.1834
      20    H11     21.501621   22.074626   23.174499 H          1 MOL1         0.0752
      21    H12     19.860933   22.662086   23.415941 H          1 MOL1         0.0752
      22    C8      20.901081   22.223190   25.261028 C.3        1 MOL1        -0.2849
      23    H13     21.204580   23.270325   25.388693 H          1 MOL1         0.0764
      24    H14     20.016391   22.049312   25.887289 H          1 MOL1         0.0764
      25    H15     21.717789   21.593836   25.635607 H          1 MOL1         0.0764
@<TRIPOS>BOND
    1     1     2    1
    2     1     3    2
    3     1     4    1
    4     4     5    1
    5     4     6    1
    6     4     7    1
    7     7     8    1
    8     7     9    1
    9     7    10    1
   10    10    11    1
   11    10    12    1
   12    10    13    1
   13    13    14    1
   14    13    15    1
   15    13    16    1
   16    16    17    1
   17    16    18    1
   18    16    19    1
   19    19    20    1
   20    19    21    1
   21    19    22    1
   22    22    23    1
   23    22    24    1
   24    22    25    1
@<TRIPOS>SUBSTRUCTURE
       1 MOL1            1 RESIDUE      1      MOL     
@<SCITEGIC>MOL_PROPERTY
VConf Rank
SciTegic.value.IntegerValue
758

@<SCITEGIC>MOL_PROPERTY
Conf_Id
SciTegic.value.IntegerValue
87

@<SCITEGIC>MOL_PROPERTY
Delta U+W
SciTegic.value.DoubleValue
1.453

@<SCITEGIC>MOL_PROPERTY
U+W
SciTegic.value.DoubleValue
-50.176

@<SCITEGIC>MOL_PROPERTY
Grad RMS
SciTegic.value.DoubleValue
0.000000

@<SCITEGIC>MOL_PROPERTY
U
SciTegic.value.DoubleValue
9.763

@<SCITEGIC>MOL_PROPERTY
W
SciTegic.value.DoubleValue
-59.940

@<SCITEGIC>MOL_PROPERTY
W(PB)
SciTegic.value.DoubleValue
-62.392

@<SCITEGIC>MOL_PROPERTY
W(SA)
SciTegic.value.DoubleValue
2.452

@<SCITEGIC>MOL_PROPERTY
Valence
SciTegic.value.DoubleValue
8.883

@<SCITEGIC>MOL_PROPERTY
Coulomb
SciTegic.value.DoubleValue
-0.122

@<SCITEGIC>MOL_PROPERTY
VdW
SciTegic.value.DoubleValue
1.003

@<SCITEGIC>MOL_PROPERTY
VdW6
SciTegic.value.DoubleValue
-9.782

@<SCITEGIC>MOL_PROPERTY
VdW12
SciTegic.value.DoubleValue
10.785

@<SCITEGIC>MOL_PROPERTY
Bond
SciTegic.value.DoubleValue
0.212

@<SCITEGIC>MOL_PROPERTY
Angle
SciTegic.value.DoubleValue
2.940

@<SCITEGIC>MOL_PROPERTY
Pdih
SciTegic.value.DoubleValue
5.730

@<SCITEGIC>MOL_PROPERTY
Idih
SciTegic.value.DoubleValue
0.001

@<SCITEGIC>MOL_PROPERTY
Tether
SciTegic.value.DoubleValue
0.000

@<TRIPOS>MOLECULE
guest-8_confgen4.mol2 : confsearch ligand conformer 759
          25          24           1
SMALL
USER_CHARGES
 
@<TRIPOS>ATOM
       1    C1      16.745616   19.156909   21.179582 C.2        1 MOL1         0.6168
       2    O1      16.198636   18.131127   21.533514 O.co2      1 MOL1        -0.6703
       3    O2      16.145333   20.158587   20.843360 O.co2      1 MOL1        -0.6703
       4    C2      18.269643   19.195402   21.174567 C.3        1 MOL1        -0.1963
       5    H1      18.590963   19.856219   20.360591 H          1 MOL1         0.0750
       6    H2      18.635153   18.188695   20.938939 H          1 MOL1         0.0750
       7    C3      18.863396   19.676992   22.521220 C.3        1 MOL1        -0.1860
       8    H3      18.482171   20.682153   22.748067 H          1 MOL1         0.0752
       9    H4      18.512182   19.012661   23.321906 H          1 MOL1         0.0752
      10    C4      20.409102   19.699803   22.491207 C.3        1 MOL1        -0.1858
      11    H5      20.741006   20.312717   21.642208 H          1 MOL1         0.0752
      12    H6      20.792208   18.688017   22.304328 H          1 MOL1         0.0752
      13    C5      21.042504   20.273058   23.783692 C.3        1 MOL1        -0.1858
      14    H7      22.132576   20.309837   23.658112 H          1 MOL1         0.0752
      15    H8      20.722143   21.317006   23.902059 H          1 MOL1         0.0752
      16    C6      20.704017   19.501051   25.086478 C.3        1 MOL1        -0.1858
      17    H9      19.632266   19.603187   25.301382 H          1 MOL1         0.0752
      18    H10     21.221663   19.986288   25.924976 H          1 MOL1         0.0752
      19    C7      21.072717   17.997026   25.076478 C.3        1 MOL1        -0.1834
      20    H11     20.765293   17.554671   26.033932 H          1 MOL1         0.0752
      21    H12     20.498469   17.472407   24.301335 H          1 MOL1         0.0752
      22    C8      22.581373   17.739975   24.871725 C.3        1 MOL1        -0.2849
      23    H13     23.176058   18.269394   25.627371 H          1 MOL1         0.0764
      24    H14     22.803537   16.668360   24.955453 H          1 MOL1         0.0764
      25    H15     22.910983   18.071830   23.879165 H          1 MOL1         0.0764
@<TRIPOS>BOND
    1     1     2    1
    2     1     3    2
    3     1     4    1
    4     4     5    1
    5     4     6    1
    6     4     7    1
    7     7     8    1
    8     7     9    1
    9     7    10    1
   10    10    11    1
   11    10    12    1
   12    10    13    1
   13    13    14    1
   14    13    15    1
   15    13    16    1
   16    16    17    1
   17    16    18    1
   18    16    19    1
   19    19    20    1
   20    19    21    1
   21    19    22    1
   22    22    23    1
   23    22    24    1
   24    22    25    1
@<TRIPOS>SUBSTRUCTURE
       1 MOL1            1 RESIDUE      1      MOL     
@<SCITEGIC>MOL_PROPERTY
VConf Rank
SciTegic.value.IntegerValue
759

@<SCITEGIC>MOL_PROPERTY
Conf_Id
SciTegic.value.IntegerValue
29

@<SCITEGIC>MOL_PROPERTY
Delta U+W
SciTegic.value.DoubleValue
0.850

@<SCITEGIC>MOL_PROPERTY
U+W
SciTegic.value.DoubleValue
-50.780

@<SCITEGIC>MOL_PROPERTY
Grad RMS
SciTegic.value.DoubleValue
0.000000

@<SCITEGIC>MOL_PROPERTY
U
SciTegic.value.DoubleValue
8.646

@<SCITEGIC>MOL_PROPERTY
W
SciTegic.value.DoubleValue
-59.426

@<SCITEGIC>MOL_PROPERTY
W(PB)
SciTegic.value.DoubleValue
-61.868

@<SCITEGIC>MOL_PROPERTY
W(SA)
SciTegic.value.DoubleValue
2.442

@<SCITEGIC>MOL_PROPERTY
Valence
SciTegic.value.DoubleValue
8.924

@<SCITEGIC>MOL_PROPERTY
Coulomb
SciTegic.value.DoubleValue
-1.171

@<SCITEGIC>MOL_PROPERTY
VdW
SciTegic.value.DoubleValue
0.894

@<SCITEGIC>MOL_PROPERTY
VdW6
SciTegic.value.DoubleValue
-10.223

@<SCITEGIC>MOL_PROPERTY
VdW12
SciTegic.value.DoubleValue
11.117

@<SCITEGIC>MOL_PROPERTY
Bond
SciTegic.value.DoubleValue
0.231

@<SCITEGIC>MOL_PROPERTY
Angle
SciTegic.value.DoubleValue
3.232

@<SCITEGIC>MOL_PROPERTY
Pdih
SciTegic.value.DoubleValue
5.461

@<SCITEGIC>MOL_PROPERTY
Idih
SciTegic.value.DoubleValue
0.001

@<SCITEGIC>MOL_PROPERTY
Tether
SciTegic.value.DoubleValue
0.000

@<TRIPOS>MOLECULE
guest-8_confgen4.mol2 : confsearch ligand conformer 760
          25          24           1
SMALL
USER_CHARGES
 
@<TRIPOS>ATOM
       1    C1      18.556084   15.672164   24.495978 C.2        1 MOL1         0.6168
       2    O1      17.805658   15.994067   25.395936 O.co2      1 MOL1        -0.6703
       3    O2      19.166757   14.621816   24.471779 O.co2      1 MOL1        -0.6703
       4    C2      18.757240   16.648377   23.342411 C.3        1 MOL1        -0.1963
       5    H1      17.821517   17.201402   23.196943 H          1 MOL1         0.0750
       6    H2      18.935258   16.065973   22.430492 H          1 MOL1         0.0750
       7    C3      19.927002   17.633551   23.585408 C.3        1 MOL1        -0.1860
       8    H3      19.735854   18.189841   24.512656 H          1 MOL1         0.0752
       9    H4      20.855160   17.065652   23.737576 H          1 MOL1         0.0752
      10    C4      20.104187   18.616063   22.404768 C.3        1 MOL1        -0.1858
      11    H5      19.191183   19.212355   22.277224 H          1 MOL1         0.0752
      12    H6      20.224610   18.041228   21.476499 H          1 MOL1         0.0752
      13    C5      21.328290   19.552885   22.560576 C.3        1 MOL1        -0.1858
      14    H7      22.240369   18.941599   22.590795 H          1 MOL1         0.0752
      15    H8      21.416883   20.173303   21.659126 H          1 MOL1         0.0752
      16    C6      21.305910   20.470135   23.811965 C.3        1 MOL1        -0.1858
      17    H9      22.208195   21.096462   23.802585 H          1 MOL1         0.0752
      18    H10     21.383613   19.852791   24.716462 H          1 MOL1         0.0752
      19    C7      20.064075   21.387054   23.935402 C.3        1 MOL1        -0.1834
      20    H11     19.154662   20.779891   24.036189 H          1 MOL1         0.0752
      21    H12     20.147299   21.966123   24.865271 H          1 MOL1         0.0752
      22    C8      19.908783   22.366575   22.751992 C.3        1 MOL1        -0.2849
      23    H13     19.716157   21.830850   21.813995 H          1 MOL1         0.0764
      24    H14     19.066204   23.048296   22.925329 H          1 MOL1         0.0764
      25    H15     20.814471   22.973197   22.622864 H          1 MOL1         0.0764
@<TRIPOS>BOND
    1     1     2    1
    2     1     3    2
    3     1     4    1
    4     4     5    1
    5     4     6    1
    6     4     7    1
    7     7     8    1
    8     7     9    1
    9     7    10    1
   10    10    11    1
   11    10    12    1
   12    10    13    1
   13    13    14    1
   14    13    15    1
   15    13    16    1
   16    16    17    1
   17    16    18    1
   18    16    19    1
   19    19    20    1
   20    19    21    1
   21    19    22    1
   22    22    23    1
   23    22    24    1
   24    22    25    1
@<TRIPOS>SUBSTRUCTURE
       1 MOL1            1 RESIDUE      1      MOL     
@<SCITEGIC>MOL_PROPERTY
VConf Rank
SciTegic.value.IntegerValue
760

@<SCITEGIC>MOL_PROPERTY
Conf_Id
SciTegic.value.IntegerValue
30

@<SCITEGIC>MOL_PROPERTY
Delta U+W
SciTegic.value.DoubleValue
0.843

@<SCITEGIC>MOL_PROPERTY
U+W
SciTegic.value.DoubleValue
-50.787

@<SCITEGIC>MOL_PROPERTY
Grad RMS
SciTegic.value.DoubleValue
0.000000

@<SCITEGIC>MOL_PROPERTY
U
SciTegic.value.DoubleValue
8.647

@<SCITEGIC>MOL_PROPERTY
W
SciTegic.value.DoubleValue
-59.434

@<SCITEGIC>MOL_PROPERTY
W(PB)
SciTegic.value.DoubleValue
-61.861

@<SCITEGIC>MOL_PROPERTY
W(SA)
SciTegic.value.DoubleValue
2.428

@<SCITEGIC>MOL_PROPERTY
Valence
SciTegic.value.DoubleValue
8.924

@<SCITEGIC>MOL_PROPERTY
Coulomb
SciTegic.value.DoubleValue
-1.170

@<SCITEGIC>MOL_PROPERTY
VdW
SciTegic.value.DoubleValue
0.894

@<SCITEGIC>MOL_PROPERTY
VdW6
SciTegic.value.DoubleValue
-10.224

@<SCITEGIC>MOL_PROPERTY
VdW12
SciTegic.value.DoubleValue
11.118

@<SCITEGIC>MOL_PROPERTY
Bond
SciTegic.value.DoubleValue
0.231

@<SCITEGIC>MOL_PROPERTY
Angle
SciTegic.value.DoubleValue
3.232

@<SCITEGIC>MOL_PROPERTY
Pdih
SciTegic.value.DoubleValue
5.460

@<SCITEGIC>MOL_PROPERTY
Idih
SciTegic.value.DoubleValue
0.000

@<SCITEGIC>MOL_PROPERTY
Tether
SciTegic.value.DoubleValue
0.000

@<TRIPOS>MOLECULE
guest-8_confgen4.mol2 : confsearch ligand conformer 761
          25          24           1
SMALL
USER_CHARGES
 
@<TRIPOS>ATOM
       1    C1      19.576204   16.454946   26.934012 C.2        1 MOL1         0.6168
       2    O1      18.423688   16.794366   27.121366 O.co2      1 MOL1        -0.6703
       3    O2      20.158903   15.662081   27.646715 O.co2      1 MOL1        -0.6703
       4    C2      20.355922   17.036436   25.753627 C.3        1 MOL1        -0.1963
       5    H1      20.696172   16.194130   25.139902 H          1 MOL1         0.0750
       6    H2      21.251916   17.520001   26.160156 H          1 MOL1         0.0750
       7    C3      19.569998   18.043739   24.872672 C.3        1 MOL1        -0.1860
       8    H3      18.670395   17.554650   24.473909 H          1 MOL1         0.0752
       9    H4      19.226684   18.881754   25.495064 H          1 MOL1         0.0752
      10    C4      20.429562   18.580136   23.707308 C.3        1 MOL1        -0.1858
      11    H5      20.771670   17.740651   23.086532 H          1 MOL1         0.0752
      12    H6      21.328295   19.068603   24.108326 H          1 MOL1         0.0752
      13    C5      19.645813   19.581926   22.832299 C.3        1 MOL1        -0.1858
      14    H7      18.747031   19.093721   22.431112 H          1 MOL1         0.0752
      15    H8      19.303611   20.421555   23.452803 H          1 MOL1         0.0752
      16    C6      20.504688   20.118634   21.666884 C.3        1 MOL1        -0.1858
      17    H9      20.846958   19.279165   21.046211 H          1 MOL1         0.0752
      18    H10     21.403486   20.606980   22.067852 H          1 MOL1         0.0752
      19    C7      19.721374   21.119960   20.792168 C.3        1 MOL1        -0.1834
      20    H11     18.822425   20.634364   20.387724 H          1 MOL1         0.0752
      21    H12     19.378952   21.962173   21.409348 H          1 MOL1         0.0752
      22    C8      20.582388   21.653557   19.629613 C.3        1 MOL1        -0.2849
      23    H13     20.912795   20.834528   18.977371 H          1 MOL1         0.0764
      24    H14     20.010125   22.363588   19.018500 H          1 MOL1         0.0764
      25    H15     21.473497   22.172347   20.006679 H          1 MOL1         0.0764
@<TRIPOS>BOND
    1     1     2    1
    2     1     3    2
    3     1     4    1
    4     4     5    1
    5     4     6    1
    6     4     7    1
    7     7     8    1
    8     7     9    1
    9     7    10    1
   10    10    11    1
   11    10    12    1
   12    10    13    1
   13    13    14    1
   14    13    15    1
   15    13    16    1
   16    16    17    1
   17    16    18    1
   18    16    19    1
   19    19    20    1
   20    19    21    1
   21    19    22    1
   22    22    23    1
   23    22    24    1
   24    22    25    1
@<TRIPOS>SUBSTRUCTURE
       1 MOL1            1 RESIDUE      1      MOL     
@<SCITEGIC>MOL_PROPERTY
VConf Rank
SciTegic.value.IntegerValue
761

@<SCITEGIC>MOL_PROPERTY
Conf_Id
SciTegic.value.IntegerValue
0

@<SCITEGIC>MOL_PROPERTY
Delta U+W
SciTegic.value.DoubleValue
0.000

@<SCITEGIC>MOL_PROPERTY
U+W
SciTegic.value.DoubleValue
-51.629

@<SCITEGIC>MOL_PROPERTY
Grad RMS
SciTegic.value.DoubleValue
0.000000

@<SCITEGIC>MOL_PROPERTY
U
SciTegic.value.DoubleValue
6.586

@<SCITEGIC>MOL_PROPERTY
W
SciTegic.value.DoubleValue
-58.216

@<SCITEGIC>MOL_PROPERTY
W(PB)
SciTegic.value.DoubleValue
-60.757

@<SCITEGIC>MOL_PROPERTY
W(SA)
SciTegic.value.DoubleValue
2.541

@<SCITEGIC>MOL_PROPERTY
Valence
SciTegic.value.DoubleValue
8.027

@<SCITEGIC>MOL_PROPERTY
Coulomb
SciTegic.value.DoubleValue
-2.892

@<SCITEGIC>MOL_PROPERTY
VdW
SciTegic.value.DoubleValue
1.451

@<SCITEGIC>MOL_PROPERTY
VdW6
SciTegic.value.DoubleValue
-7.931

@<SCITEGIC>MOL_PROPERTY
VdW12
SciTegic.value.DoubleValue
9.383

@<SCITEGIC>MOL_PROPERTY
Bond
SciTegic.value.DoubleValue
0.149

@<SCITEGIC>MOL_PROPERTY
Angle
SciTegic.value.DoubleValue
2.726

@<SCITEGIC>MOL_PROPERTY
Pdih
SciTegic.value.DoubleValue
5.152

@<SCITEGIC>MOL_PROPERTY
Idih
SciTegic.value.DoubleValue
0.000

@<SCITEGIC>MOL_PROPERTY
Tether
SciTegic.value.DoubleValue
0.000

@<TRIPOS>MOLECULE
guest-8_confgen4.mol2 : confsearch ligand conformer 762
          25          24           1
SMALL
USER_CHARGES
 
@<TRIPOS>ATOM
       1    C1      16.711499   22.105937   24.354133 C.2        1 MOL1         0.6168
       2    O1      16.658291   22.349454   25.543456 O.co2      1 MOL1        -0.6703
       3    O2      16.405490   22.902739   23.489213 O.co2      1 MOL1        -0.6703
       4    C2      17.211890   20.732105   23.922538 C.3        1 MOL1        -0.1963
       5    H1      16.700163   20.460233   22.991503 H          1 MOL1         0.0750
       6    H2      16.907850   20.004118   24.684247 H          1 MOL1         0.0750
       7    C3      18.746744   20.686872   23.722034 C.3        1 MOL1        -0.1860
       8    H3      19.036064   21.430377   22.966331 H          1 MOL1         0.0752
       9    H4      19.243733   20.974429   24.659001 H          1 MOL1         0.0752
      10    C4      19.228528   19.286338   23.285673 C.3        1 MOL1        -0.1858
      11    H5      18.729075   19.001403   22.349435 H          1 MOL1         0.0752
      12    H6      18.936578   18.545283   24.042497 H          1 MOL1         0.0752
      13    C5      20.758933   19.244257   23.086785 C.3        1 MOL1        -0.1858
      14    H7      21.051108   19.985170   22.329959 H          1 MOL1         0.0752
      15    H8      21.258569   19.529139   24.022899 H          1 MOL1         0.0752
      16    C6      21.241454   17.844012   22.650476 C.3        1 MOL1        -0.1858
      17    H9      20.742068   17.558872   21.714311 H          1 MOL1         0.0752
      18    H10     20.949435   17.102860   23.407123 H          1 MOL1         0.0752
      19    C7      22.771181   17.801742   22.451703 C.3        1 MOL1        -0.1834
      20    H11     23.066873   18.540632   21.694011 H          1 MOL1         0.0752
      21    H12     23.274236   18.084591   23.386808 H          1 MOL1         0.0752
      22    C8      23.249030   16.401931   22.016054 C.3        1 MOL1        -0.2849
      23    H13     24.338195   16.390052   21.879431 H          1 MOL1         0.0764
      24    H14     22.993979   15.647072   22.771391 H          1 MOL1         0.0764
      25    H15     22.785053   16.106552   21.065857 H          1 MOL1         0.0764
@<TRIPOS>BOND
    1     1     2    1
    2     1     3    2
    3     1     4    1
    4     4     5    1
    5     4     6    1
    6     4     7    1
    7     7     8    1
    8     7     9    1
    9     7    10    1
   10    10    11    1
   11    10    12    1
   12    10    13    1
   13    13    14    1
   14    13    15    1
   15    13    16    1
   16    16    17    1
   17    16    18    1
   18    16    19    1
   19    19    20    1
   20    19    21    1
   21    19    22    1
   22    22    23    1
   23    22    24    1
   24    22    25    1
@<TRIPOS>SUBSTRUCTURE
       1 MOL1            1 RESIDUE      1      MOL     
@<SCITEGIC>MOL_PROPERTY
VConf Rank
SciTegic.value.IntegerValue
762

@<SCITEGIC>MOL_PROPERTY
Conf_Id
SciTegic.value.IntegerValue
27

@<SCITEGIC>MOL_PROPERTY
Delta U+W
SciTegic.value.DoubleValue
-1.297

@<SCITEGIC>MOL_PROPERTY
U+W
SciTegic.value.DoubleValue
-52.926

@<SCITEGIC>MOL_PROPERTY
Grad RMS
SciTegic.value.DoubleValue
0.000000

@<SCITEGIC>MOL_PROPERTY
U
SciTegic.value.DoubleValue
5.617

@<SCITEGIC>MOL_PROPERTY
W
SciTegic.value.DoubleValue
-58.543

@<SCITEGIC>MOL_PROPERTY
W(PB)
SciTegic.value.DoubleValue
-61.065

@<SCITEGIC>MOL_PROPERTY
W(SA)
SciTegic.value.DoubleValue
2.522

@<SCITEGIC>MOL_PROPERTY
Valence
SciTegic.value.DoubleValue
7.531

@<SCITEGIC>MOL_PROPERTY
Coulomb
SciTegic.value.DoubleValue
-2.818

@<SCITEGIC>MOL_PROPERTY
VdW
SciTegic.value.DoubleValue
0.904

@<SCITEGIC>MOL_PROPERTY
VdW6
SciTegic.value.DoubleValue
-7.640

@<SCITEGIC>MOL_PROPERTY
VdW12
SciTegic.value.DoubleValue
8.544

@<SCITEGIC>MOL_PROPERTY
Bond
SciTegic.value.DoubleValue
0.115

@<SCITEGIC>MOL_PROPERTY
Angle
SciTegic.value.DoubleValue
2.271

@<SCITEGIC>MOL_PROPERTY
Pdih
SciTegic.value.DoubleValue
5.144

@<SCITEGIC>MOL_PROPERTY
Idih
SciTegic.value.DoubleValue
0.001

@<SCITEGIC>MOL_PROPERTY
Tether
SciTegic.value.DoubleValue
0.000

@<TRIPOS>MOLECULE
guest-8_confgen4.mol2 : confsearch ligand conformer 763
          25          24           1
SMALL
USER_CHARGES
 
@<TRIPOS>ATOM
       1    C1      20.641415   19.569545   19.362636 C.2        1 MOL1         0.6168
       2    O1      21.512549   20.359462   19.055661 O.co2      1 MOL1        -0.6703
       3    O2      20.698564   18.379069   19.125014 O.co2      1 MOL1        -0.6703
       4    C2      19.400788   20.107049   20.070377 C.3        1 MOL1        -0.1963
       5    H1      18.593190   19.372139   19.967711 H          1 MOL1         0.0750
       6    H2      19.080908   21.007416   19.532789 H          1 MOL1         0.0750
       7    C3      19.626870   20.449267   21.565943 C.3        1 MOL1        -0.1860
       8    H3      20.456357   21.164691   21.654216 H          1 MOL1         0.0752
       9    H4      18.731976   20.953235   21.955468 H          1 MOL1         0.0752
      10    C4      19.921156   19.198254   22.423923 C.3        1 MOL1        -0.1858
      11    H5      20.825673   18.698000   22.051073 H          1 MOL1         0.0752
      12    H6      19.095606   18.480594   22.321683 H          1 MOL1         0.0752
      13    C5      20.111088   19.558090   23.913244 C.3        1 MOL1        -0.1858
      14    H7      20.936814   20.275737   24.014471 H          1 MOL1         0.0752
      15    H8      19.206599   20.055769   24.289080 H          1 MOL1         0.0752
      16    C6      20.406020   18.308651   24.771020 C.3        1 MOL1        -0.1858
      17    H9      21.310488   17.810799   24.395240 H          1 MOL1         0.0752
      18    H10     19.580572   17.590708   24.669655 H          1 MOL1         0.0752
      19    C7      20.596460   18.667877   26.259663 C.3        1 MOL1        -0.1834
      20    H11     21.422722   19.384587   26.365020 H          1 MOL1         0.0752
      21    H12     19.692765   19.164415   26.639484 H          1 MOL1         0.0752
      22    C8      20.890929   17.417558   27.112656 C.3        1 MOL1        -0.2849
      23    H13     21.808328   16.918315   26.774228 H          1 MOL1         0.0764
      24    H14     21.023438   17.691206   28.167473 H          1 MOL1         0.0764
      25    H15     20.065369   16.696441   27.050731 H          1 MOL1         0.0764
@<TRIPOS>BOND
    1     1     2    1
    2     1     3    2
    3     1     4    1
    4     4     5    1
    5     4     6    1
    6     4     7    1
    7     7     8    1
    8     7     9    1
    9     7    10    1
   10    10    11    1
   11    10    12    1
   12    10    13    1
   13    13    14    1
   14    13    15    1
   15    13    16    1
   16    16    17    1
   17    16    18    1
   18    16    19    1
   19    19    20    1
   20    19    21    1
   21    19    22    1
   22    22    23    1
   23    22    24    1
   24    22    25    1
@<TRIPOS>SUBSTRUCTURE
       1 MOL1            1 RESIDUE      1      MOL     
@<SCITEGIC>MOL_PROPERTY
VConf Rank
SciTegic.value.IntegerValue
763

@<SCITEGIC>MOL_PROPERTY
Conf_Id
SciTegic.value.IntegerValue
37

@<SCITEGIC>MOL_PROPERTY
Delta U+W
SciTegic.value.DoubleValue
-0.230

@<SCITEGIC>MOL_PROPERTY
U+W
SciTegic.value.DoubleValue
-51.860

@<SCITEGIC>MOL_PROPERTY
Grad RMS
SciTegic.value.DoubleValue
0.000000

@<SCITEGIC>MOL_PROPERTY
U
SciTegic.value.DoubleValue
7.816

@<SCITEGIC>MOL_PROPERTY
W
SciTegic.value.DoubleValue
-59.675

@<SCITEGIC>MOL_PROPERTY
W(PB)
SciTegic.value.DoubleValue
-62.180

@<SCITEGIC>MOL_PROPERTY
W(SA)
SciTegic.value.DoubleValue
2.505

@<SCITEGIC>MOL_PROPERTY
Valence
SciTegic.value.DoubleValue
7.785

@<SCITEGIC>MOL_PROPERTY
Coulomb
SciTegic.value.DoubleValue
-0.713

@<SCITEGIC>MOL_PROPERTY
VdW
SciTegic.value.DoubleValue
0.744

@<SCITEGIC>MOL_PROPERTY
VdW6
SciTegic.value.DoubleValue
-8.514

@<SCITEGIC>MOL_PROPERTY
VdW12
SciTegic.value.DoubleValue
9.259

@<SCITEGIC>MOL_PROPERTY
Bond
SciTegic.value.DoubleValue
0.136

@<SCITEGIC>MOL_PROPERTY
Angle
SciTegic.value.DoubleValue
2.433

@<SCITEGIC>MOL_PROPERTY
Pdih
SciTegic.value.DoubleValue
5.216

@<SCITEGIC>MOL_PROPERTY
Idih
SciTegic.value.DoubleValue
0.000

@<SCITEGIC>MOL_PROPERTY
Tether
SciTegic.value.DoubleValue
0.000

@<TRIPOS>MOLECULE
guest-8_confgen4.mol2 : confsearch ligand conformer 764
          25          24           1
SMALL
USER_CHARGES
 
@<TRIPOS>ATOM
       1    C1      16.018899   19.321998   22.656335 C.2        1 MOL1         0.6168
       2    O1      15.713122   19.717005   21.548389 O.co2      1 MOL1        -0.6703
       3    O2      15.741170   19.912594   23.681530 O.co2      1 MOL1        -0.6703
       4    C2      16.779285   18.003268   22.764662 C.3        1 MOL1        -0.1963
       5    H1      16.280763   17.282328   22.106099 H          1 MOL1         0.0750
       6    H2      16.676076   17.622702   23.788070 H          1 MOL1         0.0750
       7    C3      18.278060   18.106410   22.379980 C.3        1 MOL1        -0.1860
       8    H3      18.709426   17.096584   22.353082 H          1 MOL1         0.0752
       9    H4      18.365628   18.514878   21.363536 H          1 MOL1         0.0752
      10    C4      19.086018   18.979435   23.366285 C.3        1 MOL1        -0.1858
      11    H5      18.984424   18.574829   24.382649 H          1 MOL1         0.0752
      12    H6      18.671077   19.996718   23.385818 H          1 MOL1         0.0752
      13    C5      20.580130   19.042315   22.982484 C.3        1 MOL1        -0.1858
      14    H7      20.997953   18.026362   22.965163 H          1 MOL1         0.0752
      15    H8      20.680703   19.447137   21.966072 H          1 MOL1         0.0752
      16    C6      21.387953   19.915055   23.967168 C.3        1 MOL1        -0.1858
      17    H9      21.287279   19.510570   24.983700 H          1 MOL1         0.0752
      18    H10     20.970153   20.931058   23.984705 H          1 MOL1         0.0752
      19    C7      22.881336   19.978711   23.583602 C.3        1 MOL1        -0.1834
      20    H11     23.303089   18.964156   23.566830 H          1 MOL1         0.0752
      21    H12     22.985936   20.384748   22.567888 H          1 MOL1         0.0752
      22    C8      23.684393   20.851128   24.569295 C.3        1 MOL1        -0.2849
      23    H13     23.623070   20.449464   25.589247 H          1 MOL1         0.0764
      24    H14     24.743249   20.885318   24.281655 H          1 MOL1         0.0764
      25    H15     23.303463   21.880743   24.582826 H          1 MOL1         0.0764
@<TRIPOS>BOND
    1     1     2    1
    2     1     3    2
    3     1     4    1
    4     4     5    1
    5     4     6    1
    6     4     7    1
    7     7     8    1
    8     7     9    1
    9     7    10    1
   10    10    11    1
   11    10    12    1
   12    10    13    1
   13    13    14    1
   14    13    15    1
   15    13    16    1
   16    16    17    1
   17    16    18    1
   18    16    19    1
   19    19    20    1
   20    19    21    1
   21    19    22    1
   22    22    23    1
   23    22    24    1
   24    22    25    1
@<TRIPOS>SUBSTRUCTURE
       1 MOL1            1 RESIDUE      1      MOL     
@<SCITEGIC>MOL_PROPERTY
VConf Rank
SciTegic.value.IntegerValue
764

@<SCITEGIC>MOL_PROPERTY
Conf_Id
SciTegic.value.IntegerValue
54

@<SCITEGIC>MOL_PROPERTY
Delta U+W
SciTegic.value.DoubleValue
-0.224

@<SCITEGIC>MOL_PROPERTY
U+W
SciTegic.value.DoubleValue
-51.854

@<SCITEGIC>MOL_PROPERTY
Grad RMS
SciTegic.value.DoubleValue
0.000000

@<SCITEGIC>MOL_PROPERTY
U
SciTegic.value.DoubleValue
7.816

@<SCITEGIC>MOL_PROPERTY
W
SciTegic.value.DoubleValue
-59.670

@<SCITEGIC>MOL_PROPERTY
W(PB)
SciTegic.value.DoubleValue
-62.157

@<SCITEGIC>MOL_PROPERTY
W(SA)
SciTegic.value.DoubleValue
2.487

@<SCITEGIC>MOL_PROPERTY
Valence
SciTegic.value.DoubleValue
7.785

@<SCITEGIC>MOL_PROPERTY
Coulomb
SciTegic.value.DoubleValue
-0.713

@<SCITEGIC>MOL_PROPERTY
VdW
SciTegic.value.DoubleValue
0.744

@<SCITEGIC>MOL_PROPERTY
VdW6
SciTegic.value.DoubleValue
-8.515

@<SCITEGIC>MOL_PROPERTY
VdW12
SciTegic.value.DoubleValue
9.259

@<SCITEGIC>MOL_PROPERTY
Bond
SciTegic.value.DoubleValue
0.136

@<SCITEGIC>MOL_PROPERTY
Angle
SciTegic.value.DoubleValue
2.433

@<SCITEGIC>MOL_PROPERTY
Pdih
SciTegic.value.DoubleValue
5.215

@<SCITEGIC>MOL_PROPERTY
Idih
SciTegic.value.DoubleValue
0.000

@<SCITEGIC>MOL_PROPERTY
Tether
SciTegic.value.DoubleValue
0.000

@<TRIPOS>MOLECULE
guest-8_confgen4.mol2 : confsearch ligand conformer 765
          25          24           1
SMALL
USER_CHARGES
 
@<TRIPOS>ATOM
       1    C1      19.736659   22.738968   21.523164 C.2        1 MOL1         0.6168
       2    O1      20.080792   22.555580   20.372082 O.co2      1 MOL1        -0.6703
       3    O2      18.698711   23.288784   21.835376 O.co2      1 MOL1        -0.6703
       4    C2      20.666092   22.270518   22.639360 C.3        1 MOL1        -0.1963
       5    H1      20.743310   23.088589   23.365147 H          1 MOL1         0.0750
       6    H2      21.668934   22.121490   22.221116 H          1 MOL1         0.0750
       7    C3      20.189684   20.982457   23.360192 C.3        1 MOL1        -0.1860
       8    H3      20.830250   20.818371   24.235723 H          1 MOL1         0.0752
       9    H4      19.168685   21.133268   23.737309 H          1 MOL1         0.0752
      10    C4      20.231214   19.737753   22.440987 C.3        1 MOL1        -0.1858
      11    H5      21.260829   19.561104   22.101185 H          1 MOL1         0.0752
      12    H6      19.638472   19.938381   21.538001 H          1 MOL1         0.0752
      13    C5      19.677970   18.455720   23.108273 C.3        1 MOL1        -0.1858
      14    H7      18.655216   18.638774   23.464703 H          1 MOL1         0.0752
      15    H8      19.604052   17.678401   22.337247 H          1 MOL1         0.0752
      16    C6      20.554431   17.938251   24.275694 C.3        1 MOL1        -0.1858
      17    H9      20.623856   18.711052   25.051472 H          1 MOL1         0.0752
      18    H10     21.578290   17.760214   23.919840 H          1 MOL1         0.0752
      19    C7      20.004252   16.650663   24.932891 C.3        1 MOL1        -0.1834
      20    H11     20.600476   16.431703   25.829451 H          1 MOL1         0.0752
      21    H12     18.975449   16.821030   25.279070 H          1 MOL1         0.0752
      22    C8      20.042869   15.420002   24.000732 C.3        1 MOL1        -0.2849
      23    H13     19.364310   15.540794   23.147286 H          1 MOL1         0.0764
      24    H14     21.056484   15.251204   23.614463 H          1 MOL1         0.0764
      25    H15     19.734080   14.517664   24.544183 H          1 MOL1         0.0764
@<TRIPOS>BOND
    1     1     2    1
    2     1     3    2
    3     1     4    1
    4     4     5    1
    5     4     6    1
    6     4     7    1
    7     7     8    1
    8     7     9    1
    9     7    10    1
   10    10    11    1
   11    10    12    1
   12    10    13    1
   13    13    14    1
   14    13    15    1
   15    13    16    1
   16    16    17    1
   17    16    18    1
   18    16    19    1
   19    19    20    1
   20    19    21    1
   21    19    22    1
   22    22    23    1
   23    22    24    1
   24    22    25    1
@<TRIPOS>SUBSTRUCTURE
       1 MOL1            1 RESIDUE      1      MOL     
@<SCITEGIC>MOL_PROPERTY
VConf Rank
SciTegic.value.IntegerValue
765

@<SCITEGIC>MOL_PROPERTY
Conf_Id
SciTegic.value.IntegerValue
101

@<SCITEGIC>MOL_PROPERTY
Delta U+W
SciTegic.value.DoubleValue
1.534

@<SCITEGIC>MOL_PROPERTY
U+W
SciTegic.value.DoubleValue
-50.095

@<SCITEGIC>MOL_PROPERTY
Grad RMS
SciTegic.value.DoubleValue
0.000000

@<SCITEGIC>MOL_PROPERTY
U
SciTegic.value.DoubleValue
9.416

@<SCITEGIC>MOL_PROPERTY
W
SciTegic.value.DoubleValue
-59.512

@<SCITEGIC>MOL_PROPERTY
W(PB)
SciTegic.value.DoubleValue
-61.988

@<SCITEGIC>MOL_PROPERTY
W(SA)
SciTegic.value.DoubleValue
2.476

@<SCITEGIC>MOL_PROPERTY
Valence
SciTegic.value.DoubleValue
8.939

@<SCITEGIC>MOL_PROPERTY
Coulomb
SciTegic.value.DoubleValue
-0.615

@<SCITEGIC>MOL_PROPERTY
VdW
SciTegic.value.DoubleValue
1.092

@<SCITEGIC>MOL_PROPERTY
VdW6
SciTegic.value.DoubleValue
-9.710

@<SCITEGIC>MOL_PROPERTY
VdW12
SciTegic.value.DoubleValue
10.802

@<SCITEGIC>MOL_PROPERTY
Bond
SciTegic.value.DoubleValue
0.216

@<SCITEGIC>MOL_PROPERTY
Angle
SciTegic.value.DoubleValue
2.979

@<SCITEGIC>MOL_PROPERTY
Pdih
SciTegic.value.DoubleValue
5.743

@<SCITEGIC>MOL_PROPERTY
Idih
SciTegic.value.DoubleValue
0.000

@<SCITEGIC>MOL_PROPERTY
Tether
SciTegic.value.DoubleValue
0.000

@<TRIPOS>MOLECULE
guest-8_confgen4.mol2 : confsearch ligand conformer 766
          25          24           1
SMALL
USER_CHARGES
 
@<TRIPOS>ATOM
       1    C1      16.122084   18.335299   22.241308 C.2        1 MOL1         0.6168
       2    O1      16.136862   17.795873   21.152484 O.co2      1 MOL1        -0.6703
       3    O2      15.196828   18.246117   23.024075 O.co2      1 MOL1        -0.6703
       4    C2      17.341166   19.150506   22.657772 C.3        1 MOL1        -0.1963
       5    H1      16.999330   19.966043   23.306143 H          1 MOL1         0.0750
       6    H2      17.760358   19.606616   21.754111 H          1 MOL1         0.0750
       7    C3      18.410733   18.297905   23.388972 C.3        1 MOL1        -0.1860
       8    H3      17.930852   17.779349   24.230543 H          1 MOL1         0.0752
       9    H4      18.781509   17.514613   22.713487 H          1 MOL1         0.0752
      10    C4      19.599900   19.125687   23.932449 C.3        1 MOL1        -0.1858
      11    H5      20.220018   18.462586   24.549086 H          1 MOL1         0.0752
      12    H6      19.226113   19.914123   24.599696 H          1 MOL1         0.0752
      13    C5      20.473253   19.753320   22.818343 C.3        1 MOL1        -0.1858
      14    H7      20.847462   18.965342   22.151954 H          1 MOL1         0.0752
      15    H8      19.853726   20.410205   22.195120 H          1 MOL1         0.0752
      16    C6      21.656978   20.594388   23.360335 C.3        1 MOL1        -0.1858
      17    H9      21.258014   21.428634   23.953241 H          1 MOL1         0.0752
      18    H10     22.180491   21.051357   22.509580 H          1 MOL1         0.0752
      19    C7      22.687036   19.819878   24.219740 C.3        1 MOL1        -0.1834
      20    H11     23.467922   20.521191   24.544426 H          1 MOL1         0.0752
      21    H12     22.213453   19.449305   25.138291 H          1 MOL1         0.0752
      22    C8      23.354382   18.647904   23.468031 C.3        1 MOL1        -0.2849
      23    H13     23.814325   18.992035   22.532614 H          1 MOL1         0.0764
      24    H14     24.140318   18.193452   24.084913 H          1 MOL1         0.0764
      25    H15     22.626190   17.863396   23.226449 H          1 MOL1         0.0764
@<TRIPOS>BOND
    1     1     2    1
    2     1     3    2
    3     1     4    1
    4     4     5    1
    5     4     6    1
    6     4     7    1
    7     7     8    1
    8     7     9    1
    9     7    10    1
   10    10    11    1
   11    10    12    1
   12    10    13    1
   13    13    14    1
   14    13    15    1
   15    13    16    1
   16    16    17    1
   17    16    18    1
   18    16    19    1
   19    19    20    1
   20    19    21    1
   21    19    22    1
   22    22    23    1
   23    22    24    1
   24    22    25    1
@<TRIPOS>SUBSTRUCTURE
       1 MOL1            1 RESIDUE      1      MOL     
@<SCITEGIC>MOL_PROPERTY
VConf Rank
SciTegic.value.IntegerValue
766

@<SCITEGIC>MOL_PROPERTY
Conf_Id
SciTegic.value.IntegerValue
75

@<SCITEGIC>MOL_PROPERTY
Delta U+W
SciTegic.value.DoubleValue
1.014

@<SCITEGIC>MOL_PROPERTY
U+W
SciTegic.value.DoubleValue
-50.615

@<SCITEGIC>MOL_PROPERTY
Grad RMS
SciTegic.value.DoubleValue
0.000000

@<SCITEGIC>MOL_PROPERTY
U
SciTegic.value.DoubleValue
8.474

@<SCITEGIC>MOL_PROPERTY
W
SciTegic.value.DoubleValue
-59.089

@<SCITEGIC>MOL_PROPERTY
W(PB)
SciTegic.value.DoubleValue
-61.530

@<SCITEGIC>MOL_PROPERTY
W(SA)
SciTegic.value.DoubleValue
2.441

@<SCITEGIC>MOL_PROPERTY
Valence
SciTegic.value.DoubleValue
9.080

@<SCITEGIC>MOL_PROPERTY
Coulomb
SciTegic.value.DoubleValue
-1.772

@<SCITEGIC>MOL_PROPERTY
VdW
SciTegic.value.DoubleValue
1.165

@<SCITEGIC>MOL_PROPERTY
VdW6
SciTegic.value.DoubleValue
-9.830

@<SCITEGIC>MOL_PROPERTY
VdW12
SciTegic.value.DoubleValue
10.996

@<SCITEGIC>MOL_PROPERTY
Bond
SciTegic.value.DoubleValue
0.240

@<SCITEGIC>MOL_PROPERTY
Angle
SciTegic.value.DoubleValue
3.225

@<SCITEGIC>MOL_PROPERTY
Pdih
SciTegic.value.DoubleValue
5.615

@<SCITEGIC>MOL_PROPERTY
Idih
SciTegic.value.DoubleValue
0.001

@<SCITEGIC>MOL_PROPERTY
Tether
SciTegic.value.DoubleValue
0.000

@<TRIPOS>MOLECULE
guest-8_confgen4.mol2 : confsearch ligand conformer 767
          25          24           1
SMALL
USER_CHARGES
 
@<TRIPOS>ATOM
       1    C1      18.779832   15.655245   21.324835 C.2        1 MOL1         0.6168
       2    O1      17.564793   15.642833   21.338186 O.co2      1 MOL1        -0.6703
       3    O2      19.449932   15.081990   20.488765 O.co2      1 MOL1        -0.6703
       4    C2      19.503408   16.451893   22.404589 C.3        1 MOL1        -0.1963
       5    H1      20.453130   15.948111   22.620901 H          1 MOL1         0.0750
       6    H2      18.899642   16.412457   23.319203 H          1 MOL1         0.0750
       7    C3      19.759663   17.923547   21.996363 C.3        1 MOL1        -0.1860
       8    H3      20.354033   17.945842   21.072392 H          1 MOL1         0.0752
       9    H4      18.800335   18.409602   21.770583 H          1 MOL1         0.0752
      10    C4      20.491516   18.708958   23.106170 C.3        1 MOL1        -0.1858
      11    H5      21.449391   18.219343   23.328803 H          1 MOL1         0.0752
      12    H6      19.898192   18.672533   24.027503 H          1 MOL1         0.0752
      13    C5      20.750431   20.176452   22.691248 C.3        1 MOL1        -0.1858
      14    H7      21.372228   20.171012   21.785569 H          1 MOL1         0.0752
      15    H8      19.807947   20.667211   22.412504 H          1 MOL1         0.0752
      16    C6      21.477976   21.003889   23.781410 C.3        1 MOL1        -0.1858
      17    H9      22.163957   21.700354   23.280177 H          1 MOL1         0.0752
      18    H10     22.112589   20.350632   24.395705 H          1 MOL1         0.0752
      19    C7      20.543349   21.842804   24.687830 C.3        1 MOL1        -0.1834
      20    H11     21.163883   22.446920   25.363961 H          1 MOL1         0.0752
      21    H12     19.976342   22.555186   24.072807 H          1 MOL1         0.0752
      22    C8      19.563131   21.004120   25.534088 C.3        1 MOL1        -0.2849
      23    H13     20.096516   20.237332   26.110715 H          1 MOL1         0.0764
      24    H14     19.021739   21.644968   26.241876 H          1 MOL1         0.0764
      25    H15     18.817223   20.508817   24.900116 H          1 MOL1         0.0764
@<TRIPOS>BOND
    1     1     2    1
    2     1     3    2
    3     1     4    1
    4     4     5    1
    5     4     6    1
    6     4     7    1
    7     7     8    1
    8     7     9    1
    9     7    10    1
   10    10    11    1
   11    10    12    1
   12    10    13    1
   13    13    14    1
   14    13    15    1
   15    13    16    1
   16    16    17    1
   17    16    18    1
   18    16    19    1
   19    19    20    1
   20    19    21    1
   21    19    22    1
   22    22    23    1
   23    22    24    1
   24    22    25    1
@<TRIPOS>SUBSTRUCTURE
       1 MOL1            1 RESIDUE      1      MOL     
@<SCITEGIC>MOL_PROPERTY
VConf Rank
SciTegic.value.IntegerValue
767

@<SCITEGIC>MOL_PROPERTY
Conf_Id
SciTegic.value.IntegerValue
125

@<SCITEGIC>MOL_PROPERTY
Delta U+W
SciTegic.value.DoubleValue
2.314

@<SCITEGIC>MOL_PROPERTY
U+W
SciTegic.value.DoubleValue
-49.315

@<SCITEGIC>MOL_PROPERTY
Grad RMS
SciTegic.value.DoubleValue
0.000000

@<SCITEGIC>MOL_PROPERTY
U
SciTegic.value.DoubleValue
9.740

@<SCITEGIC>MOL_PROPERTY
W
SciTegic.value.DoubleValue
-59.054

@<SCITEGIC>MOL_PROPERTY
W(PB)
SciTegic.value.DoubleValue
-61.488

@<SCITEGIC>MOL_PROPERTY
W(SA)
SciTegic.value.DoubleValue
2.433

@<SCITEGIC>MOL_PROPERTY
Valence
SciTegic.value.DoubleValue
10.506

@<SCITEGIC>MOL_PROPERTY
Coulomb
SciTegic.value.DoubleValue
-1.761

@<SCITEGIC>MOL_PROPERTY
VdW
SciTegic.value.DoubleValue
0.994

@<SCITEGIC>MOL_PROPERTY
VdW6
SciTegic.value.DoubleValue
-9.209

@<SCITEGIC>MOL_PROPERTY
VdW12
SciTegic.value.DoubleValue
10.203

@<SCITEGIC>MOL_PROPERTY
Bond
SciTegic.value.DoubleValue
0.193

@<SCITEGIC>MOL_PROPERTY
Angle
SciTegic.value.DoubleValue
2.979

@<SCITEGIC>MOL_PROPERTY
Pdih
SciTegic.value.DoubleValue
7.334

@<SCITEGIC>MOL_PROPERTY
Idih
SciTegic.value.DoubleValue
0.001

@<SCITEGIC>MOL_PROPERTY
Tether
SciTegic.value.DoubleValue
0.000

@<TRIPOS>MOLECULE
guest-8_confgen4.mol2 : confsearch ligand conformer 768
          25          24           1
SMALL
USER_CHARGES
 
@<TRIPOS>ATOM
       1    C1      17.879757   22.120967   24.998321 C.2        1 MOL1         0.6168
       2    O1      18.000247   23.075785   24.256366 O.co2      1 MOL1        -0.6703
       3    O2      17.323780   22.173147   26.077630 O.co2      1 MOL1        -0.6703
       4    C2      18.480420   20.789526   24.561874 C.3        1 MOL1        -0.1963
       5    H1      18.401092   20.730435   23.470574 H          1 MOL1         0.0750
       6    H2      17.862251   19.984956   24.977673 H          1 MOL1         0.0750
       7    C3      19.954381   20.620013   25.013479 C.3        1 MOL1        -0.1860
       8    H3      20.571591   21.403853   24.553073 H          1 MOL1         0.0752
       9    H4      20.010810   20.778847   26.099312 H          1 MOL1         0.0752
      10    C4      20.545689   19.228409   24.684927 C.3        1 MOL1        -0.1858
      11    H5      19.932008   18.447521   25.154585 H          1 MOL1         0.0752
      12    H6      21.542275   19.157227   25.141720 H          1 MOL1         0.0752
      13    C5      20.666168   18.953787   23.167936 C.3        1 MOL1        -0.1858
      14    H7      19.667915   18.955297   22.713934 H          1 MOL1         0.0752
      15    H8      21.238266   19.762270   22.692939 H          1 MOL1         0.0752
      16    C6      21.357136   17.599090   22.887647 C.3        1 MOL1        -0.1858
      17    H9      20.762248   16.783731   23.321451 H          1 MOL1         0.0752
      18    H10     22.329436   17.580723   23.398664 H          1 MOL1         0.0752
      19    C7      21.589034   17.326353   21.383101 C.3        1 MOL1        -0.1834
      20    H11     22.188485   18.137430   20.947076 H          1 MOL1         0.0752
      21    H12     22.185580   16.409531   21.279191 H          1 MOL1         0.0752
      22    C8      20.279240   17.160115   20.582234 C.3        1 MOL1        -0.2849
      23    H13     19.702334   18.093032   20.559145 H          1 MOL1         0.0764
      24    H14     20.497453   16.879198   19.543791 H          1 MOL1         0.0764
      25    H15     19.648356   16.375166   21.019209 H          1 MOL1         0.0764
@<TRIPOS>BOND
    1     1     2    1
    2     1     3    2
    3     1     4    1
    4     4     5    1
    5     4     6    1
    6     4     7    1
    7     7     8    1
    8     7     9    1
    9     7    10    1
   10    10    11    1
   11    10    12    1
   12    10    13    1
   13    13    14    1
   14    13    15    1
   15    13    16    1
   16    16    17    1
   17    16    18    1
   18    16    19    1
   19    19    20    1
   20    19    21    1
   21    19    22    1
   22    22    23    1
   23    22    24    1
   24    22    25    1
@<TRIPOS>SUBSTRUCTURE
       1 MOL1            1 RESIDUE      1      MOL     
@<SCITEGIC>MOL_PROPERTY
VConf Rank
SciTegic.value.IntegerValue
768

@<SCITEGIC>MOL_PROPERTY
Conf_Id
SciTegic.value.IntegerValue
4

@<SCITEGIC>MOL_PROPERTY
Delta U+W
SciTegic.value.DoubleValue
0.189

@<SCITEGIC>MOL_PROPERTY
U+W
SciTegic.value.DoubleValue
-51.441

@<SCITEGIC>MOL_PROPERTY
Grad RMS
SciTegic.value.DoubleValue
0.000000

@<SCITEGIC>MOL_PROPERTY
U
SciTegic.value.DoubleValue
7.701

@<SCITEGIC>MOL_PROPERTY
W
SciTegic.value.DoubleValue
-59.141

@<SCITEGIC>MOL_PROPERTY
W(PB)
SciTegic.value.DoubleValue
-61.609

@<SCITEGIC>MOL_PROPERTY
W(SA)
SciTegic.value.DoubleValue
2.467

@<SCITEGIC>MOL_PROPERTY
Valence
SciTegic.value.DoubleValue
8.550

@<SCITEGIC>MOL_PROPERTY
Coulomb
SciTegic.value.DoubleValue
-1.988

@<SCITEGIC>MOL_PROPERTY
VdW
SciTegic.value.DoubleValue
1.139

@<SCITEGIC>MOL_PROPERTY
VdW6
SciTegic.value.DoubleValue
-8.988

@<SCITEGIC>MOL_PROPERTY
VdW12
SciTegic.value.DoubleValue
10.127

@<SCITEGIC>MOL_PROPERTY
Bond
SciTegic.value.DoubleValue
0.191

@<SCITEGIC>MOL_PROPERTY
Angle
SciTegic.value.DoubleValue
2.738

@<SCITEGIC>MOL_PROPERTY
Pdih
SciTegic.value.DoubleValue
5.621

@<SCITEGIC>MOL_PROPERTY
Idih
SciTegic.value.DoubleValue
0.001

@<SCITEGIC>MOL_PROPERTY
Tether
SciTegic.value.DoubleValue
0.000

@<TRIPOS>MOLECULE
guest-8_confgen4.mol2 : confsearch ligand conformer 769
          25          24           1
SMALL
USER_CHARGES
 
@<TRIPOS>ATOM
       1    C1      20.008645   15.610559   21.363333 C.2        1 MOL1         0.6168
       2    O1      21.157839   15.217125   21.398823 O.co2      1 MOL1        -0.6703
       3    O2      19.080180   14.940850   20.955679 O.co2      1 MOL1        -0.6703
       4    C2      19.711464   17.013428   21.880695 C.3        1 MOL1        -0.1963
       5    H1      18.864223   17.413580   21.311118 H          1 MOL1         0.0750
       6    H2      20.580640   17.641887   21.656434 H          1 MOL1         0.0750
       7    C3      19.395339   17.038074   23.398818 C.3        1 MOL1        -0.1860
       8    H3      18.582581   16.326796   23.601190 H          1 MOL1         0.0752
       9    H4      20.268438   16.679276   23.961217 H          1 MOL1         0.0752
      10    C4      18.974495   18.432741   23.920306 C.3        1 MOL1        -0.1858
      11    H5      18.658374   18.331705   24.967574 H          1 MOL1         0.0752
      12    H6      18.095506   18.784291   23.362844 H          1 MOL1         0.0752
      13    C5      20.101819   19.487675   23.833992 C.3        1 MOL1        -0.1858
      14    H7      20.996010   19.112258   24.349791 H          1 MOL1         0.0752
      15    H8      20.377461   19.645678   22.784382 H          1 MOL1         0.0752
      16    C6      19.671176   20.833813   24.461417 C.3        1 MOL1        -0.1858
      17    H9      19.336369   20.657179   25.492703 H          1 MOL1         0.0752
      18    H10     18.805084   21.235085   23.917585 H          1 MOL1         0.0752
      19    C7      20.800607   21.890009   24.486942 C.3        1 MOL1        -0.1834
      20    H11     20.451128   22.765832   25.050880 H          1 MOL1         0.0752
      21    H12     21.666763   21.493855   25.034795 H          1 MOL1         0.0752
      22    C8      21.241413   22.348805   23.079893 C.3        1 MOL1        -0.2849
      23    H13     20.385394   22.719902   22.501423 H          1 MOL1         0.0764
      24    H14     21.976679   23.160481   23.153782 H          1 MOL1         0.0764
      25    H15     21.707438   21.529300   22.518716 H          1 MOL1         0.0764
@<TRIPOS>BOND
    1     1     2    1
    2     1     3    2
    3     1     4    1
    4     4     5    1
    5     4     6    1
    6     4     7    1
    7     7     8    1
    8     7     9    1
    9     7    10    1
   10    10    11    1
   11    10    12    1
   12    10    13    1
   13    13    14    1
   14    13    15    1
   15    13    16    1
   16    16    17    1
   17    16    18    1
   18    16    19    1
   19    19    20    1
   20    19    21    1
   21    19    22    1
   22    22    23    1
   23    22    24    1
   24    22    25    1
@<TRIPOS>SUBSTRUCTURE
       1 MOL1            1 RESIDUE      1      MOL     
@<SCITEGIC>MOL_PROPERTY
VConf Rank
SciTegic.value.IntegerValue
769

@<SCITEGIC>MOL_PROPERTY
Conf_Id
SciTegic.value.IntegerValue
17

@<SCITEGIC>MOL_PROPERTY
Delta U+W
SciTegic.value.DoubleValue
0.219

@<SCITEGIC>MOL_PROPERTY
U+W
SciTegic.value.DoubleValue
-51.411

@<SCITEGIC>MOL_PROPERTY
Grad RMS
SciTegic.value.DoubleValue
0.000000

@<SCITEGIC>MOL_PROPERTY
U
SciTegic.value.DoubleValue
7.701

@<SCITEGIC>MOL_PROPERTY
W
SciTegic.value.DoubleValue
-59.111

@<SCITEGIC>MOL_PROPERTY
W(PB)
SciTegic.value.DoubleValue
-61.599

@<SCITEGIC>MOL_PROPERTY
W(SA)
SciTegic.value.DoubleValue
2.488

@<SCITEGIC>MOL_PROPERTY
Valence
SciTegic.value.DoubleValue
8.550

@<SCITEGIC>MOL_PROPERTY
Coulomb
SciTegic.value.DoubleValue
-1.988

@<SCITEGIC>MOL_PROPERTY
VdW
SciTegic.value.DoubleValue
1.139

@<SCITEGIC>MOL_PROPERTY
VdW6
SciTegic.value.DoubleValue
-8.988

@<SCITEGIC>MOL_PROPERTY
VdW12
SciTegic.value.DoubleValue
10.127

@<SCITEGIC>MOL_PROPERTY
Bond
SciTegic.value.DoubleValue
0.191

@<SCITEGIC>MOL_PROPERTY
Angle
SciTegic.value.DoubleValue
2.738

@<SCITEGIC>MOL_PROPERTY
Pdih
SciTegic.value.DoubleValue
5.621

@<SCITEGIC>MOL_PROPERTY
Idih
SciTegic.value.DoubleValue
0.001

@<SCITEGIC>MOL_PROPERTY
Tether
SciTegic.value.DoubleValue
0.000

@<TRIPOS>MOLECULE
guest-8_confgen4.mol2 : confsearch ligand conformer 770
          25          24           1
SMALL
USER_CHARGES
 
@<TRIPOS>ATOM
       1    C1      18.564905   18.457042   26.800879 C.2        1 MOL1         0.6168
       2    O1      18.699206   17.269835   27.023507 O.co2      1 MOL1        -0.6703
       3    O2      17.484678   19.002372   26.687736 O.co2      1 MOL1        -0.6703
       4    C2      19.820194   19.315775   26.675339 C.3        1 MOL1        -0.1963
       5    H1      20.656557   18.783761   27.144628 H          1 MOL1         0.0750
       6    H2      19.654684   20.227062   27.261978 H          1 MOL1         0.0750
       7    C3      20.178077   19.697128   25.215412 C.3        1 MOL1        -0.1860
       8    H3      19.319967   20.210382   24.761665 H          1 MOL1         0.0752
       9    H4      21.008457   20.415865   25.227677 H          1 MOL1         0.0752
      10    C4      20.578225   18.468502   24.363877 C.3        1 MOL1        -0.1858
      11    H5      19.729110   17.775425   24.286618 H          1 MOL1         0.0752
      12    H6      21.377913   17.920906   24.881067 H          1 MOL1         0.0752
      13    C5      21.073189   18.837020   22.945100 C.3        1 MOL1        -0.1858
      14    H7      21.927905   19.523100   23.019962 H          1 MOL1         0.0752
      15    H8      21.448145   17.925399   22.460110 H          1 MOL1         0.0752
      16    C6      19.976573   19.465154   22.054083 C.3        1 MOL1        -0.1858
      17    H9      19.642904   20.417646   22.485769 H          1 MOL1         0.0752
      18    H10     19.101622   18.801398   22.026096 H          1 MOL1         0.0752
      19    C7      20.481733   19.712377   20.616918 C.3        1 MOL1        -0.1834
      20    H11     21.358222   20.374658   20.641585 H          1 MOL1         0.0752
      21    H12     20.810852   18.763542   20.171031 H          1 MOL1         0.0752
      22    C8      19.388274   20.342171   19.730674 C.3        1 MOL1        -0.2849
      23    H13     19.062747   21.309172   20.136043 H          1 MOL1         0.0764
      24    H14     19.764258   20.510518   18.713152 H          1 MOL1         0.0764
      25    H15     18.510805   19.685722   19.663554 H          1 MOL1         0.0764
@<TRIPOS>BOND
    1     1     2    1
    2     1     3    2
    3     1     4    1
    4     4     5    1
    5     4     6    1
    6     4     7    1
    7     7     8    1
    8     7     9    1
    9     7    10    1
   10    10    11    1
   11    10    12    1
   12    10    13    1
   13    13    14    1
   14    13    15    1
   15    13    16    1
   16    16    17    1
   17    16    18    1
   18    16    19    1
   19    19    20    1
   20    19    21    1
   21    19    22    1
   22    22    23    1
   23    22    24    1
   24    22    25    1
@<TRIPOS>SUBSTRUCTURE
       1 MOL1            1 RESIDUE      1      MOL     
@<SCITEGIC>MOL_PROPERTY
VConf Rank
SciTegic.value.IntegerValue
770

@<SCITEGIC>MOL_PROPERTY
Conf_Id
SciTegic.value.IntegerValue
142

@<SCITEGIC>MOL_PROPERTY
Delta U+W
SciTegic.value.DoubleValue
0.593

@<SCITEGIC>MOL_PROPERTY
U+W
SciTegic.value.DoubleValue
-51.037

@<SCITEGIC>MOL_PROPERTY
Grad RMS
SciTegic.value.DoubleValue
0.000000

@<SCITEGIC>MOL_PROPERTY
U
SciTegic.value.DoubleValue
8.903

@<SCITEGIC>MOL_PROPERTY
W
SciTegic.value.DoubleValue
-59.940

@<SCITEGIC>MOL_PROPERTY
W(PB)
SciTegic.value.DoubleValue
-62.418

@<SCITEGIC>MOL_PROPERTY
W(SA)
SciTegic.value.DoubleValue
2.478

@<SCITEGIC>MOL_PROPERTY
Valence
SciTegic.value.DoubleValue
8.305

@<SCITEGIC>MOL_PROPERTY
Coulomb
SciTegic.value.DoubleValue
-0.223

@<SCITEGIC>MOL_PROPERTY
VdW
SciTegic.value.DoubleValue
0.821

@<SCITEGIC>MOL_PROPERTY
VdW6
SciTegic.value.DoubleValue
-9.236

@<SCITEGIC>MOL_PROPERTY
VdW12
SciTegic.value.DoubleValue
10.057

@<SCITEGIC>MOL_PROPERTY
Bond
SciTegic.value.DoubleValue
0.173

@<SCITEGIC>MOL_PROPERTY
Angle
SciTegic.value.DoubleValue
2.663

@<SCITEGIC>MOL_PROPERTY
Pdih
SciTegic.value.DoubleValue
5.469

@<SCITEGIC>MOL_PROPERTY
Idih
SciTegic.value.DoubleValue
0.001

@<SCITEGIC>MOL_PROPERTY
Tether
SciTegic.value.DoubleValue
0.000

@<TRIPOS>MOLECULE
guest-8_confgen4.mol2 : confsearch ligand conformer 771
          25          24           1
SMALL
USER_CHARGES
 
@<TRIPOS>ATOM
       1    C1      18.064857   17.889320   25.860729 C.2        1 MOL1         0.6168
       2    O1      18.007374   16.963981   26.646860 O.co2      1 MOL1        -0.6703
       3    O2      17.737533   19.026776   26.136608 O.co2      1 MOL1        -0.6703
       4    C2      18.548612   17.598461   24.442872 C.3        1 MOL1        -0.1963
       5    H1      18.282130   18.445219   23.799997 H          1 MOL1         0.0750
       6    H2      17.979368   16.737374   24.074079 H          1 MOL1         0.0750
       7    C3      20.067866   17.292254   24.341696 C.3        1 MOL1        -0.1860
       8    H3      20.287461   16.398741   24.942187 H          1 MOL1         0.0752
       9    H4      20.314939   17.026104   23.305854 H          1 MOL1         0.0752
      10    C4      20.987205   18.446894   24.817369 C.3        1 MOL1        -0.1858
      11    H5      22.033810   18.130364   24.712375 H          1 MOL1         0.0752
      12    H6      20.828362   18.610714   25.892087 H          1 MOL1         0.0752
      13    C5      20.794027   19.794451   24.077706 C.3        1 MOL1        -0.1858
      14    H7      19.783760   20.182048   24.265546 H          1 MOL1         0.0752
      15    H8      21.485527   20.528809   24.512537 H          1 MOL1         0.0752
      16    C6      21.047394   19.705772   22.555009 C.3        1 MOL1        -0.1858
      17    H9      20.315805   19.029689   22.093714 H          1 MOL1         0.0752
      18    H10     22.041954   19.276486   22.372697 H          1 MOL1         0.0752
      19    C7      20.950808   21.089761   21.879226 C.3        1 MOL1        -0.1834
      20    H11     19.957403   21.522160   22.062672 H          1 MOL1         0.0752
      21    H12     21.684601   21.773600   22.327873 H          1 MOL1         0.0752
      22    C8      21.197694   20.998775   20.359863 C.3        1 MOL1        -0.2849
      23    H13     20.457093   20.345562   19.880083 H          1 MOL1         0.0764
      24    H14     21.125430   21.991073   19.896013 H          1 MOL1         0.0764
      25    H15     22.197333   20.597376   20.147841 H          1 MOL1         0.0764
@<TRIPOS>BOND
    1     1     2    1
    2     1     3    2
    3     1     4    1
    4     4     5    1
    5     4     6    1
    6     4     7    1
    7     7     8    1
    8     7     9    1
    9     7    10    1
   10    10    11    1
   11    10    12    1
   12    10    13    1
   13    13    14    1
   14    13    15    1
   15    13    16    1
   16    16    17    1
   17    16    18    1
   18    16    19    1
   19    19    20    1
   20    19    21    1
   21    19    22    1
   22    22    23    1
   23    22    24    1
   24    22    25    1
@<TRIPOS>SUBSTRUCTURE
       1 MOL1            1 RESIDUE      1      MOL     
@<SCITEGIC>MOL_PROPERTY
VConf Rank
SciTegic.value.IntegerValue
771

@<SCITEGIC>MOL_PROPERTY
Conf_Id
SciTegic.value.IntegerValue
135

@<SCITEGIC>MOL_PROPERTY
Delta U+W
SciTegic.value.DoubleValue
1.314

@<SCITEGIC>MOL_PROPERTY
U+W
SciTegic.value.DoubleValue
-50.316

@<SCITEGIC>MOL_PROPERTY
Grad RMS
SciTegic.value.DoubleValue
0.000000

@<SCITEGIC>MOL_PROPERTY
U
SciTegic.value.DoubleValue
9.773

@<SCITEGIC>MOL_PROPERTY
W
SciTegic.value.DoubleValue
-60.088

@<SCITEGIC>MOL_PROPERTY
W(PB)
SciTegic.value.DoubleValue
-62.535

@<SCITEGIC>MOL_PROPERTY
W(SA)
SciTegic.value.DoubleValue
2.447

@<SCITEGIC>MOL_PROPERTY
Valence
SciTegic.value.DoubleValue
8.741

@<SCITEGIC>MOL_PROPERTY
Coulomb
SciTegic.value.DoubleValue
0.479

@<SCITEGIC>MOL_PROPERTY
VdW
SciTegic.value.DoubleValue
0.552

@<SCITEGIC>MOL_PROPERTY
VdW6
SciTegic.value.DoubleValue
-10.627

@<SCITEGIC>MOL_PROPERTY
VdW12
SciTegic.value.DoubleValue
11.179

@<SCITEGIC>MOL_PROPERTY
Bond
SciTegic.value.DoubleValue
0.227

@<SCITEGIC>MOL_PROPERTY
Angle
SciTegic.value.DoubleValue
3.155

@<SCITEGIC>MOL_PROPERTY
Pdih
SciTegic.value.DoubleValue
5.358

@<SCITEGIC>MOL_PROPERTY
Idih
SciTegic.value.DoubleValue
0.001

@<SCITEGIC>MOL_PROPERTY
Tether
SciTegic.value.DoubleValue
0.000

@<TRIPOS>MOLECULE
guest-8_confgen4.mol2 : confsearch ligand conformer 772
          25          24           1
SMALL
USER_CHARGES
 
@<TRIPOS>ATOM
       1    C1      16.637792   21.526732   22.624054 C.2        1 MOL1         0.6168
       2    O1      15.642904   20.867410   22.395507 O.co2      1 MOL1        -0.6703
       3    O2      16.607873   22.680655   23.003971 O.co2      1 MOL1        -0.6703
       4    C2      17.998451   20.862543   22.446175 C.3        1 MOL1        -0.1963
       5    H1      18.715298   21.633537   22.139505 H          1 MOL1         0.0750
       6    H2      17.914086   20.149072   21.619125 H          1 MOL1         0.0750
       7    C3      18.492581   20.154763   23.734861 C.3        1 MOL1        -0.1860
       8    H3      18.470399   20.878069   24.561772 H          1 MOL1         0.0752
       9    H4      17.792433   19.352660   24.006343 H          1 MOL1         0.0752
      10    C4      19.925711   19.582369   23.618939 C.3        1 MOL1        -0.1858
      11    H5      20.235831   19.247390   24.616738 H          1 MOL1         0.0752
      12    H6      20.619812   20.380605   23.322931 H          1 MOL1         0.0752
      13    C5      20.037870   18.395674   22.632208 C.3        1 MOL1        -0.1858
      14    H7      19.384742   17.579118   22.968741 H          1 MOL1         0.0752
      15    H8      19.666168   18.701438   21.646399 H          1 MOL1         0.0752
      16    C6      21.479431   17.858030   22.446980 C.3        1 MOL1        -0.1858
      17    H9      22.121183   18.641595   22.021436 H          1 MOL1         0.0752
      18    H10     21.440070   17.062265   21.690618 H          1 MOL1         0.0752
      19    C7      22.124585   17.272912   23.728234 C.3        1 MOL1        -0.1834
      20    H11     21.347645   16.907631   24.413923 H          1 MOL1         0.0752
      21    H12     22.723735   16.394675   23.450713 H          1 MOL1         0.0752
      22    C8      23.051939   18.273930   24.452972 C.3        1 MOL1        -0.2849
      23    H13     22.513543   19.175329   24.767181 H          1 MOL1         0.0764
      24    H14     23.488035   17.813967   25.349108 H          1 MOL1         0.0764
      25    H15     23.877600   18.584009   23.799353 H          1 MOL1         0.0764
@<TRIPOS>BOND
    1     1     2    1
    2     1     3    2
    3     1     4    1
    4     4     5    1
    5     4     6    1
    6     4     7    1
    7     7     8    1
    8     7     9    1
    9     7    10    1
   10    10    11    1
   11    10    12    1
   12    10    13    1
   13    13    14    1
   14    13    15    1
   15    13    16    1
   16    16    17    1
   17    16    18    1
   18    16    19    1
   19    19    20    1
   20    19    21    1
   21    19    22    1
   22    22    23    1
   23    22    24    1
   24    22    25    1
@<TRIPOS>SUBSTRUCTURE
       1 MOL1            1 RESIDUE      1      MOL     
@<SCITEGIC>MOL_PROPERTY
VConf Rank
SciTegic.value.IntegerValue
772

@<SCITEGIC>MOL_PROPERTY
Conf_Id
SciTegic.value.IntegerValue
19

@<SCITEGIC>MOL_PROPERTY
Delta U+W
SciTegic.value.DoubleValue
3.222

@<SCITEGIC>MOL_PROPERTY
U+W
SciTegic.value.DoubleValue
-48.407

@<SCITEGIC>MOL_PROPERTY
Grad RMS
SciTegic.value.DoubleValue
0.000000

@<SCITEGIC>MOL_PROPERTY
U
SciTegic.value.DoubleValue
10.617

@<SCITEGIC>MOL_PROPERTY
W
SciTegic.value.DoubleValue
-59.025

@<SCITEGIC>MOL_PROPERTY
W(PB)
SciTegic.value.DoubleValue
-61.462

@<SCITEGIC>MOL_PROPERTY
W(SA)
SciTegic.value.DoubleValue
2.437

@<SCITEGIC>MOL_PROPERTY
Valence
SciTegic.value.DoubleValue
11.188

@<SCITEGIC>MOL_PROPERTY
Coulomb
SciTegic.value.DoubleValue
-1.778

@<SCITEGIC>MOL_PROPERTY
VdW
SciTegic.value.DoubleValue
1.208

@<SCITEGIC>MOL_PROPERTY
VdW6
SciTegic.value.DoubleValue
-9.786

@<SCITEGIC>MOL_PROPERTY
VdW12
SciTegic.value.DoubleValue
10.993

@<SCITEGIC>MOL_PROPERTY
Bond
SciTegic.value.DoubleValue
0.241

@<SCITEGIC>MOL_PROPERTY
Angle
SciTegic.value.DoubleValue
3.294

@<SCITEGIC>MOL_PROPERTY
Pdih
SciTegic.value.DoubleValue
7.653

@<SCITEGIC>MOL_PROPERTY
Idih
SciTegic.value.DoubleValue
0.001

@<SCITEGIC>MOL_PROPERTY
Tether
SciTegic.value.DoubleValue
0.000

@<TRIPOS>MOLECULE
guest-8_confgen4.mol2 : confsearch ligand conformer 773
          25          24           1
SMALL
USER_CHARGES
 
@<TRIPOS>ATOM
       1    C1      23.231363   16.876170   24.847865 C.2        1 MOL1         0.6168
       2    O1      24.112818   17.536882   25.360932 O.co2      1 MOL1        -0.6703
       3    O2      23.377884   15.726410   24.482693 O.co2      1 MOL1        -0.6703
       4    C2      21.873332   17.533427   24.628893 C.3        1 MOL1        -0.1963
       5    H1      21.709379   18.238729   25.450988 H          1 MOL1         0.0750
       6    H2      21.103401   16.756663   24.707582 H          1 MOL1         0.0750
       7    C3      21.769825   18.252474   23.258460 C.3        1 MOL1        -0.1860
       8    H3      22.513323   19.059961   23.208879 H          1 MOL1         0.0752
       9    H4      22.035813   17.537755   22.467339 H          1 MOL1         0.0752
      10    C4      20.360984   18.818200   22.958365 C.3        1 MOL1        -0.1858
      11    H5      19.616143   18.014341   23.033213 H          1 MOL1         0.0752
      12    H6      20.351580   19.162178   21.916453 H          1 MOL1         0.0752
      13    C5      19.959433   19.994307   23.880316 C.3        1 MOL1        -0.1858
      14    H7      20.031008   19.679880   24.928882 H          1 MOL1         0.0752
      15    H8      20.676720   20.816735   23.754989 H          1 MOL1         0.0752
      16    C6      18.522650   20.524551   23.643739 C.3        1 MOL1        -0.1858
      17    H9      18.335540   21.312735   24.385781 H          1 MOL1         0.0752
      18    H10     17.790205   19.734257   23.857904 H          1 MOL1         0.0752
      19    C7      18.273263   21.120171   22.235461 C.3        1 MOL1        -0.1834
      20    H11     17.613638   21.993302   22.334658 H          1 MOL1         0.0752
      21    H12     19.213346   21.495283   21.807947 H          1 MOL1         0.0752
      22    C8      17.602687   20.123037   21.264217 C.3        1 MOL1        -0.2849
      23    H13     16.624894   19.803328   21.647347 H          1 MOL1         0.0764
      24    H14     17.442479   20.590342   20.284031 H          1 MOL1         0.0764
      25    H15     18.214939   19.226854   21.112158 H          1 MOL1         0.0764
@<TRIPOS>BOND
    1     1     2    1
    2     1     3    2
    3     1     4    1
    4     4     5    1
    5     4     6    1
    6     4     7    1
    7     7     8    1
    8     7     9    1
    9     7    10    1
   10    10    11    1
   11    10    12    1
   12    10    13    1
   13    13    14    1
   14    13    15    1
   15    13    16    1
   16    16    17    1
   17    16    18    1
   18    16    19    1
   19    19    20    1
   20    19    21    1
   21    19    22    1
   22    22    23    1
   23    22    24    1
   24    22    25    1
@<TRIPOS>SUBSTRUCTURE
       1 MOL1            1 RESIDUE      1      MOL     
@<SCITEGIC>MOL_PROPERTY
VConf Rank
SciTegic.value.IntegerValue
773

@<SCITEGIC>MOL_PROPERTY
Conf_Id
SciTegic.value.IntegerValue
20

@<SCITEGIC>MOL_PROPERTY
Delta U+W
SciTegic.value.DoubleValue
3.224

@<SCITEGIC>MOL_PROPERTY
U+W
SciTegic.value.DoubleValue
-48.406

@<SCITEGIC>MOL_PROPERTY
Grad RMS
SciTegic.value.DoubleValue
0.000000

@<SCITEGIC>MOL_PROPERTY
U
SciTegic.value.DoubleValue
10.617

@<SCITEGIC>MOL_PROPERTY
W
SciTegic.value.DoubleValue
-59.023

@<SCITEGIC>MOL_PROPERTY
W(PB)
SciTegic.value.DoubleValue
-61.467

@<SCITEGIC>MOL_PROPERTY
W(SA)
SciTegic.value.DoubleValue
2.444

@<SCITEGIC>MOL_PROPERTY
Valence
SciTegic.value.DoubleValue
11.188

@<SCITEGIC>MOL_PROPERTY
Coulomb
SciTegic.value.DoubleValue
-1.778

@<SCITEGIC>MOL_PROPERTY
VdW
SciTegic.value.DoubleValue
1.208

@<SCITEGIC>MOL_PROPERTY
VdW6
SciTegic.value.DoubleValue
-9.786

@<SCITEGIC>MOL_PROPERTY
VdW12
SciTegic.value.DoubleValue
10.993

@<SCITEGIC>MOL_PROPERTY
Bond
SciTegic.value.DoubleValue
0.241

@<SCITEGIC>MOL_PROPERTY
Angle
SciTegic.value.DoubleValue
3.294

@<SCITEGIC>MOL_PROPERTY
Pdih
SciTegic.value.DoubleValue
7.653

@<SCITEGIC>MOL_PROPERTY
Idih
SciTegic.value.DoubleValue
0.001

@<SCITEGIC>MOL_PROPERTY
Tether
SciTegic.value.DoubleValue
0.000

@<TRIPOS>MOLECULE
guest-8_confgen4.mol2 : confsearch ligand conformer 774
          25          24           1
SMALL
USER_CHARGES
 
@<TRIPOS>ATOM
       1    C1      22.458656   20.626398   24.908371 C.2        1 MOL1         0.6168
       2    O1      23.407514   20.307193   24.218862 O.co2      1 MOL1        -0.6703
       3    O2      22.202072   20.108256   25.977442 O.co2      1 MOL1        -0.6703
       4    C2      21.579128   21.784245   24.440171 C.3        1 MOL1        -0.1963
       5    H1      22.222676   22.671327   24.420185 H          1 MOL1         0.0750
       6    H2      20.807064   21.973619   25.195714 H          1 MOL1         0.0750
       7    C3      20.928858   21.599362   23.040144 C.3        1 MOL1        -0.1860
       8    H3      20.646738   22.591866   22.663617 H          1 MOL1         0.0752
       9    H4      21.671316   21.207359   22.331142 H          1 MOL1         0.0752
      10    C4      19.659971   20.711222   23.025354 C.3        1 MOL1        -0.1858
      11    H5      19.207849   20.777607   22.026274 H          1 MOL1         0.0752
      12    H6      18.917722   21.115177   23.727295 H          1 MOL1         0.0752
      13    C5      19.927565   19.224365   23.351357 C.3        1 MOL1        -0.1858
      14    H7      20.743866   18.849151   22.718971 H          1 MOL1         0.0752
      15    H8      20.256176   19.124596   24.393502 H          1 MOL1         0.0752
      16    C6      18.667618   18.357238   23.138770 C.3        1 MOL1        -0.1858
      17    H9      18.333856   18.442605   22.095563 H          1 MOL1         0.0752
      18    H10     17.851118   18.736873   23.768244 H          1 MOL1         0.0752
      19    C7      18.930633   16.874277   23.474962 C.3        1 MOL1        -0.1834
      20    H11     19.746461   16.491247   22.846335 H          1 MOL1         0.0752
      21    H12     19.263168   16.784718   24.518516 H          1 MOL1         0.0752
      22    C8      17.670770   16.011033   23.262310 C.3        1 MOL1        -0.2849
      23    H13     17.334524   16.057375   22.218202 H          1 MOL1         0.0764
      24    H14     17.875935   14.960513   23.505989 H          1 MOL1         0.0764
      25    H15     16.847557   16.353100   23.903156 H          1 MOL1         0.0764
@<TRIPOS>BOND
    1     1     2    1
    2     1     3    2
    3     1     4    1
    4     4     5    1
    5     4     6    1
    6     4     7    1
    7     7     8    1
    8     7     9    1
    9     7    10    1
   10    10    11    1
   11    10    12    1
   12    10    13    1
   13    13    14    1
   14    13    15    1
   15    13    16    1
   16    16    17    1
   17    16    18    1
   18    16    19    1
   19    19    20    1
   20    19    21    1
   21    19    22    1
   22    22    23    1
   23    22    24    1
   24    22    25    1
@<TRIPOS>SUBSTRUCTURE
       1 MOL1            1 RESIDUE      1      MOL     
@<SCITEGIC>MOL_PROPERTY
VConf Rank
SciTegic.value.IntegerValue
774

@<SCITEGIC>MOL_PROPERTY
Conf_Id
SciTegic.value.IntegerValue
24

@<SCITEGIC>MOL_PROPERTY
Delta U+W
SciTegic.value.DoubleValue
1.784

@<SCITEGIC>MOL_PROPERTY
U+W
SciTegic.value.DoubleValue
-49.846

@<SCITEGIC>MOL_PROPERTY
Grad RMS
SciTegic.value.DoubleValue
0.000000

@<SCITEGIC>MOL_PROPERTY
U
SciTegic.value.DoubleValue
10.904

@<SCITEGIC>MOL_PROPERTY
W
SciTegic.value.DoubleValue
-60.749

@<SCITEGIC>MOL_PROPERTY
W(PB)
SciTegic.value.DoubleValue
-63.220

@<SCITEGIC>MOL_PROPERTY
W(SA)
SciTegic.value.DoubleValue
2.471

@<SCITEGIC>MOL_PROPERTY
Valence
SciTegic.value.DoubleValue
9.445

@<SCITEGIC>MOL_PROPERTY
Coulomb
SciTegic.value.DoubleValue
0.780

@<SCITEGIC>MOL_PROPERTY
VdW
SciTegic.value.DoubleValue
0.679

@<SCITEGIC>MOL_PROPERTY
VdW6
SciTegic.value.DoubleValue
-10.008

@<SCITEGIC>MOL_PROPERTY
VdW12
SciTegic.value.DoubleValue
10.687

@<SCITEGIC>MOL_PROPERTY
Bond
SciTegic.value.DoubleValue
0.201

@<SCITEGIC>MOL_PROPERTY
Angle
SciTegic.value.DoubleValue
3.198

@<SCITEGIC>MOL_PROPERTY
Pdih
SciTegic.value.DoubleValue
6.039

@<SCITEGIC>MOL_PROPERTY
Idih
SciTegic.value.DoubleValue
0.006

@<SCITEGIC>MOL_PROPERTY
Tether
SciTegic.value.DoubleValue
0.000

@<TRIPOS>MOLECULE
guest-8_confgen4.mol2 : confsearch ligand conformer 775
          25          24           1
SMALL
USER_CHARGES
 
@<TRIPOS>ATOM
       1    C1      17.583817   20.755433   22.814497 C.2        1 MOL1         0.6168
       2    O1      16.648302   20.267196   23.417886 O.co2      1 MOL1        -0.6703
       3    O2      18.149898   21.772544   23.164148 O.co2      1 MOL1        -0.6703
       4    C2      18.030346   20.094720   21.511631 C.3        1 MOL1        -0.1963
       5    H1      18.843822   20.685186   21.073005 H          1 MOL1         0.0750
       6    H2      17.181647   20.169082   20.821960 H          1 MOL1         0.0750
       7    C3      18.452914   18.603630   21.634877 C.3        1 MOL1        -0.1860
       8    H3      17.729344   18.059552   22.257789 H          1 MOL1         0.0752
       9    H4      18.392244   18.150377   20.636223 H          1 MOL1         0.0752
      10    C4      19.889124   18.377413   22.168929 C.3        1 MOL1        -0.1858
      11    H5      20.608132   18.913960   21.534909 H          1 MOL1         0.0752
      12    H6      20.126717   17.309440   22.069100 H          1 MOL1         0.0752
      13    C5      20.085859   18.793982   23.644189 C.3        1 MOL1        -0.1858
      14    H7      19.981837   19.881990   23.741281 H          1 MOL1         0.0752
      15    H8      19.301042   18.338869   24.263850 H          1 MOL1         0.0752
      16    C6      21.473603   18.374544   24.175986 C.3        1 MOL1        -0.1858
      17    H9      22.256933   18.826589   23.552224 H          1 MOL1         0.0752
      18    H10     21.586121   17.284967   24.091574 H          1 MOL1         0.0752
      19    C7      21.675447   18.800184   25.645497 C.3        1 MOL1        -0.1834
      20    H11     21.565363   19.890013   25.733586 H          1 MOL1         0.0752
      21    H12     20.893739   18.349035   26.272279 H          1 MOL1         0.0752
      22    C8      23.062012   18.380451   26.173633 C.3        1 MOL1        -0.2849
      23    H13     23.863705   18.843447   25.583465 H          1 MOL1         0.0764
      24    H14     23.188085   18.690984   27.218974 H          1 MOL1         0.0764
      25    H15     23.186954   17.290715   26.126326 H          1 MOL1         0.0764
@<TRIPOS>BOND
    1     1     2    1
    2     1     3    2
    3     1     4    1
    4     4     5    1
    5     4     6    1
    6     4     7    1
    7     7     8    1
    8     7     9    1
    9     7    10    1
   10    10    11    1
   11    10    12    1
   12    10    13    1
   13    13    14    1
   14    13    15    1
   15    13    16    1
   16    16    17    1
   17    16    18    1
   18    16    19    1
   19    19    20    1
   20    19    21    1
   21    19    22    1
   22    22    23    1
   23    22    24    1
   24    22    25    1
@<TRIPOS>SUBSTRUCTURE
       1 MOL1            1 RESIDUE      1      MOL     
@<SCITEGIC>MOL_PROPERTY
VConf Rank
SciTegic.value.IntegerValue
775

@<SCITEGIC>MOL_PROPERTY
Conf_Id
SciTegic.value.IntegerValue
9

@<SCITEGIC>MOL_PROPERTY
Delta U+W
SciTegic.value.DoubleValue
1.764

@<SCITEGIC>MOL_PROPERTY
U+W
SciTegic.value.DoubleValue
-49.865

@<SCITEGIC>MOL_PROPERTY
Grad RMS
SciTegic.value.DoubleValue
0.000000

@<SCITEGIC>MOL_PROPERTY
U
SciTegic.value.DoubleValue
10.902

@<SCITEGIC>MOL_PROPERTY
W
SciTegic.value.DoubleValue
-60.768

@<SCITEGIC>MOL_PROPERTY
W(PB)
SciTegic.value.DoubleValue
-63.223

@<SCITEGIC>MOL_PROPERTY
W(SA)
SciTegic.value.DoubleValue
2.456

@<SCITEGIC>MOL_PROPERTY
Valence
SciTegic.value.DoubleValue
9.445

@<SCITEGIC>MOL_PROPERTY
Coulomb
SciTegic.value.DoubleValue
0.778

@<SCITEGIC>MOL_PROPERTY
VdW
SciTegic.value.DoubleValue
0.679

@<SCITEGIC>MOL_PROPERTY
VdW6
SciTegic.value.DoubleValue
-10.007

@<SCITEGIC>MOL_PROPERTY
VdW12
SciTegic.value.DoubleValue
10.687

@<SCITEGIC>MOL_PROPERTY
Bond
SciTegic.value.DoubleValue
0.201

@<SCITEGIC>MOL_PROPERTY
Angle
SciTegic.value.DoubleValue
3.198

@<SCITEGIC>MOL_PROPERTY
Pdih
SciTegic.value.DoubleValue
6.040

@<SCITEGIC>MOL_PROPERTY
Idih
SciTegic.value.DoubleValue
0.006

@<SCITEGIC>MOL_PROPERTY
Tether
SciTegic.value.DoubleValue
0.000

@<TRIPOS>MOLECULE
guest-8_confgen4.mol2 : confsearch ligand conformer 776
          25          24           1
SMALL
USER_CHARGES
 
@<TRIPOS>ATOM
       1    C1      21.404304   22.104887   21.672882 C.2        1 MOL1         0.6168
       2    O1      20.306644   22.443293   21.276359 O.co2      1 MOL1        -0.6703
       3    O2      22.376459   22.834087   21.667388 O.co2      1 MOL1        -0.6703
       4    C2      21.566444   20.694070   22.226977 C.3        1 MOL1        -0.1963
       5    H1      22.582639   20.354356   21.994168 H          1 MOL1         0.0750
       6    H2      20.878885   20.039725   21.682406 H          1 MOL1         0.0750
       7    C3      21.317954   20.618582   23.756749 C.3        1 MOL1        -0.1860
       8    H3      22.038039   21.286879   24.248982 H          1 MOL1         0.0752
       9    H4      20.321126   21.012905   23.998118 H          1 MOL1         0.0752
      10    C4      21.486632   19.192783   24.340645 C.3        1 MOL1        -0.1858
      11    H5      21.917858   19.284996   25.346855 H          1 MOL1         0.0752
      12    H6      22.220182   18.624169   23.752919 H          1 MOL1         0.0752
      13    C5      20.169170   18.387887   24.471785 C.3        1 MOL1        -0.1858
      14    H7      20.395100   17.435568   24.970376 H          1 MOL1         0.0752
      15    H8      19.483274   18.929667   25.136200 H          1 MOL1         0.0752
      16    C6      19.467149   18.094669   23.124802 C.3        1 MOL1        -0.1858
      17    H9      20.203504   17.693393   22.415467 H          1 MOL1         0.0752
      18    H10     19.085786   19.029567   22.693787 H          1 MOL1         0.0752
      19    C7      18.301759   17.085757   23.249291 C.3        1 MOL1        -0.1834
      20    H11     17.923591   16.857527   22.243277 H          1 MOL1         0.0752
      21    H12     18.673508   16.138282   23.663207 H          1 MOL1         0.0752
      22    C8      17.133878   17.607502   24.114253 C.3        1 MOL1        -0.2849
      23    H13     16.761973   18.567741   23.733764 H          1 MOL1         0.0764
      24    H14     16.299886   16.893910   24.104524 H          1 MOL1         0.0764
      25    H15     17.440609   17.746407   25.158521 H          1 MOL1         0.0764
@<TRIPOS>BOND
    1     1     2    1
    2     1     3    2
    3     1     4    1
    4     4     5    1
    5     4     6    1
    6     4     7    1
    7     7     8    1
    8     7     9    1
    9     7    10    1
   10    10    11    1
   11    10    12    1
   12    10    13    1
   13    13    14    1
   14    13    15    1
   15    13    16    1
   16    16    17    1
   17    16    18    1
   18    16    19    1
   19    19    20    1
   20    19    21    1
   21    19    22    1
   22    22    23    1
   23    22    24    1
   24    22    25    1
@<TRIPOS>SUBSTRUCTURE
       1 MOL1            1 RESIDUE      1      MOL     
@<SCITEGIC>MOL_PROPERTY
VConf Rank
SciTegic.value.IntegerValue
776

@<SCITEGIC>MOL_PROPERTY
Conf_Id
SciTegic.value.IntegerValue
89

@<SCITEGIC>MOL_PROPERTY
Delta U+W
SciTegic.value.DoubleValue
2.903

@<SCITEGIC>MOL_PROPERTY
U+W
SciTegic.value.DoubleValue
-48.726

@<SCITEGIC>MOL_PROPERTY
Grad RMS
SciTegic.value.DoubleValue
0.000000

@<SCITEGIC>MOL_PROPERTY
U
SciTegic.value.DoubleValue
10.996

@<SCITEGIC>MOL_PROPERTY
W
SciTegic.value.DoubleValue
-59.723

@<SCITEGIC>MOL_PROPERTY
W(PB)
SciTegic.value.DoubleValue
-62.151

@<SCITEGIC>MOL_PROPERTY
W(SA)
SciTegic.value.DoubleValue
2.428

@<SCITEGIC>MOL_PROPERTY
Valence
SciTegic.value.DoubleValue
10.985

@<SCITEGIC>MOL_PROPERTY
Coulomb
SciTegic.value.DoubleValue
-0.995

@<SCITEGIC>MOL_PROPERTY
VdW
SciTegic.value.DoubleValue
1.006

@<SCITEGIC>MOL_PROPERTY
VdW6
SciTegic.value.DoubleValue
-10.062

@<SCITEGIC>MOL_PROPERTY
VdW12
SciTegic.value.DoubleValue
11.069

@<SCITEGIC>MOL_PROPERTY
Bond
SciTegic.value.DoubleValue
0.238

@<SCITEGIC>MOL_PROPERTY
Angle
SciTegic.value.DoubleValue
3.202

@<SCITEGIC>MOL_PROPERTY
Pdih
SciTegic.value.DoubleValue
7.544

@<SCITEGIC>MOL_PROPERTY
Idih
SciTegic.value.DoubleValue
0.001

@<SCITEGIC>MOL_PROPERTY
Tether
SciTegic.value.DoubleValue
0.000

@<TRIPOS>MOLECULE
guest-8_confgen4.mol2 : confsearch ligand conformer 777
          25          24           1
SMALL
USER_CHARGES
 
@<TRIPOS>ATOM
       1    C1      17.594017   16.621757   23.364475 C.2        1 MOL1         0.6168
       2    O1      17.519109   16.372634   24.551735 O.co2      1 MOL1        -0.6703
       3    O2      16.688249   17.120924   22.725707 O.co2      1 MOL1        -0.6703
       4    C2      18.870950   16.226556   22.625214 C.3        1 MOL1        -0.1963
       5    H1      18.580441   15.458111   21.899559 H          1 MOL1         0.0750
       6    H2      19.558529   15.746408   23.331941 H          1 MOL1         0.0750
       7    C3      19.589427   17.383784   21.875418 C.3        1 MOL1        -0.1860
       8    H3      20.227915   16.938715   21.100377 H          1 MOL1         0.0752
       9    H4      18.852491   17.999837   21.341583 H          1 MOL1         0.0752
      10    C4      20.486364   18.280219   22.765274 C.3        1 MOL1        -0.1858
      11    H5      21.061191   18.937806   22.101443 H          1 MOL1         0.0752
      12    H6      21.220350   17.658106   23.295173 H          1 MOL1         0.0752
      13    C5      19.702126   19.141526   23.784834 C.3        1 MOL1        -0.1858
      14    H7      18.925592   19.720144   23.266215 H          1 MOL1         0.0752
      15    H8      19.181251   18.482154   24.489642 H          1 MOL1         0.0752
      16    C6      20.600349   20.095908   24.608075 C.3        1 MOL1        -0.1858
      17    H9      21.396092   19.520082   25.100055 H          1 MOL1         0.0752
      18    H10     19.993042   20.534346   25.411725 H          1 MOL1         0.0752
      19    C7      21.220921   21.239190   23.773068 C.3        1 MOL1        -0.1834
      20    H11     21.899244   20.830325   23.013175 H          1 MOL1         0.0752
      21    H12     20.427942   21.779470   23.237838 H          1 MOL1         0.0752
      22    C8      22.003320   22.227359   24.661589 C.3        1 MOL1        -0.2849
      23    H13     22.820716   21.718295   25.188925 H          1 MOL1         0.0764
      24    H14     22.440121   23.030941   24.054538 H          1 MOL1         0.0764
      25    H15     21.346147   22.687994   25.410776 H          1 MOL1         0.0764
@<TRIPOS>BOND
    1     1     2    1
    2     1     3    2
    3     1     4    1
    4     4     5    1
    5     4     6    1
    6     4     7    1
    7     7     8    1
    8     7     9    1
    9     7    10    1
   10    10    11    1
   11    10    12    1
   12    10    13    1
   13    13    14    1
   14    13    15    1
   15    13    16    1
   16    16    17    1
   17    16    18    1
   18    16    19    1
   19    19    20    1
   20    19    21    1
   21    19    22    1
   22    22    23    1
   23    22    24    1
   24    22    25    1
@<TRIPOS>SUBSTRUCTURE
       1 MOL1            1 RESIDUE      1      MOL     
@<SCITEGIC>MOL_PROPERTY
VConf Rank
SciTegic.value.IntegerValue
777

@<SCITEGIC>MOL_PROPERTY
Conf_Id
SciTegic.value.IntegerValue
114

@<SCITEGIC>MOL_PROPERTY
Delta U+W
SciTegic.value.DoubleValue
2.758

@<SCITEGIC>MOL_PROPERTY
U+W
SciTegic.value.DoubleValue
-48.871

@<SCITEGIC>MOL_PROPERTY
Grad RMS
SciTegic.value.DoubleValue
0.000000

@<SCITEGIC>MOL_PROPERTY
U
SciTegic.value.DoubleValue
11.422

@<SCITEGIC>MOL_PROPERTY
W
SciTegic.value.DoubleValue
-60.293

@<SCITEGIC>MOL_PROPERTY
W(PB)
SciTegic.value.DoubleValue
-62.719

@<SCITEGIC>MOL_PROPERTY
W(SA)
SciTegic.value.DoubleValue
2.425

@<SCITEGIC>MOL_PROPERTY
Valence
SciTegic.value.DoubleValue
10.135

@<SCITEGIC>MOL_PROPERTY
Coulomb
SciTegic.value.DoubleValue
0.369

@<SCITEGIC>MOL_PROPERTY
VdW
SciTegic.value.DoubleValue
0.918

@<SCITEGIC>MOL_PROPERTY
VdW6
SciTegic.value.DoubleValue
-10.482

@<SCITEGIC>MOL_PROPERTY
VdW12
SciTegic.value.DoubleValue
11.400

@<SCITEGIC>MOL_PROPERTY
Bond
SciTegic.value.DoubleValue
0.245

@<SCITEGIC>MOL_PROPERTY
Angle
SciTegic.value.DoubleValue
3.539

@<SCITEGIC>MOL_PROPERTY
Pdih
SciTegic.value.DoubleValue
6.346

@<SCITEGIC>MOL_PROPERTY
Idih
SciTegic.value.DoubleValue
0.006

@<SCITEGIC>MOL_PROPERTY
Tether
SciTegic.value.DoubleValue
0.000

@<TRIPOS>MOLECULE
guest-8_confgen4.mol2 : confsearch ligand conformer 778
          25          24           1
SMALL
USER_CHARGES
 
@<TRIPOS>ATOM
       1    C1      17.636334   17.918731   25.973428 C.2        1 MOL1         0.6168
       2    O1      16.992163   17.048129   25.421923 O.co2      1 MOL1        -0.6703
       3    O2      18.303519   17.731729   26.971923 O.co2      1 MOL1        -0.6703
       4    C2      17.589887   19.329737   25.393898 C.3        1 MOL1        -0.1963
       5    H1      17.444588   20.023613   26.230202 H          1 MOL1         0.0750
       6    H2      16.704329   19.415741   24.752678 H          1 MOL1         0.0750
       7    C3      18.864373   19.728241   24.605319 C.3        1 MOL1        -0.1860
       8    H3      18.800708   20.791733   24.338521 H          1 MOL1         0.0752
       9    H4      19.737056   19.616788   25.262076 H          1 MOL1         0.0752
      10    C4      19.050470   18.888748   23.318510 C.3        1 MOL1        -0.1858
      11    H5      18.128414   18.941022   22.723595 H          1 MOL1         0.0752
      12    H6      19.189869   17.830533   23.579373 H          1 MOL1         0.0752
      13    C5      20.230153   19.361782   22.435746 C.3        1 MOL1        -0.1858
      14    H7      20.188658   18.807291   21.489700 H          1 MOL1         0.0752
      15    H8      20.097736   20.422110   22.181395 H          1 MOL1         0.0752
      16    C6      21.615958   19.150876   23.094233 C.3        1 MOL1        -0.1858
      17    H9      21.746323   18.090960   23.351650 H          1 MOL1         0.0752
      18    H10     21.660561   19.708417   24.038279 H          1 MOL1         0.0752
      19    C7      22.794784   19.616884   22.207867 C.3        1 MOL1        -0.1834
      20    H11     22.661672   20.673845   21.938789 H          1 MOL1         0.0752
      21    H12     23.720501   19.561454   22.797117 H          1 MOL1         0.0752
      22    C8      22.972289   18.772025   20.927394 C.3        1 MOL1        -0.2849
      23    H13     23.875795   19.081371   20.386205 H          1 MOL1         0.0764
      24    H14     23.072648   17.706235   21.170565 H          1 MOL1         0.0764
      25    H15     22.121022   18.891523   20.245873 H          1 MOL1         0.0764
@<TRIPOS>BOND
    1     1     2    1
    2     1     3    2
    3     1     4    1
    4     4     5    1
    5     4     6    1
    6     4     7    1
    7     7     8    1
    8     7     9    1
    9     7    10    1
   10    10    11    1
   11    10    12    1
   12    10    13    1
   13    13    14    1
   14    13    15    1
   15    13    16    1
   16    16    17    1
   17    16    18    1
   18    16    19    1
   19    19    20    1
   20    19    21    1
   21    19    22    1
   22    22    23    1
   23    22    24    1
   24    22    25    1
@<TRIPOS>SUBSTRUCTURE
       1 MOL1            1 RESIDUE      1      MOL     
@<SCITEGIC>MOL_PROPERTY
VConf Rank
SciTegic.value.IntegerValue
778

@<SCITEGIC>MOL_PROPERTY
Conf_Id
SciTegic.value.IntegerValue
87

@<SCITEGIC>MOL_PROPERTY
Delta U+W
SciTegic.value.DoubleValue
1.453

@<SCITEGIC>MOL_PROPERTY
U+W
SciTegic.value.DoubleValue
-50.176

@<SCITEGIC>MOL_PROPERTY
Grad RMS
SciTegic.value.DoubleValue
0.000000

@<SCITEGIC>MOL_PROPERTY
U
SciTegic.value.DoubleValue
9.763

@<SCITEGIC>MOL_PROPERTY
W
SciTegic.value.DoubleValue
-59.940

@<SCITEGIC>MOL_PROPERTY
W(PB)
SciTegic.value.DoubleValue
-62.392

@<SCITEGIC>MOL_PROPERTY
W(SA)
SciTegic.value.DoubleValue
2.452

@<SCITEGIC>MOL_PROPERTY
Valence
SciTegic.value.DoubleValue
8.883

@<SCITEGIC>MOL_PROPERTY
Coulomb
SciTegic.value.DoubleValue
-0.122

@<SCITEGIC>MOL_PROPERTY
VdW
SciTegic.value.DoubleValue
1.003

@<SCITEGIC>MOL_PROPERTY
VdW6
SciTegic.value.DoubleValue
-9.782

@<SCITEGIC>MOL_PROPERTY
VdW12
SciTegic.value.DoubleValue
10.785

@<SCITEGIC>MOL_PROPERTY
Bond
SciTegic.value.DoubleValue
0.212

@<SCITEGIC>MOL_PROPERTY
Angle
SciTegic.value.DoubleValue
2.940

@<SCITEGIC>MOL_PROPERTY
Pdih
SciTegic.value.DoubleValue
5.730

@<SCITEGIC>MOL_PROPERTY
Idih
SciTegic.value.DoubleValue
0.001

@<SCITEGIC>MOL_PROPERTY
Tether
SciTegic.value.DoubleValue
0.000

@<TRIPOS>MOLECULE
guest-8_confgen4.mol2 : confsearch ligand conformer 779
          25          24           1
SMALL
USER_CHARGES
 
@<TRIPOS>ATOM
       1    C1      21.689967   16.176784   25.459914 C.2        1 MOL1         0.6168
       2    O1      22.239830   15.517860   24.599592 O.co2      1 MOL1        -0.6703
       3    O2      22.108001   16.284083   26.595906 O.co2      1 MOL1        -0.6703
       4    C2      20.414795   16.925250   25.088565 C.3        1 MOL1        -0.1963
       5    H1      19.771249   16.962669   25.975656 H          1 MOL1         0.0750
       6    H2      19.885149   16.339449   24.327719 H          1 MOL1         0.0750
       7    C3      20.688560   18.356622   24.564948 C.3        1 MOL1        -0.1860
       8    H3      21.226493   18.928398   25.333611 H          1 MOL1         0.0752
       9    H4      21.349650   18.294343   23.690382 H          1 MOL1         0.0752
      10    C4      19.380275   19.090054   24.189322 C.3        1 MOL1        -0.1858
      11    H5      18.704414   19.081218   25.055206 H          1 MOL1         0.0752
      12    H6      18.861638   18.540546   23.392789 H          1 MOL1         0.0752
      13    C5      19.600503   20.561578   23.757520 C.3        1 MOL1        -0.1858
      14    H7      18.623669   21.025040   23.566791 H          1 MOL1         0.0752
      15    H8      20.032824   21.117062   24.600733 H          1 MOL1         0.0752
      16    C6      20.510771   20.759003   22.516450 C.3        1 MOL1        -0.1858
      17    H9      21.533686   20.445321   22.762448 H          1 MOL1         0.0752
      18    H10     20.575170   21.833420   22.297427 H          1 MOL1         0.0752
      19    C7      20.052055   20.016319   21.237337 C.3        1 MOL1        -0.1834
      20    H11     20.782177   20.209228   20.439457 H          1 MOL1         0.0752
      21    H12     20.065359   18.931204   21.405211 H          1 MOL1         0.0752
      22    C8      18.653859   20.451246   20.747516 C.3        1 MOL1        -0.2849
      23    H13     18.613411   21.536654   20.588806 H          1 MOL1         0.0764
      24    H14     18.409856   19.960427   19.796575 H          1 MOL1         0.0764
      25    H15     17.875645   20.179595   21.471764 H          1 MOL1         0.0764
@<TRIPOS>BOND
    1     1     2    1
    2     1     3    2
    3     1     4    1
    4     4     5    1
    5     4     6    1
    6     4     7    1
    7     7     8    1
    8     7     9    1
    9     7    10    1
   10    10    11    1
   11    10    12    1
   12    10    13    1
   13    13    14    1
   14    13    15    1
   15    13    16    1
   16    16    17    1
   17    16    18    1
   18    16    19    1
   19    19    20    1
   20    19    21    1
   21    19    22    1
   22    22    23    1
   23    22    24    1
   24    22    25    1
@<TRIPOS>SUBSTRUCTURE
       1 MOL1            1 RESIDUE      1      MOL     
@<SCITEGIC>MOL_PROPERTY
VConf Rank
SciTegic.value.IntegerValue
779

@<SCITEGIC>MOL_PROPERTY
Conf_Id
SciTegic.value.IntegerValue
29

@<SCITEGIC>MOL_PROPERTY
Delta U+W
SciTegic.value.DoubleValue
0.850

@<SCITEGIC>MOL_PROPERTY
U+W
SciTegic.value.DoubleValue
-50.780

@<SCITEGIC>MOL_PROPERTY
Grad RMS
SciTegic.value.DoubleValue
0.000000

@<SCITEGIC>MOL_PROPERTY
U
SciTegic.value.DoubleValue
8.646

@<SCITEGIC>MOL_PROPERTY
W
SciTegic.value.DoubleValue
-59.426

@<SCITEGIC>MOL_PROPERTY
W(PB)
SciTegic.value.DoubleValue
-61.868

@<SCITEGIC>MOL_PROPERTY
W(SA)
SciTegic.value.DoubleValue
2.442

@<SCITEGIC>MOL_PROPERTY
Valence
SciTegic.value.DoubleValue
8.924

@<SCITEGIC>MOL_PROPERTY
Coulomb
SciTegic.value.DoubleValue
-1.171

@<SCITEGIC>MOL_PROPERTY
VdW
SciTegic.value.DoubleValue
0.894

@<SCITEGIC>MOL_PROPERTY
VdW6
SciTegic.value.DoubleValue
-10.223

@<SCITEGIC>MOL_PROPERTY
VdW12
SciTegic.value.DoubleValue
11.117

@<SCITEGIC>MOL_PROPERTY
Bond
SciTegic.value.DoubleValue
0.231

@<SCITEGIC>MOL_PROPERTY
Angle
SciTegic.value.DoubleValue
3.232

@<SCITEGIC>MOL_PROPERTY
Pdih
SciTegic.value.DoubleValue
5.461

@<SCITEGIC>MOL_PROPERTY
Idih
SciTegic.value.DoubleValue
0.001

@<SCITEGIC>MOL_PROPERTY
Tether
SciTegic.value.DoubleValue
0.000

@<TRIPOS>MOLECULE
guest-8_confgen4.mol2 : confsearch ligand conformer 780
          25          24           1
SMALL
USER_CHARGES
 
@<TRIPOS>ATOM
       1    C1      19.601293   21.661945   20.278449 C.2        1 MOL1         0.6168
       2    O1      18.448997   21.468923   19.944320 O.co2      1 MOL1        -0.6703
       3    O2      20.486320   21.961927   19.501611 O.co2      1 MOL1        -0.6703
       4    C2      19.960560   21.500311   21.751192 C.3        1 MOL1        -0.1963
       5    H1      19.088285   21.791457   22.348641 H          1 MOL1         0.0750
       6    H2      20.765067   22.207786   21.985134 H          1 MOL1         0.0750
       7    C3      20.395149   20.057803   22.109325 C.3        1 MOL1        -0.1860
       8    H3      19.582537   19.367008   21.848080 H          1 MOL1         0.0752
       9    H4      21.263735   19.777214   21.497794 H          1 MOL1         0.0752
      10    C4      20.746448   19.920087   23.608745 C.3        1 MOL1        -0.1858
      11    H5      19.867134   20.161599   24.220206 H          1 MOL1         0.0752
      12    H6      21.510772   20.665690   23.866632 H          1 MOL1         0.0752
      13    C5      21.284618   18.518100   23.989722 C.3        1 MOL1        -0.1858
      14    H7      22.216492   18.334635   23.437976 H          1 MOL1         0.0752
      15    H8      21.564505   18.522283   25.051337 H          1 MOL1         0.0752
      16    C6      20.311360   17.339453   23.722546 C.3        1 MOL1        -0.1858
      17    H9      20.792886   16.407606   24.048560 H          1 MOL1         0.0752
      18    H10     20.159829   17.231425   22.640588 H          1 MOL1         0.0752
      19    C7      18.930334   17.454975   24.413598 C.3        1 MOL1        -0.1834
      20    H11     18.391249   18.333958   24.035957 H          1 MOL1         0.0752
      21    H12     18.324063   16.582961   24.132649 H          1 MOL1         0.0752
      22    C8      19.022205   17.521266   25.953469 C.3        1 MOL1        -0.2849
      23    H13     19.530098   18.436259   26.283287 H          1 MOL1         0.0764
      24    H14     18.019039   17.518097   26.398862 H          1 MOL1         0.0764
      25    H15     19.572446   16.658881   26.351543 H          1 MOL1         0.0764
@<TRIPOS>BOND
    1     1     2    1
    2     1     3    2
    3     1     4    1
    4     4     5    1
    5     4     6    1
    6     4     7    1
    7     7     8    1
    8     7     9    1
    9     7    10    1
   10    10    11    1
   11    10    12    1
   12    10    13    1
   13    13    14    1
   14    13    15    1
   15    13    16    1
   16    16    17    1
   17    16    18    1
   18    16    19    1
   19    19    20    1
   20    19    21    1
   21    19    22    1
   22    22    23    1
   23    22    24    1
   24    22    25    1
@<TRIPOS>SUBSTRUCTURE
       1 MOL1            1 RESIDUE      1      MOL     
@<SCITEGIC>MOL_PROPERTY
VConf Rank
SciTegic.value.IntegerValue
780

@<SCITEGIC>MOL_PROPERTY
Conf_Id
SciTegic.value.IntegerValue
30

@<SCITEGIC>MOL_PROPERTY
Delta U+W
SciTegic.value.DoubleValue
0.843

@<SCITEGIC>MOL_PROPERTY
U+W
SciTegic.value.DoubleValue
-50.787

@<SCITEGIC>MOL_PROPERTY
Grad RMS
SciTegic.value.DoubleValue
0.000000

@<SCITEGIC>MOL_PROPERTY
U
SciTegic.value.DoubleValue
8.647

@<SCITEGIC>MOL_PROPERTY
W
SciTegic.value.DoubleValue
-59.434

@<SCITEGIC>MOL_PROPERTY
W(PB)
SciTegic.value.DoubleValue
-61.861

@<SCITEGIC>MOL_PROPERTY
W(SA)
SciTegic.value.DoubleValue
2.428

@<SCITEGIC>MOL_PROPERTY
Valence
SciTegic.value.DoubleValue
8.924

@<SCITEGIC>MOL_PROPERTY
Coulomb
SciTegic.value.DoubleValue
-1.170

@<SCITEGIC>MOL_PROPERTY
VdW
SciTegic.value.DoubleValue
0.894

@<SCITEGIC>MOL_PROPERTY
VdW6
SciTegic.value.DoubleValue
-10.224

@<SCITEGIC>MOL_PROPERTY
VdW12
SciTegic.value.DoubleValue
11.118

@<SCITEGIC>MOL_PROPERTY
Bond
SciTegic.value.DoubleValue
0.231

@<SCITEGIC>MOL_PROPERTY
Angle
SciTegic.value.DoubleValue
3.232

@<SCITEGIC>MOL_PROPERTY
Pdih
SciTegic.value.DoubleValue
5.460

@<SCITEGIC>MOL_PROPERTY
Idih
SciTegic.value.DoubleValue
0.000

@<SCITEGIC>MOL_PROPERTY
Tether
SciTegic.value.DoubleValue
0.000

@<TRIPOS>MOLECULE
guest-8_confgen4.mol2 : confsearch ligand conformer 781
          25          24           1
SMALL
USER_CHARGES
 
@<TRIPOS>ATOM
       1    C1      20.937511   17.932837   27.582250 C.2        1 MOL1         0.6168
       2    O1      19.766692   17.987175   27.906030 O.co2      1 MOL1        -0.6703
       3    O2      21.826252   17.631091   28.353746 O.co2      1 MOL1        -0.6703
       4    C2      21.342182   18.254361   26.142715 C.3        1 MOL1        -0.1963
       5    H1      21.869680   17.378093   25.747992 H          1 MOL1         0.0750
       6    H2      22.068088   19.074948   26.182757 H          1 MOL1         0.0750
       7    C3      20.173095   18.633805   25.195258 C.3        1 MOL1        -0.1860
       8    H3      19.446511   17.809998   25.164860 H          1 MOL1         0.0752
       9    H4      19.645125   19.508422   25.599977 H          1 MOL1         0.0752
      10    C4      20.669183   18.942024   23.765732 C.3        1 MOL1        -0.1858
      11    H5      21.196692   18.066325   23.363212 H          1 MOL1         0.0752
      12    H6      21.395413   19.765824   23.798600 H          1 MOL1         0.0752
      13    C5      19.504629   19.319202   22.824967 C.3        1 MOL1        -0.1858
      14    H7      18.778249   18.495564   22.791875 H          1 MOL1         0.0752
      15    H8      18.976955   20.194909   23.227211 H          1 MOL1         0.0752
      16    C6      19.999964   19.627493   21.395452 C.3        1 MOL1        -0.1858
      17    H9      20.527631   18.751888   20.992988 H          1 MOL1         0.0752
      18    H10     20.726288   20.451185   21.428295 H          1 MOL1         0.0752
      19    C7      18.836005   20.004477   20.455003 C.3        1 MOL1        -0.1834
      20    H11     18.108236   19.181992   20.418143 H          1 MOL1         0.0752
      21    H12     18.306893   20.881277   20.853438 H          1 MOL1         0.0752
      22    C8      19.334695   20.311566   19.028606 C.3        1 MOL1        -0.2849
      23    H13     19.840914   19.439990   18.593295 H          1 MOL1         0.0764
      24    H14     18.494617   20.577476   18.373894 H          1 MOL1         0.0764
      25    H15     20.041048   21.152073   19.031858 H          1 MOL1         0.0764
@<TRIPOS>BOND
    1     1     2    1
    2     1     3    2
    3     1     4    1
    4     4     5    1
    5     4     6    1
    6     4     7    1
    7     7     8    1
    8     7     9    1
    9     7    10    1
   10    10    11    1
   11    10    12    1
   12    10    13    1
   13    13    14    1
   14    13    15    1
   15    13    16    1
   16    16    17    1
   17    16    18    1
   18    16    19    1
   19    19    20    1
   20    19    21    1
   21    19    22    1
   22    22    23    1
   23    22    24    1
   24    22    25    1
@<TRIPOS>SUBSTRUCTURE
       1 MOL1            1 RESIDUE      1      MOL     
@<SCITEGIC>MOL_PROPERTY
VConf Rank
SciTegic.value.IntegerValue
781

@<SCITEGIC>MOL_PROPERTY
Conf_Id
SciTegic.value.IntegerValue
0

@<SCITEGIC>MOL_PROPERTY
Delta U+W
SciTegic.value.DoubleValue
0.000

@<SCITEGIC>MOL_PROPERTY
U+W
SciTegic.value.DoubleValue
-51.629

@<SCITEGIC>MOL_PROPERTY
Grad RMS
SciTegic.value.DoubleValue
0.000000

@<SCITEGIC>MOL_PROPERTY
U
SciTegic.value.DoubleValue
6.586

@<SCITEGIC>MOL_PROPERTY
W
SciTegic.value.DoubleValue
-58.216

@<SCITEGIC>MOL_PROPERTY
W(PB)
SciTegic.value.DoubleValue
-60.757

@<SCITEGIC>MOL_PROPERTY
W(SA)
SciTegic.value.DoubleValue
2.541

@<SCITEGIC>MOL_PROPERTY
Valence
SciTegic.value.DoubleValue
8.027

@<SCITEGIC>MOL_PROPERTY
Coulomb
SciTegic.value.DoubleValue
-2.892

@<SCITEGIC>MOL_PROPERTY
VdW
SciTegic.value.DoubleValue
1.451

@<SCITEGIC>MOL_PROPERTY
VdW6
SciTegic.value.DoubleValue
-7.931

@<SCITEGIC>MOL_PROPERTY
VdW12
SciTegic.value.DoubleValue
9.383

@<SCITEGIC>MOL_PROPERTY
Bond
SciTegic.value.DoubleValue
0.149

@<SCITEGIC>MOL_PROPERTY
Angle
SciTegic.value.DoubleValue
2.726

@<SCITEGIC>MOL_PROPERTY
Pdih
SciTegic.value.DoubleValue
5.152

@<SCITEGIC>MOL_PROPERTY
Idih
SciTegic.value.DoubleValue
0.000

@<SCITEGIC>MOL_PROPERTY
Tether
SciTegic.value.DoubleValue
0.000

@<TRIPOS>MOLECULE
guest-8_confgen4.mol2 : confsearch ligand conformer 782
          25          24           1
SMALL
USER_CHARGES
 
@<TRIPOS>ATOM
       1    C1      22.041944   14.896502   22.889402 C.2        1 MOL1         0.6168
       2    O1      21.253216   14.001920   22.656483 O.co2      1 MOL1        -0.6703
       3    O2      23.198392   14.888820   22.516320 O.co2      1 MOL1        -0.6703
       4    C2      21.546788   16.106411   23.673635 C.3        1 MOL1        -0.1963
       5    H1      22.384544   16.495189   24.264922 H          1 MOL1         0.0750
       6    H2      20.781879   15.764057   24.380963 H          1 MOL1         0.0750
       7    C3      20.973000   17.219615   22.762829 C.3        1 MOL1        -0.1860
       8    H3      21.746818   17.541881   22.052234 H          1 MOL1         0.0752
       9    H4      20.144291   16.810708   22.168161 H          1 MOL1         0.0752
      10    C4      20.478510   18.432918   23.579772 C.3        1 MOL1        -0.1858
      11    H5      21.308934   18.838626   24.173890 H          1 MOL1         0.0752
      12    H6      19.706106   18.107180   24.290030 H          1 MOL1         0.0752
      13    C5      19.906899   19.540874   22.669188 C.3        1 MOL1        -0.1858
      14    H7      20.679138   19.866820   21.958899 H          1 MOL1         0.0752
      15    H8      19.076462   19.135384   22.075003 H          1 MOL1         0.0752
      16    C6      19.412153   20.754478   23.485442 C.3        1 MOL1        -0.1858
      17    H9      20.242402   21.160275   24.079674 H          1 MOL1         0.0752
      18    H10     18.639877   20.428851   24.195830 H          1 MOL1         0.0752
      19    C7      18.840685   21.862020   22.575422 C.3        1 MOL1        -0.1834
      20    H11     19.611089   22.191643   21.864566 H          1 MOL1         0.0752
      21    H12     18.008564   21.460240   21.980748 H          1 MOL1         0.0752
      22    C8      18.347776   23.072070   23.394215 C.3        1 MOL1        -0.2849
      23    H13     17.945025   23.849289   22.731788 H          1 MOL1         0.0764
      24    H14     17.553471   22.776750   24.092257 H          1 MOL1         0.0764
      25    H15     19.168058   23.513651   23.975196 H          1 MOL1         0.0764
@<TRIPOS>BOND
    1     1     2    1
    2     1     3    2
    3     1     4    1
    4     4     5    1
    5     4     6    1
    6     4     7    1
    7     7     8    1
    8     7     9    1
    9     7    10    1
   10    10    11    1
   11    10    12    1
   12    10    13    1
   13    13    14    1
   14    13    15    1
   15    13    16    1
   16    16    17    1
   17    16    18    1
   18    16    19    1
   19    19    20    1
   20    19    21    1
   21    19    22    1
   22    22    23    1
   23    22    24    1
   24    22    25    1
@<TRIPOS>SUBSTRUCTURE
       1 MOL1            1 RESIDUE      1      MOL     
@<SCITEGIC>MOL_PROPERTY
VConf Rank
SciTegic.value.IntegerValue
782

@<SCITEGIC>MOL_PROPERTY
Conf_Id
SciTegic.value.IntegerValue
27

@<SCITEGIC>MOL_PROPERTY
Delta U+W
SciTegic.value.DoubleValue
-1.297

@<SCITEGIC>MOL_PROPERTY
U+W
SciTegic.value.DoubleValue
-52.926

@<SCITEGIC>MOL_PROPERTY
Grad RMS
SciTegic.value.DoubleValue
0.000000

@<SCITEGIC>MOL_PROPERTY
U
SciTegic.value.DoubleValue
5.617

@<SCITEGIC>MOL_PROPERTY
W
SciTegic.value.DoubleValue
-58.543

@<SCITEGIC>MOL_PROPERTY
W(PB)
SciTegic.value.DoubleValue
-61.065

@<SCITEGIC>MOL_PROPERTY
W(SA)
SciTegic.value.DoubleValue
2.522

@<SCITEGIC>MOL_PROPERTY
Valence
SciTegic.value.DoubleValue
7.531

@<SCITEGIC>MOL_PROPERTY
Coulomb
SciTegic.value.DoubleValue
-2.818

@<SCITEGIC>MOL_PROPERTY
VdW
SciTegic.value.DoubleValue
0.904

@<SCITEGIC>MOL_PROPERTY
VdW6
SciTegic.value.DoubleValue
-7.640

@<SCITEGIC>MOL_PROPERTY
VdW12
SciTegic.value.DoubleValue
8.544

@<SCITEGIC>MOL_PROPERTY
Bond
SciTegic.value.DoubleValue
0.115

@<SCITEGIC>MOL_PROPERTY
Angle
SciTegic.value.DoubleValue
2.271

@<SCITEGIC>MOL_PROPERTY
Pdih
SciTegic.value.DoubleValue
5.144

@<SCITEGIC>MOL_PROPERTY
Idih
SciTegic.value.DoubleValue
0.001

@<SCITEGIC>MOL_PROPERTY
Tether
SciTegic.value.DoubleValue
0.000

@<TRIPOS>MOLECULE
guest-8_confgen4.mol2 : confsearch ligand conformer 783
          25          24           1
SMALL
USER_CHARGES
 
@<TRIPOS>ATOM
       1    C1      17.755716   21.206447   25.717283 C.2        1 MOL1         0.6168
       2    O1      16.954759   21.885752   25.105657 O.co2      1 MOL1        -0.6703
       3    O2      17.443571   20.255772   26.407027 O.co2      1 MOL1        -0.6703
       4    C2      19.232586   21.579958   25.626127 C.3        1 MOL1        -0.1963
       5    H1      19.762689   21.119944   26.468875 H          1 MOL1         0.0750
       6    H2      19.305042   22.665682   25.760065 H          1 MOL1         0.0750
       7    C3      19.903168   21.177058   24.287122 C.3        1 MOL1        -0.1860
       8    H3      19.344833   21.622537   23.451967 H          1 MOL1         0.0752
       9    H4      20.915336   21.602403   24.253262 H          1 MOL1         0.0752
      10    C4      19.987798   19.645263   24.102157 C.3        1 MOL1        -0.1858
      11    H5      18.977208   19.214102   24.117359 H          1 MOL1         0.0752
      12    H6      20.534965   19.203339   24.946156 H          1 MOL1         0.0752
      13    C5      20.686917   19.266900   22.778637 C.3        1 MOL1        -0.1858
      14    H7      20.139046   19.709233   21.935270 H          1 MOL1         0.0752
      15    H8      21.698828   19.694468   22.762498 H          1 MOL1         0.0752
      16    C6      20.771077   17.736469   22.592746 C.3        1 MOL1        -0.1858
      17    H9      19.759195   17.308728   22.608937 H          1 MOL1         0.0752
      18    H10     21.318607   17.293889   23.436200 H          1 MOL1         0.0752
      19    C7      21.469334   17.357782   21.269718 C.3        1 MOL1        -0.1834
      20    H11     20.923177   17.797363   20.423572 H          1 MOL1         0.0752
      21    H12     22.482641   17.782439   21.250860 H          1 MOL1         0.0752
      22    C8      21.551158   15.828782   21.087871 C.3        1 MOL1        -0.2849
      23    H13     20.548862   15.380980   21.071352 H          1 MOL1         0.0764
      24    H14     22.050103   15.577672   20.142843 H          1 MOL1         0.0764
      25    H15     22.120029   15.365912   21.904896 H          1 MOL1         0.0764
@<TRIPOS>BOND
    1     1     2    1
    2     1     3    2
    3     1     4    1
    4     4     5    1
    5     4     6    1
    6     4     7    1
    7     7     8    1
    8     7     9    1
    9     7    10    1
   10    10    11    1
   11    10    12    1
   12    10    13    1
   13    13    14    1
   14    13    15    1
   15    13    16    1
   16    16    17    1
   17    16    18    1
   18    16    19    1
   19    19    20    1
   20    19    21    1
   21    19    22    1
   22    22    23    1
   23    22    24    1
   24    22    25    1
@<TRIPOS>SUBSTRUCTURE
       1 MOL1            1 RESIDUE      1      MOL     
@<SCITEGIC>MOL_PROPERTY
VConf Rank
SciTegic.value.IntegerValue
783

@<SCITEGIC>MOL_PROPERTY
Conf_Id
SciTegic.value.IntegerValue
37

@<SCITEGIC>MOL_PROPERTY
Delta U+W
SciTegic.value.DoubleValue
-0.230

@<SCITEGIC>MOL_PROPERTY
U+W
SciTegic.value.DoubleValue
-51.860

@<SCITEGIC>MOL_PROPERTY
Grad RMS
SciTegic.value.DoubleValue
0.000000

@<SCITEGIC>MOL_PROPERTY
U
SciTegic.value.DoubleValue
7.816

@<SCITEGIC>MOL_PROPERTY
W
SciTegic.value.DoubleValue
-59.675

@<SCITEGIC>MOL_PROPERTY
W(PB)
SciTegic.value.DoubleValue
-62.180

@<SCITEGIC>MOL_PROPERTY
W(SA)
SciTegic.value.DoubleValue
2.505

@<SCITEGIC>MOL_PROPERTY
Valence
SciTegic.value.DoubleValue
7.785

@<SCITEGIC>MOL_PROPERTY
Coulomb
SciTegic.value.DoubleValue
-0.713

@<SCITEGIC>MOL_PROPERTY
VdW
SciTegic.value.DoubleValue
0.744

@<SCITEGIC>MOL_PROPERTY
VdW6
SciTegic.value.DoubleValue
-8.514

@<SCITEGIC>MOL_PROPERTY
VdW12
SciTegic.value.DoubleValue
9.259

@<SCITEGIC>MOL_PROPERTY
Bond
SciTegic.value.DoubleValue
0.136

@<SCITEGIC>MOL_PROPERTY
Angle
SciTegic.value.DoubleValue
2.433

@<SCITEGIC>MOL_PROPERTY
Pdih
SciTegic.value.DoubleValue
5.216

@<SCITEGIC>MOL_PROPERTY
Idih
SciTegic.value.DoubleValue
0.000

@<SCITEGIC>MOL_PROPERTY
Tether
SciTegic.value.DoubleValue
0.000

@<TRIPOS>MOLECULE
guest-8_confgen4.mol2 : confsearch ligand conformer 784
          25          24           1
SMALL
USER_CHARGES
 
@<TRIPOS>ATOM
       1    C1      19.464741   20.368524   27.192510 C.2        1 MOL1         0.6168
       2    O1      19.121328   21.524396   27.344502 O.co2      1 MOL1        -0.6703
       3    O2      20.538115   19.931876   27.558799 O.co2      1 MOL1        -0.6703
       4    C2      18.486066   19.410676   26.518944 C.3        1 MOL1        -0.1963
       5    H1      17.501586   19.575312   26.972461 H          1 MOL1         0.0750
       6    H2      18.779600   18.382227   26.761794 H          1 MOL1         0.0750
       7    C3      18.385193   19.590310   24.981901 C.3        1 MOL1        -0.1860
       8    H3      17.566669   18.963547   24.602775 H          1 MOL1         0.0752
       9    H4      18.117838   20.631575   24.753952 H          1 MOL1         0.0752
      10    C4      19.694548   19.214438   24.252464 C.3        1 MOL1        -0.1858
      11    H5      19.964572   18.177271   24.494114 H          1 MOL1         0.0752
      12    H6      20.515215   19.849406   24.614050 H          1 MOL1         0.0752
      13    C5      19.561568   19.370270   22.722215 C.3        1 MOL1        -0.1858
      14    H7      18.743362   18.733955   22.357965 H          1 MOL1         0.0752
      15    H8      19.291662   20.407730   22.481562 H          1 MOL1         0.0752
      16    C6      20.869733   18.995543   21.992735 C.3        1 MOL1        -0.1858
      17    H9      21.139981   17.958198   22.233487 H          1 MOL1         0.0752
      18    H10     21.688108   19.631712   22.356986 H          1 MOL1         0.0752
      19    C7      20.737498   19.151735   20.463198 C.3        1 MOL1        -0.1834
      20    H11     19.920856   18.515310   20.095044 H          1 MOL1         0.0752
      21    H12     20.469098   20.188847   20.218570 H          1 MOL1         0.0752
      22    C8      22.045861   18.776611   19.738580 C.3        1 MOL1        -0.2849
      23    H13     22.321525   17.733248   19.940568 H          1 MOL1         0.0764
      24    H14     21.934022   18.893444   18.652797 H          1 MOL1         0.0764
      25    H15     22.873911   19.419354   20.065095 H          1 MOL1         0.0764
@<TRIPOS>BOND
    1     1     2    1
    2     1     3    2
    3     1     4    1
    4     4     5    1
    5     4     6    1
    6     4     7    1
    7     7     8    1
    8     7     9    1
    9     7    10    1
   10    10    11    1
   11    10    12    1
   12    10    13    1
   13    13    14    1
   14    13    15    1
   15    13    16    1
   16    16    17    1
   17    16    18    1
   18    16    19    1
   19    19    20    1
   20    19    21    1
   21    19    22    1
   22    22    23    1
   23    22    24    1
   24    22    25    1
@<TRIPOS>SUBSTRUCTURE
       1 MOL1            1 RESIDUE      1      MOL     
@<SCITEGIC>MOL_PROPERTY
VConf Rank
SciTegic.value.IntegerValue
784

@<SCITEGIC>MOL_PROPERTY
Conf_Id
SciTegic.value.IntegerValue
54

@<SCITEGIC>MOL_PROPERTY
Delta U+W
SciTegic.value.DoubleValue
-0.224

@<SCITEGIC>MOL_PROPERTY
U+W
SciTegic.value.DoubleValue
-51.854

@<SCITEGIC>MOL_PROPERTY
Grad RMS
SciTegic.value.DoubleValue
0.000000

@<SCITEGIC>MOL_PROPERTY
U
SciTegic.value.DoubleValue
7.816

@<SCITEGIC>MOL_PROPERTY
W
SciTegic.value.DoubleValue
-59.670

@<SCITEGIC>MOL_PROPERTY
W(PB)
SciTegic.value.DoubleValue
-62.157

@<SCITEGIC>MOL_PROPERTY
W(SA)
SciTegic.value.DoubleValue
2.487

@<SCITEGIC>MOL_PROPERTY
Valence
SciTegic.value.DoubleValue
7.785

@<SCITEGIC>MOL_PROPERTY
Coulomb
SciTegic.value.DoubleValue
-0.713

@<SCITEGIC>MOL_PROPERTY
VdW
SciTegic.value.DoubleValue
0.744

@<SCITEGIC>MOL_PROPERTY
VdW6
SciTegic.value.DoubleValue
-8.515

@<SCITEGIC>MOL_PROPERTY
VdW12
SciTegic.value.DoubleValue
9.259

@<SCITEGIC>MOL_PROPERTY
Bond
SciTegic.value.DoubleValue
0.136

@<SCITEGIC>MOL_PROPERTY
Angle
SciTegic.value.DoubleValue
2.433

@<SCITEGIC>MOL_PROPERTY
Pdih
SciTegic.value.DoubleValue
5.215

@<SCITEGIC>MOL_PROPERTY
Idih
SciTegic.value.DoubleValue
0.000

@<SCITEGIC>MOL_PROPERTY
Tether
SciTegic.value.DoubleValue
0.000

@<TRIPOS>MOLECULE
guest-8_confgen4.mol2 : confsearch ligand conformer 785
          25          24           1
SMALL
USER_CHARGES
 
@<TRIPOS>ATOM
       1    C1      19.814237   20.410249   27.147654 C.2        1 MOL1         0.6168
       2    O1      19.289098   21.503199   27.065569 O.co2      1 MOL1        -0.6703
       3    O2      19.425160   19.531274   27.891383 O.co2      1 MOL1        -0.6703
       4    C2      21.040931   20.130460   26.283869 C.3        1 MOL1        -0.1963
       5    H1      21.794986   19.663845   26.928570 H          1 MOL1         0.0750
       6    H2      21.458714   21.087217   25.947856 H          1 MOL1         0.0750
       7    C3      20.760776   19.211358   25.066318 C.3        1 MOL1        -0.1860
       8    H3      21.720146   18.944831   24.605476 H          1 MOL1         0.0752
       9    H4      20.304760   18.274500   25.415238 H          1 MOL1         0.0752
      10    C4      19.843716   19.881788   24.014902 C.3        1 MOL1        -0.1858
      11    H5      20.321487   20.794390   23.633234 H          1 MOL1         0.0752
      12    H6      18.912674   20.201779   24.502494 H          1 MOL1         0.0752
      13    C5      19.476516   18.954616   22.831487 C.3        1 MOL1        -0.1858
      14    H7      19.015993   18.034004   23.214850 H          1 MOL1         0.0752
      15    H8      18.708829   19.459917   22.231904 H          1 MOL1         0.0752
      16    C6      20.682259   18.599275   21.926642 C.3        1 MOL1        -0.1858
      17    H9      21.448315   18.087236   22.522334 H          1 MOL1         0.0752
      18    H10     21.145444   19.520396   21.547680 H          1 MOL1         0.0752
      19    C7      20.309307   17.681524   20.738734 C.3        1 MOL1        -0.1834
      20    H11     21.233352   17.367809   20.233788 H          1 MOL1         0.0752
      21    H12     19.834218   16.764264   21.113199 H          1 MOL1         0.0752
      22    C8      19.386273   18.360669   19.703500 C.3        1 MOL1        -0.2849
      23    H13     18.400291   18.583832   20.129458 H          1 MOL1         0.0764
      24    H14     19.825854   19.298928   19.340804 H          1 MOL1         0.0764
      25    H15     19.232032   17.703378   18.838004 H          1 MOL1         0.0764
@<TRIPOS>BOND
    1     1     2    1
    2     1     3    2
    3     1     4    1
    4     4     5    1
    5     4     6    1
    6     4     7    1
    7     7     8    1
    8     7     9    1
    9     7    10    1
   10    10    11    1
   11    10    12    1
   12    10    13    1
   13    13    14    1
   14    13    15    1
   15    13    16    1
   16    16    17    1
   17    16    18    1
   18    16    19    1
   19    19    20    1
   20    19    21    1
   21    19    22    1
   22    22    23    1
   23    22    24    1
   24    22    25    1
@<TRIPOS>SUBSTRUCTURE
       1 MOL1            1 RESIDUE      1      MOL     
@<SCITEGIC>MOL_PROPERTY
VConf Rank
SciTegic.value.IntegerValue
785

@<SCITEGIC>MOL_PROPERTY
Conf_Id
SciTegic.value.IntegerValue
101

@<SCITEGIC>MOL_PROPERTY
Delta U+W
SciTegic.value.DoubleValue
1.534

@<SCITEGIC>MOL_PROPERTY
U+W
SciTegic.value.DoubleValue
-50.095

@<SCITEGIC>MOL_PROPERTY
Grad RMS
SciTegic.value.DoubleValue
0.000000

@<SCITEGIC>MOL_PROPERTY
U
SciTegic.value.DoubleValue
9.416

@<SCITEGIC>MOL_PROPERTY
W
SciTegic.value.DoubleValue
-59.512

@<SCITEGIC>MOL_PROPERTY
W(PB)
SciTegic.value.DoubleValue
-61.988

@<SCITEGIC>MOL_PROPERTY
W(SA)
SciTegic.value.DoubleValue
2.476

@<SCITEGIC>MOL_PROPERTY
Valence
SciTegic.value.DoubleValue
8.939

@<SCITEGIC>MOL_PROPERTY
Coulomb
SciTegic.value.DoubleValue
-0.615

@<SCITEGIC>MOL_PROPERTY
VdW
SciTegic.value.DoubleValue
1.092

@<SCITEGIC>MOL_PROPERTY
VdW6
SciTegic.value.DoubleValue
-9.710

@<SCITEGIC>MOL_PROPERTY
VdW12
SciTegic.value.DoubleValue
10.802

@<SCITEGIC>MOL_PROPERTY
Bond
SciTegic.value.DoubleValue
0.216

@<SCITEGIC>MOL_PROPERTY
Angle
SciTegic.value.DoubleValue
2.979

@<SCITEGIC>MOL_PROPERTY
Pdih
SciTegic.value.DoubleValue
5.743

@<SCITEGIC>MOL_PROPERTY
Idih
SciTegic.value.DoubleValue
0.000

@<SCITEGIC>MOL_PROPERTY
Tether
SciTegic.value.DoubleValue
0.000

@<TRIPOS>MOLECULE
guest-8_confgen4.mol2 : confsearch ligand conformer 786
          25          24           1
SMALL
USER_CHARGES
 
@<TRIPOS>ATOM
       1    C1      20.588970   17.994818   19.286429 C.2        1 MOL1         0.6168
       2    O1      21.623945   17.361086   19.223607 O.co2      1 MOL1        -0.6703
       3    O2      19.701622   17.918156   18.459680 O.co2      1 MOL1        -0.6703
       4    C2      20.382507   18.920297   20.480175 C.3        1 MOL1        -0.1963
       5    H1      19.769409   19.767762   20.151156 H          1 MOL1         0.0750
       6    H2      21.362569   19.318484   20.765280 H          1 MOL1         0.0750
       7    C3      19.709190   18.207183   21.681702 C.3        1 MOL1        -0.1860
       8    H3      18.778540   17.737450   21.334327 H          1 MOL1         0.0752
       9    H4      20.355088   17.391153   22.034139 H          1 MOL1         0.0752
      10    C4      19.374623   19.154753   22.858513 C.3        1 MOL1        -0.1858
      11    H5      18.779465   18.591004   23.588214 H          1 MOL1         0.0752
      12    H6      18.736967   19.974959   22.501830 H          1 MOL1         0.0752
      13    C5      20.628780   19.733263   23.558740 C.3        1 MOL1        -0.1858
      14    H7      21.265673   18.913617   23.915902 H          1 MOL1         0.0752
      15    H8      21.230011   20.290277   22.829373 H          1 MOL1         0.0752
      16    C6      20.296168   20.693557   24.729023 C.3        1 MOL1        -0.1858
      17    H9      19.733057   21.550960   24.336031 H          1 MOL1         0.0752
      18    H10     21.235753   21.104026   25.123186 H          1 MOL1         0.0752
      19    C7      19.497912   20.067146   25.899432 C.3        1 MOL1        -0.1834
      20    H11     19.323168   20.843237   26.657186 H          1 MOL1         0.0752
      21    H12     18.504029   19.751856   25.555730 H          1 MOL1         0.0752
      22    C8      20.220691   18.876793   26.566209 C.3        1 MOL1        -0.2849
      23    H13     21.227533   19.163409   26.896512 H          1 MOL1         0.0764
      24    H14     19.661397   18.530986   27.445057 H          1 MOL1         0.0764
      25    H15     20.312233   18.028894   25.875727 H          1 MOL1         0.0764
@<TRIPOS>BOND
    1     1     2    1
    2     1     3    2
    3     1     4    1
    4     4     5    1
    5     4     6    1
    6     4     7    1
    7     7     8    1
    8     7     9    1
    9     7    10    1
   10    10    11    1
   11    10    12    1
   12    10    13    1
   13    13    14    1
   14    13    15    1
   15    13    16    1
   16    16    17    1
   17    16    18    1
   18    16    19    1
   19    19    20    1
   20    19    21    1
   21    19    22    1
   22    22    23    1
   23    22    24    1
   24    22    25    1
@<TRIPOS>SUBSTRUCTURE
       1 MOL1            1 RESIDUE      1      MOL     
@<SCITEGIC>MOL_PROPERTY
VConf Rank
SciTegic.value.IntegerValue
786

@<SCITEGIC>MOL_PROPERTY
Conf_Id
SciTegic.value.IntegerValue
75

@<SCITEGIC>MOL_PROPERTY
Delta U+W
SciTegic.value.DoubleValue
1.014

@<SCITEGIC>MOL_PROPERTY
U+W
SciTegic.value.DoubleValue
-50.615

@<SCITEGIC>MOL_PROPERTY
Grad RMS
SciTegic.value.DoubleValue
0.000000

@<SCITEGIC>MOL_PROPERTY
U
SciTegic.value.DoubleValue
8.474

@<SCITEGIC>MOL_PROPERTY
W
SciTegic.value.DoubleValue
-59.089

@<SCITEGIC>MOL_PROPERTY
W(PB)
SciTegic.value.DoubleValue
-61.530

@<SCITEGIC>MOL_PROPERTY
W(SA)
SciTegic.value.DoubleValue
2.441

@<SCITEGIC>MOL_PROPERTY
Valence
SciTegic.value.DoubleValue
9.080

@<SCITEGIC>MOL_PROPERTY
Coulomb
SciTegic.value.DoubleValue
-1.772

@<SCITEGIC>MOL_PROPERTY
VdW
SciTegic.value.DoubleValue
1.165

@<SCITEGIC>MOL_PROPERTY
VdW6
SciTegic.value.DoubleValue
-9.830

@<SCITEGIC>MOL_PROPERTY
VdW12
SciTegic.value.DoubleValue
10.996

@<SCITEGIC>MOL_PROPERTY
Bond
SciTegic.value.DoubleValue
0.240

@<SCITEGIC>MOL_PROPERTY
Angle
SciTegic.value.DoubleValue
3.225

@<SCITEGIC>MOL_PROPERTY
Pdih
SciTegic.value.DoubleValue
5.615

@<SCITEGIC>MOL_PROPERTY
Idih
SciTegic.value.DoubleValue
0.001

@<SCITEGIC>MOL_PROPERTY
Tether
SciTegic.value.DoubleValue
0.000

@<TRIPOS>MOLECULE
guest-8_confgen4.mol2 : confsearch ligand conformer 787
          25          24           1
SMALL
USER_CHARGES
 
@<TRIPOS>ATOM
       1    C1      23.652501   21.452095   23.014575 C.2        1 MOL1         0.6168
       2    O1      23.797403   21.796837   21.858371 O.co2      1 MOL1        -0.6703
       3    O2      24.116090   22.057350   23.960842 O.co2      1 MOL1        -0.6703
       4    C2      22.825174   20.202669   23.294832 C.3        1 MOL1        -0.1963
       5    H1      23.230902   19.719467   24.191750 H          1 MOL1         0.0750
       6    H2      22.966057   19.506380   22.459404 H          1 MOL1         0.0750
       7    C3      21.319429   20.508922   23.487247 C.3        1 MOL1        -0.1860
       8    H3      21.196224   21.217018   24.318460 H          1 MOL1         0.0752
       9    H4      20.931980   21.004101   22.586017 H          1 MOL1         0.0752
      10    C4      20.503551   19.228403   23.767898 C.3        1 MOL1        -0.1858
      11    H5      20.894570   18.736679   24.669078 H          1 MOL1         0.0752
      12    H6      20.640574   18.522604   22.940078 H          1 MOL1         0.0752
      13    C5      19.001386   19.540298   23.965271 C.3        1 MOL1        -0.1858
      14    H7      18.903471   20.223004   24.820397 H          1 MOL1         0.0752
      15    H8      18.605342   20.081115   23.094934 H          1 MOL1         0.0752
      16    C6      18.143456   18.279579   24.242706 C.3        1 MOL1        -0.1858
      17    H9      17.357330   18.552797   24.959801 H          1 MOL1         0.0752
      18    H10     18.747608   17.509572   24.741631 H          1 MOL1         0.0752
      19    C7      17.447512   17.683367   22.994068 C.3        1 MOL1        -0.1834
      20    H11     16.806695   16.851124   23.316398 H          1 MOL1         0.0752
      21    H12     16.777255   18.433839   22.552724 H          1 MOL1         0.0752
      22    C8      18.420497   17.167776   21.913403 C.3        1 MOL1        -0.2849
      23    H13     19.146933   16.464205   22.340299 H          1 MOL1         0.0764
      24    H14     17.870718   16.646871   21.118950 H          1 MOL1         0.0764
      25    H15     18.968520   17.995978   21.447166 H          1 MOL1         0.0764
@<TRIPOS>BOND
    1     1     2    1
    2     1     3    2
    3     1     4    1
    4     4     5    1
    5     4     6    1
    6     4     7    1
    7     7     8    1
    8     7     9    1
    9     7    10    1
   10    10    11    1
   11    10    12    1
   12    10    13    1
   13    13    14    1
   14    13    15    1
   15    13    16    1
   16    16    17    1
   17    16    18    1
   18    16    19    1
   19    19    20    1
   20    19    21    1
   21    19    22    1
   22    22    23    1
   23    22    24    1
   24    22    25    1
@<TRIPOS>SUBSTRUCTURE
       1 MOL1            1 RESIDUE      1      MOL     
@<SCITEGIC>MOL_PROPERTY
VConf Rank
SciTegic.value.IntegerValue
787

@<SCITEGIC>MOL_PROPERTY
Conf_Id
SciTegic.value.IntegerValue
125

@<SCITEGIC>MOL_PROPERTY
Delta U+W
SciTegic.value.DoubleValue
2.314

@<SCITEGIC>MOL_PROPERTY
U+W
SciTegic.value.DoubleValue
-49.315

@<SCITEGIC>MOL_PROPERTY
Grad RMS
SciTegic.value.DoubleValue
0.000000

@<SCITEGIC>MOL_PROPERTY
U
SciTegic.value.DoubleValue
9.740

@<SCITEGIC>MOL_PROPERTY
W
SciTegic.value.DoubleValue
-59.054

@<SCITEGIC>MOL_PROPERTY
W(PB)
SciTegic.value.DoubleValue
-61.488

@<SCITEGIC>MOL_PROPERTY
W(SA)
SciTegic.value.DoubleValue
2.433

@<SCITEGIC>MOL_PROPERTY
Valence
SciTegic.value.DoubleValue
10.506

@<SCITEGIC>MOL_PROPERTY
Coulomb
SciTegic.value.DoubleValue
-1.761

@<SCITEGIC>MOL_PROPERTY
VdW
SciTegic.value.DoubleValue
0.994

@<SCITEGIC>MOL_PROPERTY
VdW6
SciTegic.value.DoubleValue
-9.209

@<SCITEGIC>MOL_PROPERTY
VdW12
SciTegic.value.DoubleValue
10.203

@<SCITEGIC>MOL_PROPERTY
Bond
SciTegic.value.DoubleValue
0.193

@<SCITEGIC>MOL_PROPERTY
Angle
SciTegic.value.DoubleValue
2.979

@<SCITEGIC>MOL_PROPERTY
Pdih
SciTegic.value.DoubleValue
7.334

@<SCITEGIC>MOL_PROPERTY
Idih
SciTegic.value.DoubleValue
0.001

@<SCITEGIC>MOL_PROPERTY
Tether
SciTegic.value.DoubleValue
0.000

@<TRIPOS>MOLECULE
guest-8_confgen4.mol2 : confsearch ligand conformer 788
          25          24           1
SMALL
USER_CHARGES
 
@<TRIPOS>ATOM
       1    C1      19.532028   22.861909   21.704583 C.2        1 MOL1         0.6168
       2    O1      19.040747   23.523107   22.597977 O.co2      1 MOL1        -0.6703
       3    O2      19.650728   23.257317   20.561646 O.co2      1 MOL1        -0.6703
       4    C2      20.003597   21.449187   22.029942 C.3        1 MOL1        -0.1963
       5    H1      20.369328   21.450053   23.062879 H          1 MOL1         0.0750
       6    H2      20.857470   21.218002   21.382015 H          1 MOL1         0.0750
       7    C3      18.888387   20.387410   21.845069 C.3        1 MOL1        -0.1860
       8    H3      18.058956   20.602998   22.532742 H          1 MOL1         0.0752
       9    H4      18.480170   20.478283   20.828926 H          1 MOL1         0.0752
      10    C4      19.377108   18.934338   22.054559 C.3        1 MOL1        -0.1858
      11    H5      20.199794   18.718835   21.359060 H          1 MOL1         0.0752
      12    H6      18.559039   18.250575   21.789717 H          1 MOL1         0.0752
      13    C5      19.829959   18.640522   23.503625 C.3        1 MOL1        -0.1858
      14    H7      20.691227   19.271368   23.754380 H          1 MOL1         0.0752
      15    H8      19.022944   18.903678   24.200791 H          1 MOL1         0.0752
      16    C6      20.209291   17.153190   23.691119 C.3        1 MOL1        -0.1858
      17    H9      21.047823   16.898984   23.028450 H          1 MOL1         0.0752
      18    H10     19.363727   16.525876   23.377520 H          1 MOL1         0.0752
      19    C7      20.574211   16.790432   25.149563 C.3        1 MOL1        -0.1834
      20    H11     19.735420   17.038429   25.814570 H          1 MOL1         0.0752
      21    H12     20.712869   15.702615   25.217795 H          1 MOL1         0.0752
      22    C8      21.857975   17.487166   25.650657 C.3        1 MOL1        -0.2849
      23    H13     21.726132   18.574627   25.711758 H          1 MOL1         0.0764
      24    H14     22.122871   17.128220   26.653594 H          1 MOL1         0.0764
      25    H15     22.704152   17.279289   24.982916 H          1 MOL1         0.0764
@<TRIPOS>BOND
    1     1     2    1
    2     1     3    2
    3     1     4    1
    4     4     5    1
    5     4     6    1
    6     4     7    1
    7     7     8    1
    8     7     9    1
    9     7    10    1
   10    10    11    1
   11    10    12    1
   12    10    13    1
   13    13    14    1
   14    13    15    1
   15    13    16    1
   16    16    17    1
   17    16    18    1
   18    16    19    1
   19    19    20    1
   20    19    21    1
   21    19    22    1
   22    22    23    1
   23    22    24    1
   24    22    25    1
@<TRIPOS>SUBSTRUCTURE
       1 MOL1            1 RESIDUE      1      MOL     
@<SCITEGIC>MOL_PROPERTY
VConf Rank
SciTegic.value.IntegerValue
788

@<SCITEGIC>MOL_PROPERTY
Conf_Id
SciTegic.value.IntegerValue
4

@<SCITEGIC>MOL_PROPERTY
Delta U+W
SciTegic.value.DoubleValue
0.189

@<SCITEGIC>MOL_PROPERTY
U+W
SciTegic.value.DoubleValue
-51.441

@<SCITEGIC>MOL_PROPERTY
Grad RMS
SciTegic.value.DoubleValue
0.000000

@<SCITEGIC>MOL_PROPERTY
U
SciTegic.value.DoubleValue
7.701

@<SCITEGIC>MOL_PROPERTY
W
SciTegic.value.DoubleValue
-59.141

@<SCITEGIC>MOL_PROPERTY
W(PB)
SciTegic.value.DoubleValue
-61.609

@<SCITEGIC>MOL_PROPERTY
W(SA)
SciTegic.value.DoubleValue
2.467

@<SCITEGIC>MOL_PROPERTY
Valence
SciTegic.value.DoubleValue
8.550

@<SCITEGIC>MOL_PROPERTY
Coulomb
SciTegic.value.DoubleValue
-1.988

@<SCITEGIC>MOL_PROPERTY
VdW
SciTegic.value.DoubleValue
1.139

@<SCITEGIC>MOL_PROPERTY
VdW6
SciTegic.value.DoubleValue
-8.988

@<SCITEGIC>MOL_PROPERTY
VdW12
SciTegic.value.DoubleValue
10.127

@<SCITEGIC>MOL_PROPERTY
Bond
SciTegic.value.DoubleValue
0.191

@<SCITEGIC>MOL_PROPERTY
Angle
SciTegic.value.DoubleValue
2.738

@<SCITEGIC>MOL_PROPERTY
Pdih
SciTegic.value.DoubleValue
5.621

@<SCITEGIC>MOL_PROPERTY
Idih
SciTegic.value.DoubleValue
0.001

@<SCITEGIC>MOL_PROPERTY
Tether
SciTegic.value.DoubleValue
0.000

@<TRIPOS>MOLECULE
guest-8_confgen4.mol2 : confsearch ligand conformer 789
          25          24           1
SMALL
USER_CHARGES
 
@<TRIPOS>ATOM
       1    C1      17.896309   19.040640   26.777597 C.2        1 MOL1         0.6168
       2    O1      17.916562   17.872228   27.110908 O.co2      1 MOL1        -0.6703
       3    O2      17.444534   19.930631   27.470819 O.co2      1 MOL1        -0.6703
       4    C2      18.491911   19.414036   25.424875 C.3        1 MOL1        -0.1963
       5    H1      17.940849   20.279421   25.037840 H          1 MOL1         0.0750
       6    H2      18.310066   18.578842   24.739233 H          1 MOL1         0.0750
       7    C3      20.006808   19.736325   25.505215 C.3        1 MOL1        -0.1860
       8    H3      20.162387   20.510687   26.269156 H          1 MOL1         0.0752
       9    H4      20.553264   18.847300   25.849235 H          1 MOL1         0.0752
      10    C4      20.605243   20.232783   24.167470 C.3        1 MOL1        -0.1858
      11    H5      21.642819   20.546719   24.345766 H          1 MOL1         0.0752
      12    H6      20.063258   21.127320   23.831274 H          1 MOL1         0.0752
      13    C5      20.587456   19.163042   23.050988 C.3        1 MOL1        -0.1858
      14    H7      21.086568   18.251905   23.407752 H          1 MOL1         0.0752
      15    H8      19.550566   18.892556   22.817913 H          1 MOL1         0.0752
      16    C6      21.288779   19.667065   21.768292 C.3        1 MOL1        -0.1858
      17    H9      22.305908   19.995573   22.022014 H          1 MOL1         0.0752
      18    H10     20.763359   20.551424   21.382635 H          1 MOL1         0.0752
      19    C7      21.382727   18.595678   20.656933 C.3        1 MOL1        -0.1834
      20    H11     21.994025   18.993345   19.835104 H          1 MOL1         0.0752
      21    H12     21.912457   17.711542   21.037718 H          1 MOL1         0.0752
      22    C8      20.007474   18.175062   20.094483 C.3        1 MOL1        -0.2849
      23    H13     19.445798   19.047632   19.736362 H          1 MOL1         0.0764
      24    H14     20.132981   17.484401   19.250605 H          1 MOL1         0.0764
      25    H15     19.402954   17.664029   20.854146 H          1 MOL1         0.0764
@<TRIPOS>BOND
    1     1     2    1
    2     1     3    2
    3     1     4    1
    4     4     5    1
    5     4     6    1
    6     4     7    1
    7     7     8    1
    8     7     9    1
    9     7    10    1
   10    10    11    1
   11    10    12    1
   12    10    13    1
   13    13    14    1
   14    13    15    1
   15    13    16    1
   16    16    17    1
   17    16    18    1
   18    16    19    1
   19    19    20    1
   20    19    21    1
   21    19    22    1
   22    22    23    1
   23    22    24    1
   24    22    25    1
@<TRIPOS>SUBSTRUCTURE
       1 MOL1            1 RESIDUE      1      MOL     
@<SCITEGIC>MOL_PROPERTY
VConf Rank
SciTegic.value.IntegerValue
789

@<SCITEGIC>MOL_PROPERTY
Conf_Id
SciTegic.value.IntegerValue
17

@<SCITEGIC>MOL_PROPERTY
Delta U+W
SciTegic.value.DoubleValue
0.219

@<SCITEGIC>MOL_PROPERTY
U+W
SciTegic.value.DoubleValue
-51.411

@<SCITEGIC>MOL_PROPERTY
Grad RMS
SciTegic.value.DoubleValue
0.000000

@<SCITEGIC>MOL_PROPERTY
U
SciTegic.value.DoubleValue
7.701

@<SCITEGIC>MOL_PROPERTY
W
SciTegic.value.DoubleValue
-59.111

@<SCITEGIC>MOL_PROPERTY
W(PB)
SciTegic.value.DoubleValue
-61.599

@<SCITEGIC>MOL_PROPERTY
W(SA)
SciTegic.value.DoubleValue
2.488

@<SCITEGIC>MOL_PROPERTY
Valence
SciTegic.value.DoubleValue
8.550

@<SCITEGIC>MOL_PROPERTY
Coulomb
SciTegic.value.DoubleValue
-1.988

@<SCITEGIC>MOL_PROPERTY
VdW
SciTegic.value.DoubleValue
1.139

@<SCITEGIC>MOL_PROPERTY
VdW6
SciTegic.value.DoubleValue
-8.988

@<SCITEGIC>MOL_PROPERTY
VdW12
SciTegic.value.DoubleValue
10.127

@<SCITEGIC>MOL_PROPERTY
Bond
SciTegic.value.DoubleValue
0.191

@<SCITEGIC>MOL_PROPERTY
Angle
SciTegic.value.DoubleValue
2.738

@<SCITEGIC>MOL_PROPERTY
Pdih
SciTegic.value.DoubleValue
5.621

@<SCITEGIC>MOL_PROPERTY
Idih
SciTegic.value.DoubleValue
0.001

@<SCITEGIC>MOL_PROPERTY
Tether
SciTegic.value.DoubleValue
0.000

@<TRIPOS>MOLECULE
guest-8_confgen4.mol2 : confsearch ligand conformer 790
          25          24           1
SMALL
USER_CHARGES
 
@<TRIPOS>ATOM
       1    C1      16.887719   18.205817   21.531405 C.2        1 MOL1         0.6168
       2    O1      17.059710   17.102091   21.052583 O.co2      1 MOL1        -0.6703
       3    O2      16.708342   19.207180   20.866445 O.co2      1 MOL1        -0.6703
       4    C2      16.876719   18.340933   23.051455 C.3        1 MOL1        -0.1963
       5    H1      16.689061   17.353073   23.489280 H          1 MOL1         0.0750
       6    H2      16.022359   18.973889   23.318698 H          1 MOL1         0.0750
       7    C3      18.176541   18.950027   23.638283 C.3        1 MOL1        -0.1860
       8    H3      18.352964   19.928071   23.171409 H          1 MOL1         0.0752
       9    H4      18.032564   19.131421   24.711890 H          1 MOL1         0.0752
      10    C4      19.404898   18.030901   23.435555 C.3        1 MOL1        -0.1858
      11    H5      19.600284   17.900403   22.362189 H          1 MOL1         0.0752
      12    H6      19.172835   17.032571   23.830943 H          1 MOL1         0.0752
      13    C5      20.684716   18.550201   24.132774 C.3        1 MOL1        -0.1858
      14    H7      20.494370   18.673073   25.207725 H          1 MOL1         0.0752
      15    H8      21.465916   17.783247   24.041294 H          1 MOL1         0.0752
      16    C6      21.212695   19.877820   23.541421 C.3        1 MOL1        -0.1858
      17    H9      20.473673   20.675365   23.692074 H          1 MOL1         0.0752
      18    H10     21.349651   19.767768   22.456973 H          1 MOL1         0.0752
      19    C7      22.548557   20.299320   24.189153 C.3        1 MOL1        -0.1834
      20    H11     22.415361   20.408500   25.274416 H          1 MOL1         0.0752
      21    H12     23.299367   19.511527   24.037200 H          1 MOL1         0.0752
      22    C8      23.071856   21.625230   23.601068 C.3        1 MOL1        -0.2849
      23    H13     22.354085   22.439161   23.767514 H          1 MOL1         0.0764
      24    H14     24.021718   21.909374   24.072323 H          1 MOL1         0.0764
      25    H15     23.243241   21.534968   22.520392 H          1 MOL1         0.0764
@<TRIPOS>BOND
    1     1     2    1
    2     1     3    2
    3     1     4    1
    4     4     5    1
    5     4     6    1
    6     4     7    1
    7     7     8    1
    8     7     9    1
    9     7    10    1
   10    10    11    1
   11    10    12    1
   12    10    13    1
   13    13    14    1
   14    13    15    1
   15    13    16    1
   16    16    17    1
   17    16    18    1
   18    16    19    1
   19    19    20    1
   20    19    21    1
   21    19    22    1
   22    22    23    1
   23    22    24    1
   24    22    25    1
@<TRIPOS>SUBSTRUCTURE
       1 MOL1            1 RESIDUE      1      MOL     
@<SCITEGIC>MOL_PROPERTY
VConf Rank
SciTegic.value.IntegerValue
790

@<SCITEGIC>MOL_PROPERTY
Conf_Id
SciTegic.value.IntegerValue
142

@<SCITEGIC>MOL_PROPERTY
Delta U+W
SciTegic.value.DoubleValue
0.593

@<SCITEGIC>MOL_PROPERTY
U+W
SciTegic.value.DoubleValue
-51.037

@<SCITEGIC>MOL_PROPERTY
Grad RMS
SciTegic.value.DoubleValue
0.000000

@<SCITEGIC>MOL_PROPERTY
U
SciTegic.value.DoubleValue
8.903

@<SCITEGIC>MOL_PROPERTY
W
SciTegic.value.DoubleValue
-59.940

@<SCITEGIC>MOL_PROPERTY
W(PB)
SciTegic.value.DoubleValue
-62.418

@<SCITEGIC>MOL_PROPERTY
W(SA)
SciTegic.value.DoubleValue
2.478

@<SCITEGIC>MOL_PROPERTY
Valence
SciTegic.value.DoubleValue
8.305

@<SCITEGIC>MOL_PROPERTY
Coulomb
SciTegic.value.DoubleValue
-0.223

@<SCITEGIC>MOL_PROPERTY
VdW
SciTegic.value.DoubleValue
0.821

@<SCITEGIC>MOL_PROPERTY
VdW6
SciTegic.value.DoubleValue
-9.236

@<SCITEGIC>MOL_PROPERTY
VdW12
SciTegic.value.DoubleValue
10.057

@<SCITEGIC>MOL_PROPERTY
Bond
SciTegic.value.DoubleValue
0.173

@<SCITEGIC>MOL_PROPERTY
Angle
SciTegic.value.DoubleValue
2.663

@<SCITEGIC>MOL_PROPERTY
Pdih
SciTegic.value.DoubleValue
5.469

@<SCITEGIC>MOL_PROPERTY
Idih
SciTegic.value.DoubleValue
0.001

@<SCITEGIC>MOL_PROPERTY
Tether
SciTegic.value.DoubleValue
0.000

@<TRIPOS>MOLECULE
guest-8_confgen4.mol2 : confsearch ligand conformer 791
          25          24           1
SMALL
USER_CHARGES
 
@<TRIPOS>ATOM
       1    C1      17.866391   16.615638   23.828847 C.2        1 MOL1         0.6168
       2    O1      16.877216   16.378045   24.494159 O.co2      1 MOL1        -0.6703
       3    O2      17.950773   16.374898   22.640579 O.co2      1 MOL1        -0.6703
       4    C2      19.076364   17.223831   24.532412 C.3        1 MOL1        -0.1963
       5    H1      19.951698   17.117208   23.881474 H          1 MOL1         0.0750
       6    H2      19.275618   16.616263   25.422736 H          1 MOL1         0.0750
       7    C3      18.885756   18.706536   24.953586 C.3        1 MOL1        -0.1860
       8    H3      18.044737   18.766880   25.658018 H          1 MOL1         0.0752
       9    H4      19.769796   19.040358   25.512051 H          1 MOL1         0.0752
      10    C4      18.615451   19.677604   23.775196 C.3        1 MOL1        -0.1858
      11    H5      18.489661   20.692425   24.176335 H          1 MOL1         0.0752
      12    H6      17.655087   19.416411   23.309829 H          1 MOL1         0.0752
      13    C5      19.706795   19.704417   22.675843 C.3        1 MOL1        -0.1858
      14    H7      19.767568   18.723340   22.185998 H          1 MOL1         0.0752
      15    H8      19.394189   20.412766   21.896707 H          1 MOL1         0.0752
      16    C6      21.101894   20.116829   23.199562 C.3        1 MOL1        -0.1858
      17    H9      21.460717   19.377647   23.927546 H          1 MOL1         0.0752
      18    H10     21.026850   21.077587   23.726808 H          1 MOL1         0.0752
      19    C7      22.128933   20.235617   22.053911 C.3        1 MOL1        -0.1834
      20    H11     22.203567   19.276185   21.523444 H          1 MOL1         0.0752
      21    H12     21.783949   20.979173   21.322144 H          1 MOL1         0.0752
      22    C8      23.521111   20.641015   22.578493 C.3        1 MOL1        -0.2849
      23    H13     23.904892   19.897286   23.289087 H          1 MOL1         0.0764
      24    H14     24.238160   20.720887   21.751151 H          1 MOL1         0.0764
      25    H15     23.481169   21.612917   23.087575 H          1 MOL1         0.0764
@<TRIPOS>BOND
    1     1     2    1
    2     1     3    2
    3     1     4    1
    4     4     5    1
    5     4     6    1
    6     4     7    1
    7     7     8    1
    8     7     9    1
    9     7    10    1
   10    10    11    1
   11    10    12    1
   12    10    13    1
   13    13    14    1
   14    13    15    1
   15    13    16    1
   16    16    17    1
   17    16    18    1
   18    16    19    1
   19    19    20    1
   20    19    21    1
   21    19    22    1
   22    22    23    1
   23    22    24    1
   24    22    25    1
@<TRIPOS>SUBSTRUCTURE
       1 MOL1            1 RESIDUE      1      MOL     
@<SCITEGIC>MOL_PROPERTY
VConf Rank
SciTegic.value.IntegerValue
791

@<SCITEGIC>MOL_PROPERTY
Conf_Id
SciTegic.value.IntegerValue
135

@<SCITEGIC>MOL_PROPERTY
Delta U+W
SciTegic.value.DoubleValue
1.314

@<SCITEGIC>MOL_PROPERTY
U+W
SciTegic.value.DoubleValue
-50.316

@<SCITEGIC>MOL_PROPERTY
Grad RMS
SciTegic.value.DoubleValue
0.000000

@<SCITEGIC>MOL_PROPERTY
U
SciTegic.value.DoubleValue
9.773

@<SCITEGIC>MOL_PROPERTY
W
SciTegic.value.DoubleValue
-60.088

@<SCITEGIC>MOL_PROPERTY
W(PB)
SciTegic.value.DoubleValue
-62.535

@<SCITEGIC>MOL_PROPERTY
W(SA)
SciTegic.value.DoubleValue
2.447

@<SCITEGIC>MOL_PROPERTY
Valence
SciTegic.value.DoubleValue
8.741

@<SCITEGIC>MOL_PROPERTY
Coulomb
SciTegic.value.DoubleValue
0.479

@<SCITEGIC>MOL_PROPERTY
VdW
SciTegic.value.DoubleValue
0.552

@<SCITEGIC>MOL_PROPERTY
VdW6
SciTegic.value.DoubleValue
-10.627

@<SCITEGIC>MOL_PROPERTY
VdW12
SciTegic.value.DoubleValue
11.179

@<SCITEGIC>MOL_PROPERTY
Bond
SciTegic.value.DoubleValue
0.227

@<SCITEGIC>MOL_PROPERTY
Angle
SciTegic.value.DoubleValue
3.155

@<SCITEGIC>MOL_PROPERTY
Pdih
SciTegic.value.DoubleValue
5.358

@<SCITEGIC>MOL_PROPERTY
Idih
SciTegic.value.DoubleValue
0.001

@<SCITEGIC>MOL_PROPERTY
Tether
SciTegic.value.DoubleValue
0.000

@<TRIPOS>MOLECULE
guest-8_confgen4.mol2 : confsearch ligand conformer 792
          25          24           1
SMALL
USER_CHARGES
 
@<TRIPOS>ATOM
       1    C1      21.042343   21.592338   19.922988 C.2        1 MOL1         0.6168
       2    O1      22.205823   21.510529   19.581868 O.co2      1 MOL1        -0.6703
       3    O2      20.155656   21.999608   19.198635 O.co2      1 MOL1        -0.6703
       4    C2      20.670674   21.137597   21.329848 C.3        1 MOL1        -0.1963
       5    H1      19.823594   21.744883   21.670445 H          1 MOL1         0.0750
       6    H2      21.517994   21.363458   21.986511 H          1 MOL1         0.0750
       7    C3      20.309659   19.630594   21.396477 C.3        1 MOL1        -0.1860
       8    H3      19.524627   19.425753   20.655390 H          1 MOL1         0.0752
       9    H4      21.180206   19.029615   21.099403 H          1 MOL1         0.0752
      10    C4      19.806730   19.172928   22.786634 C.3        1 MOL1        -0.1858
      11    H5      19.434233   18.145543   22.688067 H          1 MOL1         0.0752
      12    H6      18.952259   19.791596   23.092750 H          1 MOL1         0.0752
      13    C5      20.900431   19.208960   23.880701 C.3        1 MOL1        -0.1858
      14    H7      21.724573   18.541725   23.594026 H          1 MOL1         0.0752
      15    H8      21.327068   20.217871   23.940317 H          1 MOL1         0.0752
      16    C6      20.396525   18.825421   25.295072 C.3        1 MOL1        -0.1858
      17    H9      19.636339   19.543865   25.631021 H          1 MOL1         0.0752
      18    H10     21.241007   18.939727   25.988367 H          1 MOL1         0.0752
      19    C7      19.860649   17.377493   25.423695 C.3        1 MOL1        -0.1834
      20    H11     20.331448   16.728338   24.672575 H          1 MOL1         0.0752
      21    H12     20.159382   16.977596   26.402542 H          1 MOL1         0.0752
      22    C8      18.321600   17.287961   25.320843 C.3        1 MOL1        -0.2849
      23    H13     17.954095   17.664692   24.359525 H          1 MOL1         0.0764
      24    H14     17.989813   16.246592   25.422210 H          1 MOL1         0.0764
      25    H15     17.842985   17.871693   26.117879 H          1 MOL1         0.0764
@<TRIPOS>BOND
    1     1     2    1
    2     1     3    2
    3     1     4    1
    4     4     5    1
    5     4     6    1
    6     4     7    1
    7     7     8    1
    8     7     9    1
    9     7    10    1
   10    10    11    1
   11    10    12    1
   12    10    13    1
   13    13    14    1
   14    13    15    1
   15    13    16    1
   16    16    17    1
   17    16    18    1
   18    16    19    1
   19    19    20    1
   20    19    21    1
   21    19    22    1
   22    22    23    1
   23    22    24    1
   24    22    25    1
@<TRIPOS>SUBSTRUCTURE
       1 MOL1            1 RESIDUE      1      MOL     
@<SCITEGIC>MOL_PROPERTY
VConf Rank
SciTegic.value.IntegerValue
792

@<SCITEGIC>MOL_PROPERTY
Conf_Id
SciTegic.value.IntegerValue
19

@<SCITEGIC>MOL_PROPERTY
Delta U+W
SciTegic.value.DoubleValue
3.222

@<SCITEGIC>MOL_PROPERTY
U+W
SciTegic.value.DoubleValue
-48.407

@<SCITEGIC>MOL_PROPERTY
Grad RMS
SciTegic.value.DoubleValue
0.000000

@<SCITEGIC>MOL_PROPERTY
U
SciTegic.value.DoubleValue
10.617

@<SCITEGIC>MOL_PROPERTY
W
SciTegic.value.DoubleValue
-59.025

@<SCITEGIC>MOL_PROPERTY
W(PB)
SciTegic.value.DoubleValue
-61.462

@<SCITEGIC>MOL_PROPERTY
W(SA)
SciTegic.value.DoubleValue
2.437

@<SCITEGIC>MOL_PROPERTY
Valence
SciTegic.value.DoubleValue
11.188

@<SCITEGIC>MOL_PROPERTY
Coulomb
SciTegic.value.DoubleValue
-1.778

@<SCITEGIC>MOL_PROPERTY
VdW
SciTegic.value.DoubleValue
1.208

@<SCITEGIC>MOL_PROPERTY
VdW6
SciTegic.value.DoubleValue
-9.786

@<SCITEGIC>MOL_PROPERTY
VdW12
SciTegic.value.DoubleValue
10.993

@<SCITEGIC>MOL_PROPERTY
Bond
SciTegic.value.DoubleValue
0.241

@<SCITEGIC>MOL_PROPERTY
Angle
SciTegic.value.DoubleValue
3.294

@<SCITEGIC>MOL_PROPERTY
Pdih
SciTegic.value.DoubleValue
7.653

@<SCITEGIC>MOL_PROPERTY
Idih
SciTegic.value.DoubleValue
0.001

@<SCITEGIC>MOL_PROPERTY
Tether
SciTegic.value.DoubleValue
0.000

@<TRIPOS>MOLECULE
guest-8_confgen4.mol2 : confsearch ligand conformer 793
          25          24           1
SMALL
USER_CHARGES
 
@<TRIPOS>ATOM
       1    C1      20.306727   19.456798   27.458616 C.2        1 MOL1         0.6168
       2    O1      19.851566   20.491316   27.905093 O.co2      1 MOL1        -0.6703
       3    O2      21.072771   18.739049   28.070811 O.co2      1 MOL1        -0.6703
       4    C2      19.913365   19.048567   26.043414 C.3        1 MOL1        -0.1963
       5    H1      18.885865   19.388386   25.873299 H          1 MOL1         0.0750
       6    H2      19.906397   17.953123   25.995441 H          1 MOL1         0.0750
       7    C3      20.868811   19.625223   24.966186 C.3        1 MOL1        -0.1860
       8    H3      20.831901   20.723098   24.990525 H          1 MOL1         0.0752
       9    H4      21.898954   19.344287   25.225660 H          1 MOL1         0.0752
      10    C4      20.566567   19.122363   23.534154 C.3        1 MOL1        -0.1858
      11    H5      20.579141   18.024115   23.517624 H          1 MOL1         0.0752
      12    H6      21.381731   19.457933   22.880787 H          1 MOL1         0.0752
      13    C5      19.222658   19.641160   22.969156 C.3        1 MOL1        -0.1858
      14    H7      18.407859   19.368502   23.651239 H          1 MOL1         0.0752
      15    H8      19.241686   20.738890   22.934176 H          1 MOL1         0.0752
      16    C6      18.868140   19.088021   21.565650 C.3        1 MOL1        -0.1858
      17    H9      17.877714   19.480163   21.297037 H          1 MOL1         0.0752
      18    H10     18.754042   17.996254   21.609612 H          1 MOL1         0.0752
      19    C7      19.861471   19.479096   20.442905 C.3        1 MOL1        -0.1834
      20    H11     19.293559   19.671415   19.522149 H          1 MOL1         0.0752
      21    H12     20.366757   20.422401   20.692098 H          1 MOL1         0.0752
      22    C8      20.901538   18.377100   20.141026 C.3        1 MOL1        -0.2849
      23    H13     20.406895   17.453082   19.814528 H          1 MOL1         0.0764
      24    H14     21.578199   18.697121   19.338205 H          1 MOL1         0.0764
      25    H15     21.512334   18.140507   21.019701 H          1 MOL1         0.0764
@<TRIPOS>BOND
    1     1     2    1
    2     1     3    2
    3     1     4    1
    4     4     5    1
    5     4     6    1
    6     4     7    1
    7     7     8    1
    8     7     9    1
    9     7    10    1
   10    10    11    1
   11    10    12    1
   12    10    13    1
   13    13    14    1
   14    13    15    1
   15    13    16    1
   16    16    17    1
   17    16    18    1
   18    16    19    1
   19    19    20    1
   20    19    21    1
   21    19    22    1
   22    22    23    1
   23    22    24    1
   24    22    25    1
@<TRIPOS>SUBSTRUCTURE
       1 MOL1            1 RESIDUE      1      MOL     
@<SCITEGIC>MOL_PROPERTY
VConf Rank
SciTegic.value.IntegerValue
793

@<SCITEGIC>MOL_PROPERTY
Conf_Id
SciTegic.value.IntegerValue
20

@<SCITEGIC>MOL_PROPERTY
Delta U+W
SciTegic.value.DoubleValue
3.224

@<SCITEGIC>MOL_PROPERTY
U+W
SciTegic.value.DoubleValue
-48.406

@<SCITEGIC>MOL_PROPERTY
Grad RMS
SciTegic.value.DoubleValue
0.000000

@<SCITEGIC>MOL_PROPERTY
U
SciTegic.value.DoubleValue
10.617

@<SCITEGIC>MOL_PROPERTY
W
SciTegic.value.DoubleValue
-59.023

@<SCITEGIC>MOL_PROPERTY
W(PB)
SciTegic.value.DoubleValue
-61.467

@<SCITEGIC>MOL_PROPERTY
W(SA)
SciTegic.value.DoubleValue
2.444

@<SCITEGIC>MOL_PROPERTY
Valence
SciTegic.value.DoubleValue
11.188

@<SCITEGIC>MOL_PROPERTY
Coulomb
SciTegic.value.DoubleValue
-1.778

@<SCITEGIC>MOL_PROPERTY
VdW
SciTegic.value.DoubleValue
1.208

@<SCITEGIC>MOL_PROPERTY
VdW6
SciTegic.value.DoubleValue
-9.786

@<SCITEGIC>MOL_PROPERTY
VdW12
SciTegic.value.DoubleValue
10.993

@<SCITEGIC>MOL_PROPERTY
Bond
SciTegic.value.DoubleValue
0.241

@<SCITEGIC>MOL_PROPERTY
Angle
SciTegic.value.DoubleValue
3.294

@<SCITEGIC>MOL_PROPERTY
Pdih
SciTegic.value.DoubleValue
7.653

@<SCITEGIC>MOL_PROPERTY
Idih
SciTegic.value.DoubleValue
0.001

@<SCITEGIC>MOL_PROPERTY
Tether
SciTegic.value.DoubleValue
0.000

@<TRIPOS>MOLECULE
guest-8_confgen4.mol2 : confsearch ligand conformer 794
          25          24           1
SMALL
USER_CHARGES
 
@<TRIPOS>ATOM
       1    C1      18.364808   17.652028   25.874545 C.2        1 MOL1         0.6168
       2    O1      17.295727   18.209427   26.029522 O.co2      1 MOL1        -0.6703
       3    O2      19.309398   17.792174   26.626428 O.co2      1 MOL1        -0.6703
       4    C2      18.509772   16.672303   24.711569 C.3        1 MOL1        -0.1963
       5    H1      17.795672   15.862422   24.900306 H          1 MOL1         0.0750
       6    H2      19.509784   16.223340   24.746181 H          1 MOL1         0.0750
       7    C3      18.236112   17.269934   23.302648 C.3        1 MOL1        -0.1860
       8    H3      18.008253   16.439673   22.620610 H          1 MOL1         0.0752
       9    H4      17.332601   17.894848   23.329920 H          1 MOL1         0.0752
      10    C4      19.416051   18.068750   22.695423 C.3        1 MOL1        -0.1858
      11    H5      19.166287   18.307855   21.652624 H          1 MOL1         0.0752
      12    H6      20.312533   17.434777   22.660322 H          1 MOL1         0.0752
      13    C5      19.738265   19.382755   23.442548 C.3        1 MOL1        -0.1858
      14    H7      18.818476   19.970064   23.569446 H          1 MOL1         0.0752
      15    H8      20.116888   19.156954   24.447368 H          1 MOL1         0.0752
      16    C6      20.790448   20.225103   22.688937 C.3        1 MOL1        -0.1858
      17    H9      20.418489   20.464692   21.683348 H          1 MOL1         0.0752
      18    H10     21.707675   19.634529   22.558745 H          1 MOL1         0.0752
      19    C7      21.121309   21.531999   23.439889 C.3        1 MOL1        -0.1834
      20    H11     20.205875   22.125493   23.571057 H          1 MOL1         0.0752
      21    H12     21.495381   21.296224   24.445914 H          1 MOL1         0.0752
      22    C8      22.172504   22.370693   22.685404 C.3        1 MOL1        -0.2849
      23    H13     21.810843   22.647436   21.686412 H          1 MOL1         0.0764
      24    H14     22.395475   23.295426   23.233325 H          1 MOL1         0.0764
      25    H15     23.110183   21.811821   22.567959 H          1 MOL1         0.0764
@<TRIPOS>BOND
    1     1     2    1
    2     1     3    2
    3     1     4    1
    4     4     5    1
    5     4     6    1
    6     4     7    1
    7     7     8    1
    8     7     9    1
    9     7    10    1
   10    10    11    1
   11    10    12    1
   12    10    13    1
   13    13    14    1
   14    13    15    1
   15    13    16    1
   16    16    17    1
   17    16    18    1
   18    16    19    1
   19    19    20    1
   20    19    21    1
   21    19    22    1
   22    22    23    1
   23    22    24    1
   24    22    25    1
@<TRIPOS>SUBSTRUCTURE
       1 MOL1            1 RESIDUE      1      MOL     
@<SCITEGIC>MOL_PROPERTY
VConf Rank
SciTegic.value.IntegerValue
794

@<SCITEGIC>MOL_PROPERTY
Conf_Id
SciTegic.value.IntegerValue
24

@<SCITEGIC>MOL_PROPERTY
Delta U+W
SciTegic.value.DoubleValue
1.784

@<SCITEGIC>MOL_PROPERTY
U+W
SciTegic.value.DoubleValue
-49.846

@<SCITEGIC>MOL_PROPERTY
Grad RMS
SciTegic.value.DoubleValue
0.000000

@<SCITEGIC>MOL_PROPERTY
U
SciTegic.value.DoubleValue
10.904

@<SCITEGIC>MOL_PROPERTY
W
SciTegic.value.DoubleValue
-60.749

@<SCITEGIC>MOL_PROPERTY
W(PB)
SciTegic.value.DoubleValue
-63.220

@<SCITEGIC>MOL_PROPERTY
W(SA)
SciTegic.value.DoubleValue
2.471

@<SCITEGIC>MOL_PROPERTY
Valence
SciTegic.value.DoubleValue
9.445

@<SCITEGIC>MOL_PROPERTY
Coulomb
SciTegic.value.DoubleValue
0.780

@<SCITEGIC>MOL_PROPERTY
VdW
SciTegic.value.DoubleValue
0.679

@<SCITEGIC>MOL_PROPERTY
VdW6
SciTegic.value.DoubleValue
-10.008

@<SCITEGIC>MOL_PROPERTY
VdW12
SciTegic.value.DoubleValue
10.687

@<SCITEGIC>MOL_PROPERTY
Bond
SciTegic.value.DoubleValue
0.201

@<SCITEGIC>MOL_PROPERTY
Angle
SciTegic.value.DoubleValue
3.198

@<SCITEGIC>MOL_PROPERTY
Pdih
SciTegic.value.DoubleValue
6.039

@<SCITEGIC>MOL_PROPERTY
Idih
SciTegic.value.DoubleValue
0.006

@<SCITEGIC>MOL_PROPERTY
Tether
SciTegic.value.DoubleValue
0.000

@<TRIPOS>MOLECULE
guest-8_confgen4.mol2 : confsearch ligand conformer 795
          25          24           1
SMALL
USER_CHARGES
 
@<TRIPOS>ATOM
       1    C1      17.547360   17.916828   25.095299 C.2        1 MOL1         0.6168
       2    O1      16.716031   18.799788   25.012144 O.co2      1 MOL1        -0.6703
       3    O2      17.532884   16.915133   24.407101 O.co2      1 MOL1        -0.6703
       4    C2      18.630002   18.038896   26.165989 C.3        1 MOL1        -0.1963
       5    H1      19.261026   17.142317   26.138768 H          1 MOL1         0.0750
       6    H2      18.111023   18.027978   27.131395 H          1 MOL1         0.0750
       7    C3      19.508396   19.318675   26.078283 C.3        1 MOL1        -0.1860
       8    H3      18.873519   20.196933   25.896111 H          1 MOL1         0.0752
       9    H4      19.971711   19.479909   27.061020 H          1 MOL1         0.0752
      10    C4      20.643516   19.256690   25.026263 C.3        1 MOL1        -0.1858
      11    H5      21.281133   18.383633   25.221333 H          1 MOL1         0.0752
      12    H6      21.281853   20.140845   25.159600 H          1 MOL1         0.0752
      13    C5      20.145836   19.219714   23.563535 C.3        1 MOL1        -0.1858
      14    H7      19.615867   18.277817   23.373876 H          1 MOL1         0.0752
      15    H8      19.426128   20.033151   23.398045 H          1 MOL1         0.0752
      16    C6      21.312292   19.348439   22.559853 C.3        1 MOL1        -0.1858
      17    H9      22.033290   18.537130   22.730061 H          1 MOL1         0.0752
      18    H10     21.845764   20.292778   22.734774 H          1 MOL1         0.0752
      19    C7      20.817607   19.300095   21.098921 C.3        1 MOL1        -0.1834
      20    H11     20.284862   18.355825   20.919644 H          1 MOL1         0.0752
      21    H12     20.096625   20.110936   20.925201 H          1 MOL1         0.0752
      22    C8      21.984430   19.428433   20.099060 C.3        1 MOL1        -0.2849
      23    H13     22.705489   18.610925   20.229932 H          1 MOL1         0.0764
      24    H14     21.614571   19.391991   19.066131 H          1 MOL1         0.0764
      25    H15     22.515792   20.379441   20.235481 H          1 MOL1         0.0764
@<TRIPOS>BOND
    1     1     2    1
    2     1     3    2
    3     1     4    1
    4     4     5    1
    5     4     6    1
    6     4     7    1
    7     7     8    1
    8     7     9    1
    9     7    10    1
   10    10    11    1
   11    10    12    1
   12    10    13    1
   13    13    14    1
   14    13    15    1
   15    13    16    1
   16    16    17    1
   17    16    18    1
   18    16    19    1
   19    19    20    1
   20    19    21    1
   21    19    22    1
   22    22    23    1
   23    22    24    1
   24    22    25    1
@<TRIPOS>SUBSTRUCTURE
       1 MOL1            1 RESIDUE      1      MOL     
@<SCITEGIC>MOL_PROPERTY
VConf Rank
SciTegic.value.IntegerValue
795

@<SCITEGIC>MOL_PROPERTY
Conf_Id
SciTegic.value.IntegerValue
9

@<SCITEGIC>MOL_PROPERTY
Delta U+W
SciTegic.value.DoubleValue
1.764

@<SCITEGIC>MOL_PROPERTY
U+W
SciTegic.value.DoubleValue
-49.865

@<SCITEGIC>MOL_PROPERTY
Grad RMS
SciTegic.value.DoubleValue
0.000000

@<SCITEGIC>MOL_PROPERTY
U
SciTegic.value.DoubleValue
10.902

@<SCITEGIC>MOL_PROPERTY
W
SciTegic.value.DoubleValue
-60.768

@<SCITEGIC>MOL_PROPERTY
W(PB)
SciTegic.value.DoubleValue
-63.223

@<SCITEGIC>MOL_PROPERTY
W(SA)
SciTegic.value.DoubleValue
2.456

@<SCITEGIC>MOL_PROPERTY
Valence
SciTegic.value.DoubleValue
9.445

@<SCITEGIC>MOL_PROPERTY
Coulomb
SciTegic.value.DoubleValue
0.778

@<SCITEGIC>MOL_PROPERTY
VdW
SciTegic.value.DoubleValue
0.679

@<SCITEGIC>MOL_PROPERTY
VdW6
SciTegic.value.DoubleValue
-10.007

@<SCITEGIC>MOL_PROPERTY
VdW12
SciTegic.value.DoubleValue
10.687

@<SCITEGIC>MOL_PROPERTY
Bond
SciTegic.value.DoubleValue
0.201

@<SCITEGIC>MOL_PROPERTY
Angle
SciTegic.value.DoubleValue
3.198

@<SCITEGIC>MOL_PROPERTY
Pdih
SciTegic.value.DoubleValue
6.040

@<SCITEGIC>MOL_PROPERTY
Idih
SciTegic.value.DoubleValue
0.006

@<SCITEGIC>MOL_PROPERTY
Tether
SciTegic.value.DoubleValue
0.000

@<TRIPOS>MOLECULE
guest-8_confgen4.mol2 : confsearch ligand conformer 796
          25          24           1
SMALL
USER_CHARGES
 
@<TRIPOS>ATOM
       1    C1      21.240691   16.339092   21.362422 C.2        1 MOL1         0.6168
       2    O1      22.141936   16.123861   22.148575 O.co2      1 MOL1        -0.6703
       3    O2      20.891675   15.550702   20.505988 O.co2      1 MOL1        -0.6703
       4    C2      20.492647   17.662999   21.469273 C.3        1 MOL1        -0.1963
       5    H1      20.180294   17.956986   20.460183 H          1 MOL1         0.0750
       6    H2      21.201518   18.420637   21.817052 H          1 MOL1         0.0750
       7    C3      19.257745   17.579981   22.405101 C.3        1 MOL1        -0.1860
       8    H3      18.581496   16.812277   22.004158 H          1 MOL1         0.0752
       9    H4      19.560877   17.229571   23.401463 H          1 MOL1         0.0752
      10    C4      18.478573   18.914886   22.520041 C.3        1 MOL1        -0.1858
      11    H5      17.409452   18.679120   22.611214 H          1 MOL1         0.0752
      12    H6      18.577755   19.495565   21.592779 H          1 MOL1         0.0752
      13    C5      18.867564   19.787493   23.739878 C.3        1 MOL1        -0.1858
      14    H7      18.199495   20.658970   23.767475 H          1 MOL1         0.0752
      15    H8      18.675542   19.221398   24.660795 H          1 MOL1         0.0752
      16    C6      20.334042   20.279880   23.726882 C.3        1 MOL1        -0.1858
      17    H9      20.560691   20.708412   22.741292 H          1 MOL1         0.0752
      18    H10     21.012665   19.428549   23.868140 H          1 MOL1         0.0752
      19    C7      20.631240   21.345077   24.807882 C.3        1 MOL1        -0.1834
      20    H11     21.657515   21.712010   24.669009 H          1 MOL1         0.0752
      21    H12     19.970383   22.211483   24.667019 H          1 MOL1         0.0752
      22    C8      20.484345   20.808797   26.248420 C.3        1 MOL1        -0.2849
      23    H13     21.117690   19.925933   26.405170 H          1 MOL1         0.0764
      24    H14     20.784713   21.574034   26.975773 H          1 MOL1         0.0764
      25    H15     19.445812   20.530897   26.467721 H          1 MOL1         0.0764
@<TRIPOS>BOND
    1     1     2    1
    2     1     3    2
    3     1     4    1
    4     4     5    1
    5     4     6    1
    6     4     7    1
    7     7     8    1
    8     7     9    1
    9     7    10    1
   10    10    11    1
   11    10    12    1
   12    10    13    1
   13    13    14    1
   14    13    15    1
   15    13    16    1
   16    16    17    1
   17    16    18    1
   18    16    19    1
   19    19    20    1
   20    19    21    1
   21    19    22    1
   22    22    23    1
   23    22    24    1
   24    22    25    1
@<TRIPOS>SUBSTRUCTURE
       1 MOL1            1 RESIDUE      1      MOL     
@<SCITEGIC>MOL_PROPERTY
VConf Rank
SciTegic.value.IntegerValue
796

@<SCITEGIC>MOL_PROPERTY
Conf_Id
SciTegic.value.IntegerValue
89

@<SCITEGIC>MOL_PROPERTY
Delta U+W
SciTegic.value.DoubleValue
2.903

@<SCITEGIC>MOL_PROPERTY
U+W
SciTegic.value.DoubleValue
-48.726

@<SCITEGIC>MOL_PROPERTY
Grad RMS
SciTegic.value.DoubleValue
0.000000

@<SCITEGIC>MOL_PROPERTY
U
SciTegic.value.DoubleValue
10.996

@<SCITEGIC>MOL_PROPERTY
W
SciTegic.value.DoubleValue
-59.723

@<SCITEGIC>MOL_PROPERTY
W(PB)
SciTegic.value.DoubleValue
-62.151

@<SCITEGIC>MOL_PROPERTY
W(SA)
SciTegic.value.DoubleValue
2.428

@<SCITEGIC>MOL_PROPERTY
Valence
SciTegic.value.DoubleValue
10.985

@<SCITEGIC>MOL_PROPERTY
Coulomb
SciTegic.value.DoubleValue
-0.995

@<SCITEGIC>MOL_PROPERTY
VdW
SciTegic.value.DoubleValue
1.006

@<SCITEGIC>MOL_PROPERTY
VdW6
SciTegic.value.DoubleValue
-10.062

@<SCITEGIC>MOL_PROPERTY
VdW12
SciTegic.value.DoubleValue
11.069

@<SCITEGIC>MOL_PROPERTY
Bond
SciTegic.value.DoubleValue
0.238

@<SCITEGIC>MOL_PROPERTY
Angle
SciTegic.value.DoubleValue
3.202

@<SCITEGIC>MOL_PROPERTY
Pdih
SciTegic.value.DoubleValue
7.544

@<SCITEGIC>MOL_PROPERTY
Idih
SciTegic.value.DoubleValue
0.001

@<SCITEGIC>MOL_PROPERTY
Tether
SciTegic.value.DoubleValue
0.000

@<TRIPOS>MOLECULE
guest-8_confgen4.mol2 : confsearch ligand conformer 797
          25          24           1
SMALL
USER_CHARGES
 
@<TRIPOS>ATOM
       1    C1      23.383665   19.736118   24.301384 C.2        1 MOL1         0.6168
       2    O1      23.868294   19.692821   23.187597 O.co2      1 MOL1        -0.6703
       3    O2      23.341912   20.746732   24.975568 O.co2      1 MOL1        -0.6703
       4    C2      22.858526   18.436738   24.908910 C.3        1 MOL1        -0.1963
       5    H1      23.494460   18.224052   25.775991 H          1 MOL1         0.0750
       6    H2      23.017604   17.619194   24.195408 H          1 MOL1         0.0750
       7    C3      21.373306   18.470837   25.367757 C.3        1 MOL1        -0.1860
       8    H3      21.229617   17.670264   26.105917 H          1 MOL1         0.0752
       9    H4      21.165744   19.410586   25.898194 H          1 MOL1         0.0752
      10    C4      20.335937   18.258824   24.236895 C.3        1 MOL1        -0.1858
      11    H5      19.352841   18.133539   24.707369 H          1 MOL1         0.0752
      12    H6      20.549237   17.317993   23.711639 H          1 MOL1         0.0752
      13    C5      20.270283   19.420867   23.216244 C.3        1 MOL1        -0.1858
      14    H7      20.117849   20.372773   23.742939 H          1 MOL1         0.0752
      15    H8      21.233732   19.501740   22.698498 H          1 MOL1         0.0752
      16    C6      19.171556   19.238394   22.141592 C.3        1 MOL1        -0.1858
      17    H9      19.305833   18.271395   21.637896 H          1 MOL1         0.0752
      18    H10     19.309446   20.010298   21.372142 H          1 MOL1         0.0752
      19    C7      17.733759   19.343116   22.699457 C.3        1 MOL1        -0.1834
      20    H11     17.541981   18.530388   23.411794 H          1 MOL1         0.0752
      21    H12     17.618096   20.286597   23.250505 H          1 MOL1         0.0752
      22    C8      16.683978   19.277295   21.571750 C.3        1 MOL1        -0.2849
      23    H13     16.759337   18.330929   21.020315 H          1 MOL1         0.0764
      24    H14     15.668960   19.349800   21.983491 H          1 MOL1         0.0764
      25    H15     16.819946   20.101304   20.859104 H          1 MOL1         0.0764
@<TRIPOS>BOND
    1     1     2    1
    2     1     3    2
    3     1     4    1
    4     4     5    1
    5     4     6    1
    6     4     7    1
    7     7     8    1
    8     7     9    1
    9     7    10    1
   10    10    11    1
   11    10    12    1
   12    10    13    1
   13    13    14    1
   14    13    15    1
   15    13    16    1
   16    16    17    1
   17    16    18    1
   18    16    19    1
   19    19    20    1
   20    19    21    1
   21    19    22    1
   22    22    23    1
   23    22    24    1
   24    22    25    1
@<TRIPOS>SUBSTRUCTURE
       1 MOL1            1 RESIDUE      1      MOL     
@<SCITEGIC>MOL_PROPERTY
VConf Rank
SciTegic.value.IntegerValue
797

@<SCITEGIC>MOL_PROPERTY
Conf_Id
SciTegic.value.IntegerValue
114

@<SCITEGIC>MOL_PROPERTY
Delta U+W
SciTegic.value.DoubleValue
2.758

@<SCITEGIC>MOL_PROPERTY
U+W
SciTegic.value.DoubleValue
-48.871

@<SCITEGIC>MOL_PROPERTY
Grad RMS
SciTegic.value.DoubleValue
0.000000

@<SCITEGIC>MOL_PROPERTY
U
SciTegic.value.DoubleValue
11.422

@<SCITEGIC>MOL_PROPERTY
W
SciTegic.value.DoubleValue
-60.293

@<SCITEGIC>MOL_PROPERTY
W(PB)
SciTegic.value.DoubleValue
-62.719

@<SCITEGIC>MOL_PROPERTY
W(SA)
SciTegic.value.DoubleValue
2.425

@<SCITEGIC>MOL_PROPERTY
Valence
SciTegic.value.DoubleValue
10.135

@<SCITEGIC>MOL_PROPERTY
Coulomb
SciTegic.value.DoubleValue
0.369

@<SCITEGIC>MOL_PROPERTY
VdW
SciTegic.value.DoubleValue
0.918

@<SCITEGIC>MOL_PROPERTY
VdW6
SciTegic.value.DoubleValue
-10.482

@<SCITEGIC>MOL_PROPERTY
VdW12
SciTegic.value.DoubleValue
11.400

@<SCITEGIC>MOL_PROPERTY
Bond
SciTegic.value.DoubleValue
0.245

@<SCITEGIC>MOL_PROPERTY
Angle
SciTegic.value.DoubleValue
3.539

@<SCITEGIC>MOL_PROPERTY
Pdih
SciTegic.value.DoubleValue
6.346

@<SCITEGIC>MOL_PROPERTY
Idih
SciTegic.value.DoubleValue
0.006

@<SCITEGIC>MOL_PROPERTY
Tether
SciTegic.value.DoubleValue
0.000

@<TRIPOS>MOLECULE
guest-8_confgen4.mol2 : confsearch ligand conformer 798
          25          24           1
SMALL
USER_CHARGES
 
@<TRIPOS>ATOM
       1    C1      19.847332   16.194523   20.914117 C.2        1 MOL1         0.6168
       2    O1      19.034308   15.439035   21.409388 O.co2      1 MOL1        -0.6703
       3    O2      19.682454   16.755896   19.848860 O.co2      1 MOL1        -0.6703
       4    C2      21.156900   16.437028   21.659217 C.3        1 MOL1        -0.1963
       5    H1      21.969320   16.368438   20.926246 H          1 MOL1         0.0750
       6    H2      21.307370   15.621567   22.376962 H          1 MOL1         0.0750
       7    C3      21.225149   17.807518   22.381766 C.3        1 MOL1        -0.1860
       8    H3      22.239441   17.951908   22.777511 H          1 MOL1         0.0752
       9    H4      21.054065   18.604833   21.646684 H          1 MOL1         0.0752
      10    C4      20.204288   17.917200   23.539811 C.3        1 MOL1        -0.1858
      11    H5      20.334132   17.057058   24.210735 H          1 MOL1         0.0752
      12    H6      19.181466   17.848478   23.144319 H          1 MOL1         0.0752
      13    C5      20.349078   19.213651   24.372237 C.3        1 MOL1        -0.1858
      14    H7      19.690155   19.130450   25.245783 H          1 MOL1         0.0752
      15    H8      21.373630   19.289215   24.760961 H          1 MOL1         0.0752
      16    C6      19.993680   20.496864   23.581287 C.3        1 MOL1        -0.1858
      17    H9      18.970283   20.419175   23.189748 H          1 MOL1         0.0752
      18    H10     20.654789   20.583784   22.709827 H          1 MOL1         0.0752
      19    C7      20.131280   21.791430   24.416513 C.3        1 MOL1        -0.1834
      20    H11     21.150725   21.866595   24.819466 H          1 MOL1         0.0752
      21    H12     19.996985   22.654942   23.750516 H          1 MOL1         0.0752
      22    C8      19.107476   21.891331   25.568360 C.3        1 MOL1        -0.2849
      23    H13     19.184419   22.866636   26.066119 H          1 MOL1         0.0764
      24    H14     18.081579   21.783983   25.192692 H          1 MOL1         0.0764
      25    H15     19.279509   21.117981   26.327135 H          1 MOL1         0.0764
@<TRIPOS>BOND
    1     1     2    1
    2     1     3    2
    3     1     4    1
    4     4     5    1
    5     4     6    1
    6     4     7    1
    7     7     8    1
    8     7     9    1
    9     7    10    1
   10    10    11    1
   11    10    12    1
   12    10    13    1
   13    13    14    1
   14    13    15    1
   15    13    16    1
   16    16    17    1
   17    16    18    1
   18    16    19    1
   19    19    20    1
   20    19    21    1
   21    19    22    1
   22    22    23    1
   23    22    24    1
   24    22    25    1
@<TRIPOS>SUBSTRUCTURE
       1 MOL1            1 RESIDUE      1      MOL     
@<SCITEGIC>MOL_PROPERTY
VConf Rank
SciTegic.value.IntegerValue
798

@<SCITEGIC>MOL_PROPERTY
Conf_Id
SciTegic.value.IntegerValue
87

@<SCITEGIC>MOL_PROPERTY
Delta U+W
SciTegic.value.DoubleValue
1.453

@<SCITEGIC>MOL_PROPERTY
U+W
SciTegic.value.DoubleValue
-50.176

@<SCITEGIC>MOL_PROPERTY
Grad RMS
SciTegic.value.DoubleValue
0.000000

@<SCITEGIC>MOL_PROPERTY
U
SciTegic.value.DoubleValue
9.763

@<SCITEGIC>MOL_PROPERTY
W
SciTegic.value.DoubleValue
-59.940

@<SCITEGIC>MOL_PROPERTY
W(PB)
SciTegic.value.DoubleValue
-62.392

@<SCITEGIC>MOL_PROPERTY
W(SA)
SciTegic.value.DoubleValue
2.452

@<SCITEGIC>MOL_PROPERTY
Valence
SciTegic.value.DoubleValue
8.883

@<SCITEGIC>MOL_PROPERTY
Coulomb
SciTegic.value.DoubleValue
-0.122

@<SCITEGIC>MOL_PROPERTY
VdW
SciTegic.value.DoubleValue
1.003

@<SCITEGIC>MOL_PROPERTY
VdW6
SciTegic.value.DoubleValue
-9.782

@<SCITEGIC>MOL_PROPERTY
VdW12
SciTegic.value.DoubleValue
10.785

@<SCITEGIC>MOL_PROPERTY
Bond
SciTegic.value.DoubleValue
0.212

@<SCITEGIC>MOL_PROPERTY
Angle
SciTegic.value.DoubleValue
2.940

@<SCITEGIC>MOL_PROPERTY
Pdih
SciTegic.value.DoubleValue
5.730

@<SCITEGIC>MOL_PROPERTY
Idih
SciTegic.value.DoubleValue
0.001

@<SCITEGIC>MOL_PROPERTY
Tether
SciTegic.value.DoubleValue
0.000

@<TRIPOS>MOLECULE
guest-8_confgen4.mol2 : confsearch ligand conformer 799
          25          24           1
SMALL
USER_CHARGES
 
@<TRIPOS>ATOM
       1    C1      23.760168   17.920586   24.143582 C.2        1 MOL1         0.6168
       2    O1      24.094238   18.710612   25.004361 O.co2      1 MOL1        -0.6703
       3    O2      24.155522   16.772583   24.093297 O.co2      1 MOL1        -0.6703
       4    C2      22.776169   18.390234   23.078057 C.3        1 MOL1        -0.1963
       5    H1      23.008467   17.864165   22.144370 H          1 MOL1         0.0750
       6    H2      22.950018   19.458374   22.900778 H          1 MOL1         0.0750
       7    C3      21.299085   18.148809   23.475404 C.3        1 MOL1        -0.1860
       8    H3      21.142098   17.076805   23.657902 H          1 MOL1         0.0752
       9    H4      21.096506   18.668112   24.421487 H          1 MOL1         0.0752
      10    C4      20.323093   18.640154   22.381490 C.3        1 MOL1        -0.1858
      11    H5      20.585410   18.162374   21.427793 H          1 MOL1         0.0752
      12    H6      20.451265   19.719496   22.226575 H          1 MOL1         0.0752
      13    C5      18.838530   18.324805   22.692885 C.3        1 MOL1        -0.1858
      14    H7      18.221561   18.650583   21.845184 H          1 MOL1         0.0752
      15    H8      18.712500   17.235164   22.750053 H          1 MOL1         0.0752
      16    C6      18.286713   18.955737   23.998735 C.3        1 MOL1        -0.1858
      17    H9      18.794090   18.506057   24.862229 H          1 MOL1         0.0752
      18    H10     17.228435   18.679690   24.100394 H          1 MOL1         0.0752
      19    C7      18.410767   20.496633   24.090280 C.3        1 MOL1        -0.1834
      20    H11     18.013506   20.822931   25.061165 H          1 MOL1         0.0752
      21    H12     19.468419   20.791770   24.080293 H          1 MOL1         0.0752
      22    C8      17.651850   21.237609   22.968211 C.3        1 MOL1        -0.2849
      23    H13     16.594174   20.944504   22.949620 H          1 MOL1         0.0764
      24    H14     17.699972   22.323094   23.123560 H          1 MOL1         0.0764
      25    H15     18.086454   21.022491   21.983940 H          1 MOL1         0.0764
@<TRIPOS>BOND
    1     1     2    1
    2     1     3    2
    3     1     4    1
    4     4     5    1
    5     4     6    1
    6     4     7    1
    7     7     8    1
    8     7     9    1
    9     7    10    1
   10    10    11    1
   11    10    12    1
   12    10    13    1
   13    13    14    1
   14    13    15    1
   15    13    16    1
   16    16    17    1
   17    16    18    1
   18    16    19    1
   19    19    20    1
   20    19    21    1
   21    19    22    1
   22    22    23    1
   23    22    24    1
   24    22    25    1
@<TRIPOS>SUBSTRUCTURE
       1 MOL1            1 RESIDUE      1      MOL     
@<SCITEGIC>MOL_PROPERTY
VConf Rank
SciTegic.value.IntegerValue
799

@<SCITEGIC>MOL_PROPERTY
Conf_Id
SciTegic.value.IntegerValue
29

@<SCITEGIC>MOL_PROPERTY
Delta U+W
SciTegic.value.DoubleValue
0.850

@<SCITEGIC>MOL_PROPERTY
U+W
SciTegic.value.DoubleValue
-50.780

@<SCITEGIC>MOL_PROPERTY
Grad RMS
SciTegic.value.DoubleValue
0.000000

@<SCITEGIC>MOL_PROPERTY
U
SciTegic.value.DoubleValue
8.646

@<SCITEGIC>MOL_PROPERTY
W
SciTegic.value.DoubleValue
-59.426

@<SCITEGIC>MOL_PROPERTY
W(PB)
SciTegic.value.DoubleValue
-61.868

@<SCITEGIC>MOL_PROPERTY
W(SA)
SciTegic.value.DoubleValue
2.442

@<SCITEGIC>MOL_PROPERTY
Valence
SciTegic.value.DoubleValue
8.924

@<SCITEGIC>MOL_PROPERTY
Coulomb
SciTegic.value.DoubleValue
-1.171

@<SCITEGIC>MOL_PROPERTY
VdW
SciTegic.value.DoubleValue
0.894

@<SCITEGIC>MOL_PROPERTY
VdW6
SciTegic.value.DoubleValue
-10.223

@<SCITEGIC>MOL_PROPERTY
VdW12
SciTegic.value.DoubleValue
11.117

@<SCITEGIC>MOL_PROPERTY
Bond
SciTegic.value.DoubleValue
0.231

@<SCITEGIC>MOL_PROPERTY
Angle
SciTegic.value.DoubleValue
3.232

@<SCITEGIC>MOL_PROPERTY
Pdih
SciTegic.value.DoubleValue
5.461

@<SCITEGIC>MOL_PROPERTY
Idih
SciTegic.value.DoubleValue
0.001

@<SCITEGIC>MOL_PROPERTY
Tether
SciTegic.value.DoubleValue
0.000

@<TRIPOS>MOLECULE
guest-8_confgen4.mol2 : confsearch ligand conformer 800
          25          24           1
SMALL
USER_CHARGES
 
@<TRIPOS>ATOM
       1    C1      22.127837   15.870730   22.883019 C.2        1 MOL1         0.6168
       2    O1      22.804431   16.140486   21.910323 O.co2      1 MOL1        -0.6703
       3    O2      21.744927   14.747898   23.146398 O.co2      1 MOL1        -0.6703
       4    C2      21.720866   17.006933   23.814464 C.3        1 MOL1        -0.1963
       5    H1      22.522231   17.755504   23.809154 H          1 MOL1         0.0750
       6    H2      21.657757   16.606140   24.833220 H          1 MOL1         0.0750
       7    C3      20.376403   17.661747   23.412476 C.3        1 MOL1        -0.1860
       8    H3      20.457845   18.036983   22.383714 H          1 MOL1         0.0752
       9    H4      19.585546   16.899064   23.414069 H          1 MOL1         0.0752
      10    C4      19.991364   18.814522   24.368242 C.3        1 MOL1        -0.1858
      11    H5      20.761794   19.596110   24.337196 H          1 MOL1         0.0752
      12    H6      19.982933   18.436048   25.399410 H          1 MOL1         0.0752
      13    C5      18.602838   19.430493   24.063425 C.3        1 MOL1        -0.1858
      14    H7      17.835518   18.655262   24.192695 H          1 MOL1         0.0752
      15    H8      18.381115   20.195992   24.818562 H          1 MOL1         0.0752
      16    C6      18.448076   20.048568   22.648556 C.3        1 MOL1        -0.1858
      17    H9      17.436636   20.467374   22.558666 H          1 MOL1         0.0752
      18    H10     18.506429   19.251782   21.895566 H          1 MOL1         0.0752
      19    C7      19.476952   21.150330   22.294063 C.3        1 MOL1        -0.1834
      20    H11     20.492258   20.732028   22.290369 H          1 MOL1         0.0752
      21    H12     19.285205   21.491390   21.267508 H          1 MOL1         0.0752
      22    C8      19.417923   22.367973   23.241638 C.3        1 MOL1        -0.2849
      23    H13     19.707806   22.092177   24.263327 H          1 MOL1         0.0764
      24    H14     20.104606   23.153633   22.901145 H          1 MOL1         0.0764
      25    H15     18.406122   22.792484   23.273019 H          1 MOL1         0.0764
@<TRIPOS>BOND
    1     1     2    1
    2     1     3    2
    3     1     4    1
    4     4     5    1
    5     4     6    1
    6     4     7    1
    7     7     8    1
    8     7     9    1
    9     7    10    1
   10    10    11    1
   11    10    12    1
   12    10    13    1
   13    13    14    1
   14    13    15    1
   15    13    16    1
   16    16    17    1
   17    16    18    1
   18    16    19    1
   19    19    20    1
   20    19    21    1
   21    19    22    1
   22    22    23    1
   23    22    24    1
   24    22    25    1
@<TRIPOS>SUBSTRUCTURE
       1 MOL1            1 RESIDUE      1      MOL     
@<SCITEGIC>MOL_PROPERTY
VConf Rank
SciTegic.value.IntegerValue
800

@<SCITEGIC>MOL_PROPERTY
Conf_Id
SciTegic.value.IntegerValue
30

@<SCITEGIC>MOL_PROPERTY
Delta U+W
SciTegic.value.DoubleValue
0.843

@<SCITEGIC>MOL_PROPERTY
U+W
SciTegic.value.DoubleValue
-50.787

@<SCITEGIC>MOL_PROPERTY
Grad RMS
SciTegic.value.DoubleValue
0.000000

@<SCITEGIC>MOL_PROPERTY
U
SciTegic.value.DoubleValue
8.647

@<SCITEGIC>MOL_PROPERTY
W
SciTegic.value.DoubleValue
-59.434

@<SCITEGIC>MOL_PROPERTY
W(PB)
SciTegic.value.DoubleValue
-61.861

@<SCITEGIC>MOL_PROPERTY
W(SA)
SciTegic.value.DoubleValue
2.428

@<SCITEGIC>MOL_PROPERTY
Valence
SciTegic.value.DoubleValue
8.924

@<SCITEGIC>MOL_PROPERTY
Coulomb
SciTegic.value.DoubleValue
-1.170

@<SCITEGIC>MOL_PROPERTY
VdW
SciTegic.value.DoubleValue
0.894

@<SCITEGIC>MOL_PROPERTY
VdW6
SciTegic.value.DoubleValue
-10.224

@<SCITEGIC>MOL_PROPERTY
VdW12
SciTegic.value.DoubleValue
11.118

@<SCITEGIC>MOL_PROPERTY
Bond
SciTegic.value.DoubleValue
0.231

@<SCITEGIC>MOL_PROPERTY
Angle
SciTegic.value.DoubleValue
3.232

@<SCITEGIC>MOL_PROPERTY
Pdih
SciTegic.value.DoubleValue
5.460

@<SCITEGIC>MOL_PROPERTY
Idih
SciTegic.value.DoubleValue
0.000

@<SCITEGIC>MOL_PROPERTY
Tether
SciTegic.value.DoubleValue
0.000

@<TRIPOS>MOLECULE
guest-8_confgen4.mol2 : confsearch ligand conformer 801
          25          24           1
SMALL
USER_CHARGES
 
@<TRIPOS>ATOM
       1    C1      17.044965   16.601677   25.646110 C.2        1 MOL1         0.6168
       2    O1      16.127855   17.384011   25.486532 O.co2      1 MOL1        -0.6703
       3    O2      16.937970   15.575334   26.287429 O.co2      1 MOL1        -0.6703
       4    C2      18.410259   16.895933   25.022586 C.3        1 MOL1        -0.1963
       5    H1      18.663929   16.047744   24.375954 H          1 MOL1         0.0750
       6    H2      19.144920   16.910311   25.836203 H          1 MOL1         0.0750
       7    C3      18.497704   18.217222   24.213287 C.3        1 MOL1        -0.1860
       8    H3      17.754724   18.198731   23.403877 H          1 MOL1         0.0752
       9    H4      18.236208   19.062093   24.865452 H          1 MOL1         0.0752
      10    C4      19.906735   18.435374   23.620252 C.3        1 MOL1        -0.1858
      11    H5      20.166012   17.589554   22.968715 H          1 MOL1         0.0752
      12    H6      20.647792   18.453478   24.431204 H          1 MOL1         0.0752
      13    C5      19.991449   19.750243   22.815621 C.3        1 MOL1        -0.1858
      14    H7      19.250517   19.732410   22.004569 H          1 MOL1         0.0752
      15    H8      19.732264   20.596256   23.466919 H          1 MOL1         0.0752
      16    C6      21.400040   19.968973   22.222374 C.3        1 MOL1        -0.1858
      17    H9      21.659412   19.123089   21.570992 H          1 MOL1         0.0752
      18    H10     22.141130   19.986945   23.033273 H          1 MOL1         0.0752
      19    C7      21.484824   21.283211   21.418042 C.3        1 MOL1        -0.1834
      20    H11     20.746092   21.268088   20.604694 H          1 MOL1         0.0752
      21    H12     21.227815   22.131940   22.066959 H          1 MOL1         0.0752
      22    C8      22.892845   21.497972   20.827314 C.3        1 MOL1        -0.2849
      23    H13     23.163351   20.678375   20.148724 H          1 MOL1         0.0764
      24    H14     22.935042   22.436278   20.259081 H          1 MOL1         0.0764
      25    H15     23.648696   21.548749   21.621989 H          1 MOL1         0.0764
@<TRIPOS>BOND
    1     1     2    1
    2     1     3    2
    3     1     4    1
    4     4     5    1
    5     4     6    1
    6     4     7    1
    7     7     8    1
    8     7     9    1
    9     7    10    1
   10    10    11    1
   11    10    12    1
   12    10    13    1
   13    13    14    1
   14    13    15    1
   15    13    16    1
   16    16    17    1
   17    16    18    1
   18    16    19    1
   19    19    20    1
   20    19    21    1
   21    19    22    1
   22    22    23    1
   23    22    24    1
   24    22    25    1
@<TRIPOS>SUBSTRUCTURE
       1 MOL1            1 RESIDUE      1      MOL     
@<SCITEGIC>MOL_PROPERTY
VConf Rank
SciTegic.value.IntegerValue
801

@<SCITEGIC>MOL_PROPERTY
Conf_Id
SciTegic.value.IntegerValue
0

@<SCITEGIC>MOL_PROPERTY
Delta U+W
SciTegic.value.DoubleValue
0.000

@<SCITEGIC>MOL_PROPERTY
U+W
SciTegic.value.DoubleValue
-51.629

@<SCITEGIC>MOL_PROPERTY
Grad RMS
SciTegic.value.DoubleValue
0.000000

@<SCITEGIC>MOL_PROPERTY
U
SciTegic.value.DoubleValue
6.586

@<SCITEGIC>MOL_PROPERTY
W
SciTegic.value.DoubleValue
-58.216

@<SCITEGIC>MOL_PROPERTY
W(PB)
SciTegic.value.DoubleValue
-60.757

@<SCITEGIC>MOL_PROPERTY
W(SA)
SciTegic.value.DoubleValue
2.541

@<SCITEGIC>MOL_PROPERTY
Valence
SciTegic.value.DoubleValue
8.027

@<SCITEGIC>MOL_PROPERTY
Coulomb
SciTegic.value.DoubleValue
-2.892

@<SCITEGIC>MOL_PROPERTY
VdW
SciTegic.value.DoubleValue
1.451

@<SCITEGIC>MOL_PROPERTY
VdW6
SciTegic.value.DoubleValue
-7.931

@<SCITEGIC>MOL_PROPERTY
VdW12
SciTegic.value.DoubleValue
9.383

@<SCITEGIC>MOL_PROPERTY
Bond
SciTegic.value.DoubleValue
0.149

@<SCITEGIC>MOL_PROPERTY
Angle
SciTegic.value.DoubleValue
2.726

@<SCITEGIC>MOL_PROPERTY
Pdih
SciTegic.value.DoubleValue
5.152

@<SCITEGIC>MOL_PROPERTY
Idih
SciTegic.value.DoubleValue
0.000

@<SCITEGIC>MOL_PROPERTY
Tether
SciTegic.value.DoubleValue
0.000

@<TRIPOS>MOLECULE
guest-8_confgen4.mol2 : confsearch ligand conformer 802
          25          24           1
SMALL
USER_CHARGES
 
@<TRIPOS>ATOM
       1    C1      22.944538   21.769112   20.495235 C.2        1 MOL1         0.6168
       2    O1      23.012654   22.933823   20.834982 O.co2      1 MOL1        -0.6703
       3    O2      23.866021   21.160499   19.988203 O.co2      1 MOL1        -0.6703
       4    C2      21.637559   21.023400   20.739781 C.3        1 MOL1        -0.1963
       5    H1      21.516492   20.278364   19.944251 H          1 MOL1         0.0750
       6    H2      20.813119   21.739799   20.641409 H          1 MOL1         0.0750
       7    C3      21.587197   20.337333   22.127152 C.3        1 MOL1        -0.1860
       8    H3      22.426441   19.633326   22.214529 H          1 MOL1         0.0752
       9    H4      21.723246   21.094719   22.911658 H          1 MOL1         0.0752
      10    C4      20.254931   19.589609   22.350758 C.3        1 MOL1        -0.1858
      11    H5      20.121426   18.834042   21.564326 H          1 MOL1         0.0752
      12    H6      19.418006   20.295834   22.261410 H          1 MOL1         0.0752
      13    C5      20.207551   18.906899   23.734640 C.3        1 MOL1        -0.1858
      14    H7      21.044331   18.200582   23.824190 H          1 MOL1         0.0752
      15    H8      20.341018   19.662285   24.521203 H          1 MOL1         0.0752
      16    C6      18.875547   18.159025   23.958980 C.3        1 MOL1        -0.1858
      17    H9      18.741826   17.403477   23.172620 H          1 MOL1         0.0752
      18    H10     18.038553   18.865092   23.869504 H          1 MOL1         0.0752
      19    C7      18.827978   17.476614   25.342242 C.3        1 MOL1        -0.1834
      20    H11     19.662803   16.768092   25.434714 H          1 MOL1         0.0752
      21    H12     18.959504   18.229691   26.131587 H          1 MOL1         0.0752
      22    C8      17.496412   16.730914   25.562395 C.3        1 MOL1        -0.2849
      23    H13     17.479844   16.252031   26.550061 H          1 MOL1         0.0764
      24    H14     16.645213   17.422102   25.506579 H          1 MOL1         0.0764
      25    H15     17.353812   15.949508   24.804460 H          1 MOL1         0.0764
@<TRIPOS>BOND
    1     1     2    1
    2     1     3    2
    3     1     4    1
    4     4     5    1
    5     4     6    1
    6     4     7    1
    7     7     8    1
    8     7     9    1
    9     7    10    1
   10    10    11    1
   11    10    12    1
   12    10    13    1
   13    13    14    1
   14    13    15    1
   15    13    16    1
   16    16    17    1
   17    16    18    1
   18    16    19    1
   19    19    20    1
   20    19    21    1
   21    19    22    1
   22    22    23    1
   23    22    24    1
   24    22    25    1
@<TRIPOS>SUBSTRUCTURE
       1 MOL1            1 RESIDUE      1      MOL     
@<SCITEGIC>MOL_PROPERTY
VConf Rank
SciTegic.value.IntegerValue
802

@<SCITEGIC>MOL_PROPERTY
Conf_Id
SciTegic.value.IntegerValue
27

@<SCITEGIC>MOL_PROPERTY
Delta U+W
SciTegic.value.DoubleValue
-1.297

@<SCITEGIC>MOL_PROPERTY
U+W
SciTegic.value.DoubleValue
-52.926

@<SCITEGIC>MOL_PROPERTY
Grad RMS
SciTegic.value.DoubleValue
0.000000

@<SCITEGIC>MOL_PROPERTY
U
SciTegic.value.DoubleValue
5.617

@<SCITEGIC>MOL_PROPERTY
W
SciTegic.value.DoubleValue
-58.543

@<SCITEGIC>MOL_PROPERTY
W(PB)
SciTegic.value.DoubleValue
-61.065

@<SCITEGIC>MOL_PROPERTY
W(SA)
SciTegic.value.DoubleValue
2.522

@<SCITEGIC>MOL_PROPERTY
Valence
SciTegic.value.DoubleValue
7.531

@<SCITEGIC>MOL_PROPERTY
Coulomb
SciTegic.value.DoubleValue
-2.818

@<SCITEGIC>MOL_PROPERTY
VdW
SciTegic.value.DoubleValue
0.904

@<SCITEGIC>MOL_PROPERTY
VdW6
SciTegic.value.DoubleValue
-7.640

@<SCITEGIC>MOL_PROPERTY
VdW12
SciTegic.value.DoubleValue
8.544

@<SCITEGIC>MOL_PROPERTY
Bond
SciTegic.value.DoubleValue
0.115

@<SCITEGIC>MOL_PROPERTY
Angle
SciTegic.value.DoubleValue
2.271

@<SCITEGIC>MOL_PROPERTY
Pdih
SciTegic.value.DoubleValue
5.144

@<SCITEGIC>MOL_PROPERTY
Idih
SciTegic.value.DoubleValue
0.001

@<SCITEGIC>MOL_PROPERTY
Tether
SciTegic.value.DoubleValue
0.000

@<TRIPOS>MOLECULE
guest-8_confgen4.mol2 : confsearch ligand conformer 803
          25          24           1
SMALL
USER_CHARGES
 
@<TRIPOS>ATOM
       1    C1      19.940125   18.165770   19.430577 C.2        1 MOL1         0.6168
       2    O1      20.904772   17.564162   19.000928 O.co2      1 MOL1        -0.6703
       3    O2      18.830665   17.678726   19.524657 O.co2      1 MOL1        -0.6703
       4    C2      20.131229   19.617919   19.859186 C.3        1 MOL1        -0.1963
       5    H1      19.149912   20.106916   19.886456 H          1 MOL1         0.0750
       6    H2      20.713041   20.117210   19.075484 H          1 MOL1         0.0750
       7    C3      20.850263   19.783106   21.223242 C.3        1 MOL1        -0.1860
       8    H3      21.818733   19.264858   21.189246 H          1 MOL1         0.0752
       9    H4      21.066954   20.847688   21.385291 H          1 MOL1         0.0752
      10    C4      20.011615   19.248143   22.405719 C.3        1 MOL1        -0.1858
      11    H5      19.805426   18.178781   22.259521 H          1 MOL1         0.0752
      12    H6      19.039494   19.759555   22.427245 H          1 MOL1         0.0752
      13    C5      20.732113   19.451579   23.755952 C.3        1 MOL1        -0.1858
      14    H7      21.704063   18.939823   23.733471 H          1 MOL1         0.0752
      15    H8      20.936632   20.520590   23.905704 H          1 MOL1         0.0752
      16    C6      19.895080   18.916500   24.937868 C.3        1 MOL1        -0.1858
      17    H9      19.690409   17.847462   24.788214 H          1 MOL1         0.0752
      18    H10     18.922932   19.427877   24.960319 H          1 MOL1         0.0752
      19    C7      20.615062   19.119145   26.287657 C.3        1 MOL1        -0.1834
      20    H11     21.587262   18.607307   26.269438 H          1 MOL1         0.0752
      21    H12     20.819708   20.187742   26.441608 H          1 MOL1         0.0752
      22    C8      19.776019   18.583367   27.465177 C.3        1 MOL1        -0.2849
      23    H13     19.582950   17.508421   27.352870 H          1 MOL1         0.0764
      24    H14     20.302606   18.735511   28.416302 H          1 MOL1         0.0764
      25    H15     18.809579   19.100715   27.526324 H          1 MOL1         0.0764
@<TRIPOS>BOND
    1     1     2    1
    2     1     3    2
    3     1     4    1
    4     4     5    1
    5     4     6    1
    6     4     7    1
    7     7     8    1
    8     7     9    1
    9     7    10    1
   10    10    11    1
   11    10    12    1
   12    10    13    1
   13    13    14    1
   14    13    15    1
   15    13    16    1
   16    16    17    1
   17    16    18    1
   18    16    19    1
   19    19    20    1
   20    19    21    1
   21    19    22    1
   22    22    23    1
   23    22    24    1
   24    22    25    1
@<TRIPOS>SUBSTRUCTURE
       1 MOL1            1 RESIDUE      1      MOL     
@<SCITEGIC>MOL_PROPERTY
VConf Rank
SciTegic.value.IntegerValue
803

@<SCITEGIC>MOL_PROPERTY
Conf_Id
SciTegic.value.IntegerValue
37

@<SCITEGIC>MOL_PROPERTY
Delta U+W
SciTegic.value.DoubleValue
-0.230

@<SCITEGIC>MOL_PROPERTY
U+W
SciTegic.value.DoubleValue
-51.860

@<SCITEGIC>MOL_PROPERTY
Grad RMS
SciTegic.value.DoubleValue
0.000000

@<SCITEGIC>MOL_PROPERTY
U
SciTegic.value.DoubleValue
7.816

@<SCITEGIC>MOL_PROPERTY
W
SciTegic.value.DoubleValue
-59.675

@<SCITEGIC>MOL_PROPERTY
W(PB)
SciTegic.value.DoubleValue
-62.180

@<SCITEGIC>MOL_PROPERTY
W(SA)
SciTegic.value.DoubleValue
2.505

@<SCITEGIC>MOL_PROPERTY
Valence
SciTegic.value.DoubleValue
7.785

@<SCITEGIC>MOL_PROPERTY
Coulomb
SciTegic.value.DoubleValue
-0.713

@<SCITEGIC>MOL_PROPERTY
VdW
SciTegic.value.DoubleValue
0.744

@<SCITEGIC>MOL_PROPERTY
VdW6
SciTegic.value.DoubleValue
-8.514

@<SCITEGIC>MOL_PROPERTY
VdW12
SciTegic.value.DoubleValue
9.259

@<SCITEGIC>MOL_PROPERTY
Bond
SciTegic.value.DoubleValue
0.136

@<SCITEGIC>MOL_PROPERTY
Angle
SciTegic.value.DoubleValue
2.433

@<SCITEGIC>MOL_PROPERTY
Pdih
SciTegic.value.DoubleValue
5.216

@<SCITEGIC>MOL_PROPERTY
Idih
SciTegic.value.DoubleValue
0.000

@<SCITEGIC>MOL_PROPERTY
Tether
SciTegic.value.DoubleValue
0.000

@<TRIPOS>MOLECULE
guest-8_confgen4.mol2 : confsearch ligand conformer 804
          25          24           1
SMALL
USER_CHARGES
 
@<TRIPOS>ATOM
       1    C1      21.483626   15.655012   24.000364 C.2        1 MOL1         0.6168
       2    O1      22.269703   15.609028   24.926130 O.co2      1 MOL1        -0.6703
       3    O2      21.796838   15.464199   22.841722 O.co2      1 MOL1        -0.6703
       4    C2      20.020180   15.952889   24.314313 C.3        1 MOL1        -0.1963
       5    H1      19.735250   15.330242   25.170531 H          1 MOL1         0.0750
       6    H2      19.406634   15.626227   23.465962 H          1 MOL1         0.0750
       7    C3      19.735721   17.442347   24.639184 C.3        1 MOL1        -0.1860
       8    H3      18.697521   17.539854   24.984412 H          1 MOL1         0.0752
       9    H4      20.377312   17.762123   25.472117 H          1 MOL1         0.0752
      10    C4      19.957143   18.368760   23.422427 C.3        1 MOL1        -0.1858
      11    H5      19.323639   18.036942   22.588404 H          1 MOL1         0.0752
      12    H6      20.998836   18.289879   23.081729 H          1 MOL1         0.0752
      13    C5      19.637882   19.841245   23.759312 C.3        1 MOL1        -0.1858
      14    H7      18.595772   19.923020   24.097477 H          1 MOL1         0.0752
      15    H8      20.271928   20.172171   24.593316 H          1 MOL1         0.0752
      16    C6      19.859579   20.767619   22.544184 C.3        1 MOL1        -0.1858
      17    H9      19.225833   20.436688   21.709959 H          1 MOL1         0.0752
      18    H10     20.901662   20.685857   22.205798 H          1 MOL1         0.0752
      19    C7      19.541183   22.239628   22.880601 C.3        1 MOL1        -0.1834
      20    H11     18.498870   22.325489   23.217782 H          1 MOL1         0.0752
      21    H12     20.174786   22.574660   23.713539 H          1 MOL1         0.0752
      22    C8      19.763853   23.161291   21.664641 C.3        1 MOL1        -0.2849
      23    H13     19.118690   22.868032   20.826095 H          1 MOL1         0.0764
      24    H14     19.532992   24.203307   21.921522 H          1 MOL1         0.0764
      25    H15     20.807225   23.119009   21.325547 H          1 MOL1         0.0764
@<TRIPOS>BOND
    1     1     2    1
    2     1     3    2
    3     1     4    1
    4     4     5    1
    5     4     6    1
    6     4     7    1
    7     7     8    1
    8     7     9    1
    9     7    10    1
   10    10    11    1
   11    10    12    1
   12    10    13    1
   13    13    14    1
   14    13    15    1
   15    13    16    1
   16    16    17    1
   17    16    18    1
   18    16    19    1
   19    19    20    1
   20    19    21    1
   21    19    22    1
   22    22    23    1
   23    22    24    1
   24    22    25    1
@<TRIPOS>SUBSTRUCTURE
       1 MOL1            1 RESIDUE      1      MOL     
@<SCITEGIC>MOL_PROPERTY
VConf Rank
SciTegic.value.IntegerValue
804

@<SCITEGIC>MOL_PROPERTY
Conf_Id
SciTegic.value.IntegerValue
54

@<SCITEGIC>MOL_PROPERTY
Delta U+W
SciTegic.value.DoubleValue
-0.224

@<SCITEGIC>MOL_PROPERTY
U+W
SciTegic.value.DoubleValue
-51.854

@<SCITEGIC>MOL_PROPERTY
Grad RMS
SciTegic.value.DoubleValue
0.000000

@<SCITEGIC>MOL_PROPERTY
U
SciTegic.value.DoubleValue
7.816

@<SCITEGIC>MOL_PROPERTY
W
SciTegic.value.DoubleValue
-59.670

@<SCITEGIC>MOL_PROPERTY
W(PB)
SciTegic.value.DoubleValue
-62.157

@<SCITEGIC>MOL_PROPERTY
W(SA)
SciTegic.value.DoubleValue
2.487

@<SCITEGIC>MOL_PROPERTY
Valence
SciTegic.value.DoubleValue
7.785

@<SCITEGIC>MOL_PROPERTY
Coulomb
SciTegic.value.DoubleValue
-0.713

@<SCITEGIC>MOL_PROPERTY
VdW
SciTegic.value.DoubleValue
0.744

@<SCITEGIC>MOL_PROPERTY
VdW6
SciTegic.value.DoubleValue
-8.515

@<SCITEGIC>MOL_PROPERTY
VdW12
SciTegic.value.DoubleValue
9.259

@<SCITEGIC>MOL_PROPERTY
Bond
SciTegic.value.DoubleValue
0.136

@<SCITEGIC>MOL_PROPERTY
Angle
SciTegic.value.DoubleValue
2.433

@<SCITEGIC>MOL_PROPERTY
Pdih
SciTegic.value.DoubleValue
5.215

@<SCITEGIC>MOL_PROPERTY
Idih
SciTegic.value.DoubleValue
0.000

@<SCITEGIC>MOL_PROPERTY
Tether
SciTegic.value.DoubleValue
0.000

@<TRIPOS>MOLECULE
guest-8_confgen4.mol2 : confsearch ligand conformer 805
          25          24           1
SMALL
USER_CHARGES
 
@<TRIPOS>ATOM
       1    C1      21.808958   22.141265   21.185353 C.2        1 MOL1         0.6168
       2    O1      22.379892   21.592504   20.263428 O.co2      1 MOL1        -0.6703
       3    O2      21.044132   23.074949   21.042576 O.co2      1 MOL1        -0.6703
       4    C2      22.080119   21.644277   22.602625 C.3        1 MOL1        -0.1963
       5    H1      22.259713   22.525799   23.229230 H          1 MOL1         0.0750
       6    H2      23.010143   21.063013   22.598375 H          1 MOL1         0.0750
       7    C3      20.926340   20.804155   23.209793 C.3        1 MOL1        -0.1860
       8    H3      21.145671   20.630086   24.270640 H          1 MOL1         0.0752
       9    H4      19.993880   21.384039   23.169138 H          1 MOL1         0.0752
      10    C4      20.733914   19.449383   22.486248 C.3        1 MOL1        -0.1858
      11    H5      21.651951   18.851489   22.566926 H          1 MOL1         0.0752
      12    H6      20.578995   19.633694   21.414331 H          1 MOL1         0.0752
      13    C5      19.532649   18.629436   23.015025 C.3        1 MOL1        -0.1858
      14    H7      18.618087   19.234533   22.951686 H          1 MOL1         0.0752
      15    H8      19.386223   17.773510   22.344115 H          1 MOL1         0.0752
      16    C6      19.722670   18.118071   24.464586 C.3        1 MOL1        -0.1858
      17    H9      19.861943   18.972543   25.138645 H          1 MOL1         0.0752
      18    H10     20.640053   17.517278   24.528415 H          1 MOL1         0.0752
      19    C7      18.524842   17.289710   24.985655 C.3        1 MOL1        -0.1834
      20    H11     18.677243   17.086059   26.054554 H          1 MOL1         0.0752
      21    H12     17.603012   17.883061   24.911741 H          1 MOL1         0.0752
      22    C8      18.339558   15.945774   24.247790 C.3        1 MOL1        -0.2849
      23    H13     18.063163   16.098804   23.197270 H          1 MOL1         0.0764
      24    H14     19.261107   15.350045   24.278871 H          1 MOL1         0.0764
      25    H15     17.541111   15.357257   24.717934 H          1 MOL1         0.0764
@<TRIPOS>BOND
    1     1     2    1
    2     1     3    2
    3     1     4    1
    4     4     5    1
    5     4     6    1
    6     4     7    1
    7     7     8    1
    8     7     9    1
    9     7    10    1
   10    10    11    1
   11    10    12    1
   12    10    13    1
   13    13    14    1
   14    13    15    1
   15    13    16    1
   16    16    17    1
   17    16    18    1
   18    16    19    1
   19    19    20    1
   20    19    21    1
   21    19    22    1
   22    22    23    1
   23    22    24    1
   24    22    25    1
@<TRIPOS>SUBSTRUCTURE
       1 MOL1            1 RESIDUE      1      MOL     
@<SCITEGIC>MOL_PROPERTY
VConf Rank
SciTegic.value.IntegerValue
805

@<SCITEGIC>MOL_PROPERTY
Conf_Id
SciTegic.value.IntegerValue
101

@<SCITEGIC>MOL_PROPERTY
Delta U+W
SciTegic.value.DoubleValue
1.534

@<SCITEGIC>MOL_PROPERTY
U+W
SciTegic.value.DoubleValue
-50.095

@<SCITEGIC>MOL_PROPERTY
Grad RMS
SciTegic.value.DoubleValue
0.000000

@<SCITEGIC>MOL_PROPERTY
U
SciTegic.value.DoubleValue
9.416

@<SCITEGIC>MOL_PROPERTY
W
SciTegic.value.DoubleValue
-59.512

@<SCITEGIC>MOL_PROPERTY
W(PB)
SciTegic.value.DoubleValue
-61.988

@<SCITEGIC>MOL_PROPERTY
W(SA)
SciTegic.value.DoubleValue
2.476

@<SCITEGIC>MOL_PROPERTY
Valence
SciTegic.value.DoubleValue
8.939

@<SCITEGIC>MOL_PROPERTY
Coulomb
SciTegic.value.DoubleValue
-0.615

@<SCITEGIC>MOL_PROPERTY
VdW
SciTegic.value.DoubleValue
1.092

@<SCITEGIC>MOL_PROPERTY
VdW6
SciTegic.value.DoubleValue
-9.710

@<SCITEGIC>MOL_PROPERTY
VdW12
SciTegic.value.DoubleValue
10.802

@<SCITEGIC>MOL_PROPERTY
Bond
SciTegic.value.DoubleValue
0.216

@<SCITEGIC>MOL_PROPERTY
Angle
SciTegic.value.DoubleValue
2.979

@<SCITEGIC>MOL_PROPERTY
Pdih
SciTegic.value.DoubleValue
5.743

@<SCITEGIC>MOL_PROPERTY
Idih
SciTegic.value.DoubleValue
0.000

@<SCITEGIC>MOL_PROPERTY
Tether
SciTegic.value.DoubleValue
0.000

@<TRIPOS>MOLECULE
guest-8_confgen4.mol2 : confsearch ligand conformer 806
          25          24           1
SMALL
USER_CHARGES
 
@<TRIPOS>ATOM
       1    C1      16.085043   19.828769   24.319712 C.2        1 MOL1         0.6168
       2    O1      15.988241   19.641625   25.516517 O.co2      1 MOL1        -0.6703
       3    O2      15.281882   20.470504   23.671726 O.co2      1 MOL1        -0.6703
       4    C2      17.292694   19.245343   23.594894 C.3        1 MOL1        -0.1963
       5    H1      16.988451   19.000392   22.570309 H          1 MOL1         0.0750
       6    H2      17.554992   18.304191   24.090669 H          1 MOL1         0.0750
       7    C3      18.505130   20.212409   23.576445 C.3        1 MOL1        -0.1860
       8    H3      18.178571   21.176684   23.162973 H          1 MOL1         0.0752
       9    H4      18.832193   20.411926   24.606261 H          1 MOL1         0.0752
      10    C4      19.699525   19.695321   22.739338 C.3        1 MOL1        -0.1858
      11    H5      20.439639   20.502819   22.670999 H          1 MOL1         0.0752
      12    H6      19.368033   19.487327   21.712977 H          1 MOL1         0.0752
      13    C5      20.371085   18.434989   23.338062 C.3        1 MOL1        -0.1858
      14    H7      20.703082   18.643045   24.363492 H          1 MOL1         0.0752
      15    H8      19.631078   17.628685   23.415396 H          1 MOL1         0.0752
      16    C6      21.559024   17.907011   22.494026 C.3        1 MOL1        -0.1858
      17    H9      21.189578   17.622762   21.499345 H          1 MOL1         0.0752
      18    H10     21.931545   16.981607   22.953946 H          1 MOL1         0.0752
      19    C7      22.744556   18.889294   22.323457 C.3        1 MOL1        -0.1834
      20    H11     23.514114   18.403580   21.707904 H          1 MOL1         0.0752
      21    H12     22.424848   19.776858   21.761887 H          1 MOL1         0.0752
      22    C8      23.380188   19.320903   23.662720 C.3        1 MOL1        -0.2849
      23    H13     23.685879   18.446924   24.252373 H          1 MOL1         0.0764
      24    H14     24.270494   19.937629   23.484480 H          1 MOL1         0.0764
      25    H15     22.679438   19.914527   24.263253 H          1 MOL1         0.0764
@<TRIPOS>BOND
    1     1     2    1
    2     1     3    2
    3     1     4    1
    4     4     5    1
    5     4     6    1
    6     4     7    1
    7     7     8    1
    8     7     9    1
    9     7    10    1
   10    10    11    1
   11    10    12    1
   12    10    13    1
   13    13    14    1
   14    13    15    1
   15    13    16    1
   16    16    17    1
   17    16    18    1
   18    16    19    1
   19    19    20    1
   20    19    21    1
   21    19    22    1
   22    22    23    1
   23    22    24    1
   24    22    25    1
@<TRIPOS>SUBSTRUCTURE
       1 MOL1            1 RESIDUE      1      MOL     
@<SCITEGIC>MOL_PROPERTY
VConf Rank
SciTegic.value.IntegerValue
806

@<SCITEGIC>MOL_PROPERTY
Conf_Id
SciTegic.value.IntegerValue
75

@<SCITEGIC>MOL_PROPERTY
Delta U+W
SciTegic.value.DoubleValue
1.014

@<SCITEGIC>MOL_PROPERTY
U+W
SciTegic.value.DoubleValue
-50.615

@<SCITEGIC>MOL_PROPERTY
Grad RMS
SciTegic.value.DoubleValue
0.000000

@<SCITEGIC>MOL_PROPERTY
U
SciTegic.value.DoubleValue
8.474

@<SCITEGIC>MOL_PROPERTY
W
SciTegic.value.DoubleValue
-59.089

@<SCITEGIC>MOL_PROPERTY
W(PB)
SciTegic.value.DoubleValue
-61.530

@<SCITEGIC>MOL_PROPERTY
W(SA)
SciTegic.value.DoubleValue
2.441

@<SCITEGIC>MOL_PROPERTY
Valence
SciTegic.value.DoubleValue
9.080

@<SCITEGIC>MOL_PROPERTY
Coulomb
SciTegic.value.DoubleValue
-1.772

@<SCITEGIC>MOL_PROPERTY
VdW
SciTegic.value.DoubleValue
1.165

@<SCITEGIC>MOL_PROPERTY
VdW6
SciTegic.value.DoubleValue
-9.830

@<SCITEGIC>MOL_PROPERTY
VdW12
SciTegic.value.DoubleValue
10.996

@<SCITEGIC>MOL_PROPERTY
Bond
SciTegic.value.DoubleValue
0.240

@<SCITEGIC>MOL_PROPERTY
Angle
SciTegic.value.DoubleValue
3.225

@<SCITEGIC>MOL_PROPERTY
Pdih
SciTegic.value.DoubleValue
5.615

@<SCITEGIC>MOL_PROPERTY
Idih
SciTegic.value.DoubleValue
0.001

@<SCITEGIC>MOL_PROPERTY
Tether
SciTegic.value.DoubleValue
0.000

@<TRIPOS>MOLECULE
guest-8_confgen4.mol2 : confsearch ligand conformer 807
          25          24           1
SMALL
USER_CHARGES
 
@<TRIPOS>ATOM
       1    C1      23.512932   21.666763   23.433120 C.2        1 MOL1         0.6168
       2    O1      23.858339   21.768462   24.593724 O.co2      1 MOL1        -0.6703
       3    O2      24.269469   21.798832   22.491377 O.co2      1 MOL1        -0.6703
       4    C2      22.053798   21.333901   23.142927 C.3        1 MOL1        -0.1963
       5    H1      21.776342   21.814340   22.197012 H          1 MOL1         0.0750
       6    H2      21.438209   21.786649   23.929487 H          1 MOL1         0.0750
       7    C3      21.788052   19.810199   23.066823 C.3        1 MOL1        -0.1860
       8    H3      22.421026   19.369865   22.283915 H          1 MOL1         0.0752
       9    H4      22.083271   19.342677   24.016457 H          1 MOL1         0.0752
      10    C4      20.304255   19.499290   22.773848 C.3        1 MOL1        -0.1858
      11    H5      20.013562   19.968863   21.824211 H          1 MOL1         0.0752
      12    H6      19.678592   19.951322   23.552582 H          1 MOL1         0.0752
      13    C5      20.045192   17.976443   22.692864 C.3        1 MOL1        -0.1858
      14    H7      20.664482   17.566912   21.883123 H          1 MOL1         0.0752
      15    H8      20.380409   17.481767   23.614679 H          1 MOL1         0.0752
      16    C6      18.564215   17.619563   22.406913 C.3        1 MOL1        -0.1858
      17    H9      18.545908   16.732800   21.758696 H          1 MOL1         0.0752
      18    H10     18.083625   18.421020   21.829387 H          1 MOL1         0.0752
      19    C7      17.723012   17.293171   23.665781 C.3        1 MOL1        -0.1834
      20    H11     16.721332   16.977287   23.343250 H          1 MOL1         0.0752
      21    H12     18.162493   16.432911   24.189276 H          1 MOL1         0.0752
      22    C8      17.576054   18.471199   24.651188 C.3        1 MOL1        -0.2849
      23    H13     17.200511   19.367566   24.140839 H          1 MOL1         0.0764
      24    H14     16.869852   18.216102   25.451786 H          1 MOL1         0.0764
      25    H15     18.536244   18.714145   25.123034 H          1 MOL1         0.0764
@<TRIPOS>BOND
    1     1     2    1
    2     1     3    2
    3     1     4    1
    4     4     5    1
    5     4     6    1
    6     4     7    1
    7     7     8    1
    8     7     9    1
    9     7    10    1
   10    10    11    1
   11    10    12    1
   12    10    13    1
   13    13    14    1
   14    13    15    1
   15    13    16    1
   16    16    17    1
   17    16    18    1
   18    16    19    1
   19    19    20    1
   20    19    21    1
   21    19    22    1
   22    22    23    1
   23    22    24    1
   24    22    25    1
@<TRIPOS>SUBSTRUCTURE
       1 MOL1            1 RESIDUE      1      MOL     
@<SCITEGIC>MOL_PROPERTY
VConf Rank
SciTegic.value.IntegerValue
807

@<SCITEGIC>MOL_PROPERTY
Conf_Id
SciTegic.value.IntegerValue
125

@<SCITEGIC>MOL_PROPERTY
Delta U+W
SciTegic.value.DoubleValue
2.314

@<SCITEGIC>MOL_PROPERTY
U+W
SciTegic.value.DoubleValue
-49.315

@<SCITEGIC>MOL_PROPERTY
Grad RMS
SciTegic.value.DoubleValue
0.000000

@<SCITEGIC>MOL_PROPERTY
U
SciTegic.value.DoubleValue
9.740

@<SCITEGIC>MOL_PROPERTY
W
SciTegic.value.DoubleValue
-59.054

@<SCITEGIC>MOL_PROPERTY
W(PB)
SciTegic.value.DoubleValue
-61.488

@<SCITEGIC>MOL_PROPERTY
W(SA)
SciTegic.value.DoubleValue
2.433

@<SCITEGIC>MOL_PROPERTY
Valence
SciTegic.value.DoubleValue
10.506

@<SCITEGIC>MOL_PROPERTY
Coulomb
SciTegic.value.DoubleValue
-1.761

@<SCITEGIC>MOL_PROPERTY
VdW
SciTegic.value.DoubleValue
0.994

@<SCITEGIC>MOL_PROPERTY
VdW6
SciTegic.value.DoubleValue
-9.209

@<SCITEGIC>MOL_PROPERTY
VdW12
SciTegic.value.DoubleValue
10.203

@<SCITEGIC>MOL_PROPERTY
Bond
SciTegic.value.DoubleValue
0.193

@<SCITEGIC>MOL_PROPERTY
Angle
SciTegic.value.DoubleValue
2.979

@<SCITEGIC>MOL_PROPERTY
Pdih
SciTegic.value.DoubleValue
7.334

@<SCITEGIC>MOL_PROPERTY
Idih
SciTegic.value.DoubleValue
0.001

@<SCITEGIC>MOL_PROPERTY
Tether
SciTegic.value.DoubleValue
0.000

@<TRIPOS>MOLECULE
guest-8_confgen4.mol2 : confsearch ligand conformer 808
          25          24           1
SMALL
USER_CHARGES
 
@<TRIPOS>ATOM
       1    C1      18.837944   15.770502   21.362677 C.2        1 MOL1         0.6168
       2    O1      17.995976   15.279325   22.088299 O.co2      1 MOL1        -0.6703
       3    O2      19.265482   15.226829   20.363491 O.co2      1 MOL1        -0.6703
       4    C2      19.407061   17.133570   21.739731 C.3        1 MOL1        -0.1963
       5    H1      18.607772   17.705437   22.224319 H          1 MOL1         0.0750
       6    H2      19.669768   17.660174   20.814513 H          1 MOL1         0.0750
       7    C3      20.645809   17.030327   22.667140 C.3        1 MOL1        -0.1860
       8    H3      20.359091   16.543152   23.609362 H          1 MOL1         0.0752
       9    H4      21.388012   16.373884   22.192098 H          1 MOL1         0.0752
      10    C4      21.310513   18.395376   22.965407 C.3        1 MOL1        -0.1858
      11    H5      21.604669   18.875472   22.022035 H          1 MOL1         0.0752
      12    H6      22.238520   18.215494   23.525189 H          1 MOL1         0.0752
      13    C5      20.409560   19.353709   23.778473 C.3        1 MOL1        -0.1858
      14    H7      19.510523   19.593612   23.198123 H          1 MOL1         0.0752
      15    H8      20.076580   18.852942   24.697668 H          1 MOL1         0.0752
      16    C6      21.151251   20.660808   24.142606 C.3        1 MOL1        -0.1858
      17    H9      21.444520   21.187760   23.224345 H          1 MOL1         0.0752
      18    H10     22.082708   20.409353   24.667965 H          1 MOL1         0.0752
      19    C7      20.322593   21.608696   25.040744 C.3        1 MOL1        -0.1834
      20    H11     20.032086   21.086447   25.962790 H          1 MOL1         0.0752
      21    H12     20.959913   22.449268   25.348134 H          1 MOL1         0.0752
      22    C8      19.064299   22.168839   24.342516 C.3        1 MOL1        -0.2849
      23    H13     18.341382   21.373859   24.120964 H          1 MOL1         0.0764
      24    H14     18.563024   22.903112   24.986302 H          1 MOL1         0.0764
      25    H15     19.326896   22.668460   23.400960 H          1 MOL1         0.0764
@<TRIPOS>BOND
    1     1     2    1
    2     1     3    2
    3     1     4    1
    4     4     5    1
    5     4     6    1
    6     4     7    1
    7     7     8    1
    8     7     9    1
    9     7    10    1
   10    10    11    1
   11    10    12    1
   12    10    13    1
   13    13    14    1
   14    13    15    1
   15    13    16    1
   16    16    17    1
   17    16    18    1
   18    16    19    1
   19    19    20    1
   20    19    21    1
   21    19    22    1
   22    22    23    1
   23    22    24    1
   24    22    25    1
@<TRIPOS>SUBSTRUCTURE
       1 MOL1            1 RESIDUE      1      MOL     
@<SCITEGIC>MOL_PROPERTY
VConf Rank
SciTegic.value.IntegerValue
808

@<SCITEGIC>MOL_PROPERTY
Conf_Id
SciTegic.value.IntegerValue
4

@<SCITEGIC>MOL_PROPERTY
Delta U+W
SciTegic.value.DoubleValue
0.189

@<SCITEGIC>MOL_PROPERTY
U+W
SciTegic.value.DoubleValue
-51.441

@<SCITEGIC>MOL_PROPERTY
Grad RMS
SciTegic.value.DoubleValue
0.000000

@<SCITEGIC>MOL_PROPERTY
U
SciTegic.value.DoubleValue
7.701

@<SCITEGIC>MOL_PROPERTY
W
SciTegic.value.DoubleValue
-59.141

@<SCITEGIC>MOL_PROPERTY
W(PB)
SciTegic.value.DoubleValue
-61.609

@<SCITEGIC>MOL_PROPERTY
W(SA)
SciTegic.value.DoubleValue
2.467

@<SCITEGIC>MOL_PROPERTY
Valence
SciTegic.value.DoubleValue
8.550

@<SCITEGIC>MOL_PROPERTY
Coulomb
SciTegic.value.DoubleValue
-1.988

@<SCITEGIC>MOL_PROPERTY
VdW
SciTegic.value.DoubleValue
1.139

@<SCITEGIC>MOL_PROPERTY
VdW6
SciTegic.value.DoubleValue
-8.988

@<SCITEGIC>MOL_PROPERTY
VdW12
SciTegic.value.DoubleValue
10.127

@<SCITEGIC>MOL_PROPERTY
Bond
SciTegic.value.DoubleValue
0.191

@<SCITEGIC>MOL_PROPERTY
Angle
SciTegic.value.DoubleValue
2.738

@<SCITEGIC>MOL_PROPERTY
Pdih
SciTegic.value.DoubleValue
5.621

@<SCITEGIC>MOL_PROPERTY
Idih
SciTegic.value.DoubleValue
0.001

@<SCITEGIC>MOL_PROPERTY
Tether
SciTegic.value.DoubleValue
0.000

@<TRIPOS>MOLECULE
guest-8_confgen4.mol2 : confsearch ligand conformer 809
          25          24           1
SMALL
USER_CHARGES
 
@<TRIPOS>ATOM
       1    C1      16.101877   20.189731   23.831794 C.2        1 MOL1         0.6168
       2    O1      15.536319   19.811118   22.825072 O.co2      1 MOL1        -0.6703
       3    O2      15.521090   20.618692   24.809250 O.co2      1 MOL1        -0.6703
       4    C2      17.622916   20.099730   23.880401 C.3        1 MOL1        -0.1963
       5    H1      17.992210   20.919308   24.508310 H          1 MOL1         0.0750
       6    H2      17.999059   20.271824   22.865698 H          1 MOL1         0.0750
       7    C3      18.125756   18.738225   24.426932 C.3        1 MOL1        -0.1860
       8    H3      17.655325   18.554757   25.402883 H          1 MOL1         0.0752
       9    H4      17.788893   17.929649   23.763562 H          1 MOL1         0.0752
      10    C4      19.662173   18.669394   24.596749 C.3        1 MOL1        -0.1858
      11    H5      19.915074   17.723447   25.094883 H          1 MOL1         0.0752
      12    H6      19.994618   19.472857   25.268240 H          1 MOL1         0.0752
      13    C5      20.433413   18.756244   23.259273 C.3        1 MOL1        -0.1858
      14    H7      20.064122   17.983189   22.571833 H          1 MOL1         0.0752
      15    H8      20.240812   19.726841   22.786546 H          1 MOL1         0.0752
      16    C6      21.955320   18.577741   23.466974 C.3        1 MOL1        -0.1858
      17    H9      22.135738   17.632972   23.997734 H          1 MOL1         0.0752
      18    H10     22.336200   19.377346   24.116934 H          1 MOL1         0.0752
      19    C7      22.758569   18.558608   22.145520 C.3        1 MOL1        -0.1834
      20    H11     23.804493   18.310268   22.372669 H          1 MOL1         0.0752
      21    H12     22.383629   17.756404   21.494984 H          1 MOL1         0.0752
      22    C8      22.720804   19.903057   21.386824 C.3        1 MOL1        -0.2849
      23    H13     23.061757   20.726039   22.028353 H          1 MOL1         0.0764
      24    H14     23.376803   19.866003   20.507513 H          1 MOL1         0.0764
      25    H15     21.708094   20.136740   21.035399 H          1 MOL1         0.0764
@<TRIPOS>BOND
    1     1     2    1
    2     1     3    2
    3     1     4    1
    4     4     5    1
    5     4     6    1
    6     4     7    1
    7     7     8    1
    8     7     9    1
    9     7    10    1
   10    10    11    1
   11    10    12    1
   12    10    13    1
   13    13    14    1
   14    13    15    1
   15    13    16    1
   16    16    17    1
   17    16    18    1
   18    16    19    1
   19    19    20    1
   20    19    21    1
   21    19    22    1
   22    22    23    1
   23    22    24    1
   24    22    25    1
@<TRIPOS>SUBSTRUCTURE
       1 MOL1            1 RESIDUE      1      MOL     
@<SCITEGIC>MOL_PROPERTY
VConf Rank
SciTegic.value.IntegerValue
809

@<SCITEGIC>MOL_PROPERTY
Conf_Id
SciTegic.value.IntegerValue
17

@<SCITEGIC>MOL_PROPERTY
Delta U+W
SciTegic.value.DoubleValue
0.219

@<SCITEGIC>MOL_PROPERTY
U+W
SciTegic.value.DoubleValue
-51.411

@<SCITEGIC>MOL_PROPERTY
Grad RMS
SciTegic.value.DoubleValue
0.000000

@<SCITEGIC>MOL_PROPERTY
U
SciTegic.value.DoubleValue
7.701

@<SCITEGIC>MOL_PROPERTY
W
SciTegic.value.DoubleValue
-59.111

@<SCITEGIC>MOL_PROPERTY
W(PB)
SciTegic.value.DoubleValue
-61.599

@<SCITEGIC>MOL_PROPERTY
W(SA)
SciTegic.value.DoubleValue
2.488

@<SCITEGIC>MOL_PROPERTY
Valence
SciTegic.value.DoubleValue
8.550

@<SCITEGIC>MOL_PROPERTY
Coulomb
SciTegic.value.DoubleValue
-1.988

@<SCITEGIC>MOL_PROPERTY
VdW
SciTegic.value.DoubleValue
1.139

@<SCITEGIC>MOL_PROPERTY
VdW6
SciTegic.value.DoubleValue
-8.988

@<SCITEGIC>MOL_PROPERTY
VdW12
SciTegic.value.DoubleValue
10.127

@<SCITEGIC>MOL_PROPERTY
Bond
SciTegic.value.DoubleValue
0.191

@<SCITEGIC>MOL_PROPERTY
Angle
SciTegic.value.DoubleValue
2.738

@<SCITEGIC>MOL_PROPERTY
Pdih
SciTegic.value.DoubleValue
5.621

@<SCITEGIC>MOL_PROPERTY
Idih
SciTegic.value.DoubleValue
0.001

@<SCITEGIC>MOL_PROPERTY
Tether
SciTegic.value.DoubleValue
0.000

@<TRIPOS>MOLECULE
guest-8_confgen4.mol2 : confsearch ligand conformer 810
          25          24           1
SMALL
USER_CHARGES
 
@<TRIPOS>ATOM
       1    C1      18.006734   22.381934   22.347788 C.2        1 MOL1         0.6168
       2    O1      18.552737   22.938855   21.415704 O.co2      1 MOL1        -0.6703
       3    O2      17.864034   22.887694   23.443653 O.co2      1 MOL1        -0.6703
       4    C2      17.451835   20.977628   22.126555 C.3        1 MOL1        -0.1963
       5    H1      17.332158   20.814390   21.048685 H          1 MOL1         0.0750
       6    H2      16.447517   20.948497   22.565281 H          1 MOL1         0.0750
       7    C3      18.321014   19.852890   22.746549 C.3        1 MOL1        -0.1860
       8    H3      18.442267   20.048471   23.820193 H          1 MOL1         0.0752
       9    H4      17.786524   18.897736   22.655634 H          1 MOL1         0.0752
      10    C4      19.705069   19.730826   22.065193 C.3        1 MOL1        -0.1858
      11    H5      20.276282   20.657945   22.211775 H          1 MOL1         0.0752
      12    H6      19.561207   19.624693   20.981271 H          1 MOL1         0.0752
      13    C5      20.536644   18.527997   22.570570 C.3        1 MOL1        -0.1858
      14    H7      19.971073   17.598820   22.416917 H          1 MOL1         0.0752
      15    H8      21.441339   18.446788   21.952677 H          1 MOL1         0.0752
      16    C6      20.951629   18.646590   24.055412 C.3        1 MOL1        -0.1858
      17    H9      20.059273   18.652901   24.694621 H          1 MOL1         0.0752
      18    H10     21.468807   19.602309   24.216729 H          1 MOL1         0.0752
      19    C7      21.871441   17.484234   24.485087 C.3        1 MOL1        -0.1834
      20    H11     21.357614   16.526507   24.323225 H          1 MOL1         0.0752
      21    H12     22.773071   17.473052   23.857104 H          1 MOL1         0.0752
      22    C8      22.281367   17.601890   25.966924 C.3        1 MOL1        -0.2849
      23    H13     21.399801   17.583085   26.621041 H          1 MOL1         0.0764
      24    H14     22.934937   16.768265   26.254971 H          1 MOL1         0.0764
      25    H15     22.824827   18.537937   26.150901 H          1 MOL1         0.0764
@<TRIPOS>BOND
    1     1     2    1
    2     1     3    2
    3     1     4    1
    4     4     5    1
    5     4     6    1
    6     4     7    1
    7     7     8    1
    8     7     9    1
    9     7    10    1
   10    10    11    1
   11    10    12    1
   12    10    13    1
   13    13    14    1
   14    13    15    1
   15    13    16    1
   16    16    17    1
   17    16    18    1
   18    16    19    1
   19    19    20    1
   20    19    21    1
   21    19    22    1
   22    22    23    1
   23    22    24    1
   24    22    25    1
@<TRIPOS>SUBSTRUCTURE
       1 MOL1            1 RESIDUE      1      MOL     
@<SCITEGIC>MOL_PROPERTY
VConf Rank
SciTegic.value.IntegerValue
810

@<SCITEGIC>MOL_PROPERTY
Conf_Id
SciTegic.value.IntegerValue
142

@<SCITEGIC>MOL_PROPERTY
Delta U+W
SciTegic.value.DoubleValue
0.593

@<SCITEGIC>MOL_PROPERTY
U+W
SciTegic.value.DoubleValue
-51.037

@<SCITEGIC>MOL_PROPERTY
Grad RMS
SciTegic.value.DoubleValue
0.000000

@<SCITEGIC>MOL_PROPERTY
U
SciTegic.value.DoubleValue
8.903

@<SCITEGIC>MOL_PROPERTY
W
SciTegic.value.DoubleValue
-59.940

@<SCITEGIC>MOL_PROPERTY
W(PB)
SciTegic.value.DoubleValue
-62.418

@<SCITEGIC>MOL_PROPERTY
W(SA)
SciTegic.value.DoubleValue
2.478

@<SCITEGIC>MOL_PROPERTY
Valence
SciTegic.value.DoubleValue
8.305

@<SCITEGIC>MOL_PROPERTY
Coulomb
SciTegic.value.DoubleValue
-0.223

@<SCITEGIC>MOL_PROPERTY
VdW
SciTegic.value.DoubleValue
0.821

@<SCITEGIC>MOL_PROPERTY
VdW6
SciTegic.value.DoubleValue
-9.236

@<SCITEGIC>MOL_PROPERTY
VdW12
SciTegic.value.DoubleValue
10.057

@<SCITEGIC>MOL_PROPERTY
Bond
SciTegic.value.DoubleValue
0.173

@<SCITEGIC>MOL_PROPERTY
Angle
SciTegic.value.DoubleValue
2.663

@<SCITEGIC>MOL_PROPERTY
Pdih
SciTegic.value.DoubleValue
5.469

@<SCITEGIC>MOL_PROPERTY
Idih
SciTegic.value.DoubleValue
0.001

@<SCITEGIC>MOL_PROPERTY
Tether
SciTegic.value.DoubleValue
0.000

@<TRIPOS>MOLECULE
guest-8_confgen4.mol2 : confsearch ligand conformer 811
          25          24           1
SMALL
USER_CHARGES
 
@<TRIPOS>ATOM
       1    C1      21.236913   19.700079   26.753778 C.2        1 MOL1         0.6168
       2    O1      22.224266   20.035487   27.378433 O.co2      1 MOL1        -0.6703
       3    O2      20.116946   20.102529   27.000280 O.co2      1 MOL1        -0.6703
       4    C2      21.412469   18.697807   25.616426 C.3        1 MOL1        -0.1963
       5    H1      20.429124   18.294812   25.348236 H          1 MOL1         0.0750
       6    H2      21.995905   17.857175   26.009439 H          1 MOL1         0.0750
       7    C3      22.125358   19.278031   24.364524 C.3        1 MOL1        -0.1860
       8    H3      23.131971   19.609228   24.654726 H          1 MOL1         0.0752
       9    H4      22.273247   18.476963   23.628815 H          1 MOL1         0.0752
      10    C4      21.385194   20.467349   23.699451 C.3        1 MOL1        -0.1858
      11    H5      21.969798   20.806727   22.833623 H          1 MOL1         0.0752
      12    H6      21.365883   21.313301   24.400220 H          1 MOL1         0.0752
      13    C5      19.935150   20.171622   23.240927 C.3        1 MOL1        -0.1858
      14    H7      19.308134   19.939049   24.112085 H          1 MOL1         0.0752
      15    H8      19.517738   21.088870   22.803942 H          1 MOL1         0.0752
      16    C6      19.835650   19.029992   22.202925 C.3        1 MOL1        -0.1858
      17    H9      20.182062   18.088701   22.649102 H          1 MOL1         0.0752
      18    H10     20.498298   19.246806   21.354065 H          1 MOL1         0.0752
      19    C7      18.390130   18.845170   21.695234 C.3        1 MOL1        -0.1834
      20    H11     17.725077   18.630785   22.543302 H          1 MOL1         0.0752
      21    H12     18.034921   19.779568   21.239054 H          1 MOL1         0.0752
      22    C8      18.291482   17.702350   20.664737 C.3        1 MOL1        -0.2849
      23    H13     18.610619   16.748359   21.104532 H          1 MOL1         0.0764
      24    H14     17.257676   17.585189   20.314660 H          1 MOL1         0.0764
      25    H15     18.924332   17.905812   19.790977 H          1 MOL1         0.0764
@<TRIPOS>BOND
    1     1     2    1
    2     1     3    2
    3     1     4    1
    4     4     5    1
    5     4     6    1
    6     4     7    1
    7     7     8    1
    8     7     9    1
    9     7    10    1
   10    10    11    1
   11    10    12    1
   12    10    13    1
   13    13    14    1
   14    13    15    1
   15    13    16    1
   16    16    17    1
   17    16    18    1
   18    16    19    1
   19    19    20    1
   20    19    21    1
   21    19    22    1
   22    22    23    1
   23    22    24    1
   24    22    25    1
@<TRIPOS>SUBSTRUCTURE
       1 MOL1            1 RESIDUE      1      MOL     
@<SCITEGIC>MOL_PROPERTY
VConf Rank
SciTegic.value.IntegerValue
811

@<SCITEGIC>MOL_PROPERTY
Conf_Id
SciTegic.value.IntegerValue
135

@<SCITEGIC>MOL_PROPERTY
Delta U+W
SciTegic.value.DoubleValue
1.314

@<SCITEGIC>MOL_PROPERTY
U+W
SciTegic.value.DoubleValue
-50.316

@<SCITEGIC>MOL_PROPERTY
Grad RMS
SciTegic.value.DoubleValue
0.000000

@<SCITEGIC>MOL_PROPERTY
U
SciTegic.value.DoubleValue
9.773

@<SCITEGIC>MOL_PROPERTY
W
SciTegic.value.DoubleValue
-60.088

@<SCITEGIC>MOL_PROPERTY
W(PB)
SciTegic.value.DoubleValue
-62.535

@<SCITEGIC>MOL_PROPERTY
W(SA)
SciTegic.value.DoubleValue
2.447

@<SCITEGIC>MOL_PROPERTY
Valence
SciTegic.value.DoubleValue
8.741

@<SCITEGIC>MOL_PROPERTY
Coulomb
SciTegic.value.DoubleValue
0.479

@<SCITEGIC>MOL_PROPERTY
VdW
SciTegic.value.DoubleValue
0.552

@<SCITEGIC>MOL_PROPERTY
VdW6
SciTegic.value.DoubleValue
-10.627

@<SCITEGIC>MOL_PROPERTY
VdW12
SciTegic.value.DoubleValue
11.179

@<SCITEGIC>MOL_PROPERTY
Bond
SciTegic.value.DoubleValue
0.227

@<SCITEGIC>MOL_PROPERTY
Angle
SciTegic.value.DoubleValue
3.155

@<SCITEGIC>MOL_PROPERTY
Pdih
SciTegic.value.DoubleValue
5.358

@<SCITEGIC>MOL_PROPERTY
Idih
SciTegic.value.DoubleValue
0.001

@<SCITEGIC>MOL_PROPERTY
Tether
SciTegic.value.DoubleValue
0.000

@<TRIPOS>MOLECULE
guest-8_confgen4.mol2 : confsearch ligand conformer 812
          25          24           1
SMALL
USER_CHARGES
 
@<TRIPOS>ATOM
       1    C1      22.762151   20.854471   26.066615 C.2        1 MOL1         0.6168
       2    O1      22.435125   20.660527   27.220816 O.co2      1 MOL1        -0.6703
       3    O2      23.891514   21.148067   25.727334 O.co2      1 MOL1        -0.6703
       4    C2      21.702280   20.698646   24.981915 C.3        1 MOL1        -0.1963
       5    H1      21.942883   21.394583   24.169430 H          1 MOL1         0.0750
       6    H2      20.743121   21.013842   25.407163 H          1 MOL1         0.0750
       7    C3      21.612278   19.249563   24.436125 C.3        1 MOL1        -0.1860
       8    H3      22.613413   18.935954   24.109287 H          1 MOL1         0.0752
       9    H4      21.323764   18.567354   25.247686 H          1 MOL1         0.0752
      10    C4      20.634032   19.092931   23.247245 C.3        1 MOL1        -0.1858
      11    H5      20.759481   18.082040   22.839385 H          1 MOL1         0.0752
      12    H6      20.909193   19.793587   22.447279 H          1 MOL1         0.0752
      13    C5      19.150815   19.297533   23.637970 C.3        1 MOL1        -0.1858
      14    H7      18.867860   18.554311   24.395698 H          1 MOL1         0.0752
      15    H8      19.027451   20.280522   24.109128 H          1 MOL1         0.0752
      16    C6      18.163529   19.218307   22.446140 C.3        1 MOL1        -0.1858
      17    H9      18.379336   20.018738   21.725276 H          1 MOL1         0.0752
      18    H10     17.158620   19.431457   22.835498 H          1 MOL1         0.0752
      19    C7      18.120490   17.846307   21.727834 C.3        1 MOL1        -0.1834
      20    H11     18.414613   17.044436   22.419014 H          1 MOL1         0.0752
      21    H12     17.082203   17.633468   21.438071 H          1 MOL1         0.0752
      22    C8      18.991095   17.800886   20.452196 C.3        1 MOL1        -0.2849
      23    H13     20.046828   17.997236   20.671268 H          1 MOL1         0.0764
      24    H14     18.924904   16.813681   19.976957 H          1 MOL1         0.0764
      25    H15     18.652735   18.547930   19.722458 H          1 MOL1         0.0764
@<TRIPOS>BOND
    1     1     2    1
    2     1     3    2
    3     1     4    1
    4     4     5    1
    5     4     6    1
    6     4     7    1
    7     7     8    1
    8     7     9    1
    9     7    10    1
   10    10    11    1
   11    10    12    1
   12    10    13    1
   13    13    14    1
   14    13    15    1
   15    13    16    1
   16    16    17    1
   17    16    18    1
   18    16    19    1
   19    19    20    1
   20    19    21    1
   21    19    22    1
   22    22    23    1
   23    22    24    1
   24    22    25    1
@<TRIPOS>SUBSTRUCTURE
       1 MOL1            1 RESIDUE      1      MOL     
@<SCITEGIC>MOL_PROPERTY
VConf Rank
SciTegic.value.IntegerValue
812

@<SCITEGIC>MOL_PROPERTY
Conf_Id
SciTegic.value.IntegerValue
19

@<SCITEGIC>MOL_PROPERTY
Delta U+W
SciTegic.value.DoubleValue
3.222

@<SCITEGIC>MOL_PROPERTY
U+W
SciTegic.value.DoubleValue
-48.407

@<SCITEGIC>MOL_PROPERTY
Grad RMS
SciTegic.value.DoubleValue
0.000000

@<SCITEGIC>MOL_PROPERTY
U
SciTegic.value.DoubleValue
10.617

@<SCITEGIC>MOL_PROPERTY
W
SciTegic.value.DoubleValue
-59.025

@<SCITEGIC>MOL_PROPERTY
W(PB)
SciTegic.value.DoubleValue
-61.462

@<SCITEGIC>MOL_PROPERTY
W(SA)
SciTegic.value.DoubleValue
2.437

@<SCITEGIC>MOL_PROPERTY
Valence
SciTegic.value.DoubleValue
11.188

@<SCITEGIC>MOL_PROPERTY
Coulomb
SciTegic.value.DoubleValue
-1.778

@<SCITEGIC>MOL_PROPERTY
VdW
SciTegic.value.DoubleValue
1.208

@<SCITEGIC>MOL_PROPERTY
VdW6
SciTegic.value.DoubleValue
-9.786

@<SCITEGIC>MOL_PROPERTY
VdW12
SciTegic.value.DoubleValue
10.993

@<SCITEGIC>MOL_PROPERTY
Bond
SciTegic.value.DoubleValue
0.241

@<SCITEGIC>MOL_PROPERTY
Angle
SciTegic.value.DoubleValue
3.294

@<SCITEGIC>MOL_PROPERTY
Pdih
SciTegic.value.DoubleValue
7.653

@<SCITEGIC>MOL_PROPERTY
Idih
SciTegic.value.DoubleValue
0.001

@<SCITEGIC>MOL_PROPERTY
Tether
SciTegic.value.DoubleValue
0.000

@<TRIPOS>MOLECULE
guest-8_confgen4.mol2 : confsearch ligand conformer 813
          25          24           1
SMALL
USER_CHARGES
 
@<TRIPOS>ATOM
       1    C1      18.214544   16.262962   20.889385 C.2        1 MOL1         0.6168
       2    O1      18.949274   15.764388   20.059724 O.co2      1 MOL1        -0.6703
       3    O2      17.001679   16.224097   20.824437 O.co2      1 MOL1        -0.6703
       4    C2      18.849249   16.998016   22.064556 C.3        1 MOL1        -0.1963
       5    H1      19.788542   16.488752   22.306532 H          1 MOL1         0.0750
       6    H2      18.186687   16.888733   22.931398 H          1 MOL1         0.0750
       7    C3      19.098552   18.499856   21.767650 C.3        1 MOL1        -0.1860
       8    H3      19.801070   18.597957   20.928527 H          1 MOL1         0.0752
       9    H4      18.154002   18.952284   21.435112 H          1 MOL1         0.0752
      10    C4      19.623916   19.295431   22.986661 C.3        1 MOL1        -0.1858
      11    H5      18.932969   19.175432   23.832103 H          1 MOL1         0.0752
      12    H6      19.617510   20.360164   22.721535 H          1 MOL1         0.0752
      13    C5      21.054851   18.892266   23.416015 C.3        1 MOL1        -0.1858
      14    H7      21.087532   17.814578   23.618495 H          1 MOL1         0.0752
      15    H8      21.748943   19.071181   22.583655 H          1 MOL1         0.0752
      16    C6      21.568621   19.625777   24.680719 C.3        1 MOL1        -0.1858
      17    H9      22.562185   19.220572   24.916327 H          1 MOL1         0.0752
      18    H10     20.934183   19.378190   25.542748 H          1 MOL1         0.0752
      19    C7      21.698021   21.162569   24.533309 C.3        1 MOL1        -0.1834
      20    H11     22.595742   21.493354   25.073662 H          1 MOL1         0.0752
      21    H12     21.859055   21.432618   23.480515 H          1 MOL1         0.0752
      22    C8      20.486092   21.931824   25.104921 C.3        1 MOL1        -0.2849
      23    H13     20.365604   21.728469   26.176933 H          1 MOL1         0.0764
      24    H14     20.625225   23.013672   24.982228 H          1 MOL1         0.0764
      25    H15     19.552601   21.654831   24.601943 H          1 MOL1         0.0764
@<TRIPOS>BOND
    1     1     2    1
    2     1     3    2
    3     1     4    1
    4     4     5    1
    5     4     6    1
    6     4     7    1
    7     7     8    1
    8     7     9    1
    9     7    10    1
   10    10    11    1
   11    10    12    1
   12    10    13    1
   13    13    14    1
   14    13    15    1
   15    13    16    1
   16    16    17    1
   17    16    18    1
   18    16    19    1
   19    19    20    1
   20    19    21    1
   21    19    22    1
   22    22    23    1
   23    22    24    1
   24    22    25    1
@<TRIPOS>SUBSTRUCTURE
       1 MOL1            1 RESIDUE      1      MOL     
@<SCITEGIC>MOL_PROPERTY
VConf Rank
SciTegic.value.IntegerValue
813

@<SCITEGIC>MOL_PROPERTY
Conf_Id
SciTegic.value.IntegerValue
20

@<SCITEGIC>MOL_PROPERTY
Delta U+W
SciTegic.value.DoubleValue
3.224

@<SCITEGIC>MOL_PROPERTY
U+W
SciTegic.value.DoubleValue
-48.406

@<SCITEGIC>MOL_PROPERTY
Grad RMS
SciTegic.value.DoubleValue
0.000000

@<SCITEGIC>MOL_PROPERTY
U
SciTegic.value.DoubleValue
10.617

@<SCITEGIC>MOL_PROPERTY
W
SciTegic.value.DoubleValue
-59.023

@<SCITEGIC>MOL_PROPERTY
W(PB)
SciTegic.value.DoubleValue
-61.467

@<SCITEGIC>MOL_PROPERTY
W(SA)
SciTegic.value.DoubleValue
2.444

@<SCITEGIC>MOL_PROPERTY
Valence
SciTegic.value.DoubleValue
11.188

@<SCITEGIC>MOL_PROPERTY
Coulomb
SciTegic.value.DoubleValue
-1.778

@<SCITEGIC>MOL_PROPERTY
VdW
SciTegic.value.DoubleValue
1.208

@<SCITEGIC>MOL_PROPERTY
VdW6
SciTegic.value.DoubleValue
-9.786

@<SCITEGIC>MOL_PROPERTY
VdW12
SciTegic.value.DoubleValue
10.993

@<SCITEGIC>MOL_PROPERTY
Bond
SciTegic.value.DoubleValue
0.241

@<SCITEGIC>MOL_PROPERTY
Angle
SciTegic.value.DoubleValue
3.294

@<SCITEGIC>MOL_PROPERTY
Pdih
SciTegic.value.DoubleValue
7.653

@<SCITEGIC>MOL_PROPERTY
Idih
SciTegic.value.DoubleValue
0.001

@<SCITEGIC>MOL_PROPERTY
Tether
SciTegic.value.DoubleValue
0.000

@<TRIPOS>MOLECULE
guest-8_confgen4.mol2 : confsearch ligand conformer 814
          25          24           1
SMALL
USER_CHARGES
 
@<TRIPOS>ATOM
       1    C1      21.365782   22.080885   23.160046 C.2        1 MOL1         0.6168
       2    O1      21.683707   22.459378   24.270592 O.co2      1 MOL1        -0.6703
       3    O2      20.411092   22.520284   22.549543 O.co2      1 MOL1        -0.6703
       4    C2      22.249514   21.046021   22.466169 C.3        1 MOL1        -0.1963
       5    H1      23.229512   21.518306   22.331939 H          1 MOL1         0.0750
       6    H2      21.853090   20.854799   21.461644 H          1 MOL1         0.0750
       7    C3      22.433964   19.708037   23.236159 C.3        1 MOL1        -0.1860
       8    H3      23.338494   19.217594   22.851817 H          1 MOL1         0.0752
       9    H4      22.628825   19.911015   24.298432 H          1 MOL1         0.0752
      10    C4      21.258984   18.708981   23.093342 C.3        1 MOL1        -0.1858
      11    H5      21.564039   17.755505   23.545898 H          1 MOL1         0.0752
      12    H6      21.077224   18.501538   22.029968 H          1 MOL1         0.0752
      13    C5      19.947359   19.178852   23.762288 C.3        1 MOL1        -0.1858
      14    H7      20.150548   19.485757   24.797454 H          1 MOL1         0.0752
      15    H8      19.555519   20.058892   23.236934 H          1 MOL1         0.0752
      16    C6      18.872238   18.070435   23.752561 C.3        1 MOL1        -0.1858
      17    H9      19.250482   17.186206   24.283633 H          1 MOL1         0.0752
      18    H10     18.673922   17.761480   22.717066 H          1 MOL1         0.0752
      19    C7      17.558354   18.542395   24.410084 C.3        1 MOL1        -0.1834
      20    H11     17.753207   18.851443   25.446414 H          1 MOL1         0.0752
      21    H12     17.175981   19.426008   23.880345 H          1 MOL1         0.0752
      22    C8      16.486604   17.433844   24.398433 C.3        1 MOL1        -0.2849
      23    H13     16.831035   16.548715   24.949146 H          1 MOL1         0.0764
      24    H14     15.559921   17.786672   24.869425 H          1 MOL1         0.0764
      25    H15     16.249416   17.127682   23.371116 H          1 MOL1         0.0764
@<TRIPOS>BOND
    1     1     2    1
    2     1     3    2
    3     1     4    1
    4     4     5    1
    5     4     6    1
    6     4     7    1
    7     7     8    1
    8     7     9    1
    9     7    10    1
   10    10    11    1
   11    10    12    1
   12    10    13    1
   13    13    14    1
   14    13    15    1
   15    13    16    1
   16    16    17    1
   17    16    18    1
   18    16    19    1
   19    19    20    1
   20    19    21    1
   21    19    22    1
   22    22    23    1
   23    22    24    1
   24    22    25    1
@<TRIPOS>SUBSTRUCTURE
       1 MOL1            1 RESIDUE      1      MOL     
@<SCITEGIC>MOL_PROPERTY
VConf Rank
SciTegic.value.IntegerValue
814

@<SCITEGIC>MOL_PROPERTY
Conf_Id
SciTegic.value.IntegerValue
24

@<SCITEGIC>MOL_PROPERTY
Delta U+W
SciTegic.value.DoubleValue
1.784

@<SCITEGIC>MOL_PROPERTY
U+W
SciTegic.value.DoubleValue
-49.846

@<SCITEGIC>MOL_PROPERTY
Grad RMS
SciTegic.value.DoubleValue
0.000000

@<SCITEGIC>MOL_PROPERTY
U
SciTegic.value.DoubleValue
10.904

@<SCITEGIC>MOL_PROPERTY
W
SciTegic.value.DoubleValue
-60.749

@<SCITEGIC>MOL_PROPERTY
W(PB)
SciTegic.value.DoubleValue
-63.220

@<SCITEGIC>MOL_PROPERTY
W(SA)
SciTegic.value.DoubleValue
2.471

@<SCITEGIC>MOL_PROPERTY
Valence
SciTegic.value.DoubleValue
9.445

@<SCITEGIC>MOL_PROPERTY
Coulomb
SciTegic.value.DoubleValue
0.780

@<SCITEGIC>MOL_PROPERTY
VdW
SciTegic.value.DoubleValue
0.679

@<SCITEGIC>MOL_PROPERTY
VdW6
SciTegic.value.DoubleValue
-10.008

@<SCITEGIC>MOL_PROPERTY
VdW12
SciTegic.value.DoubleValue
10.687

@<SCITEGIC>MOL_PROPERTY
Bond
SciTegic.value.DoubleValue
0.201

@<SCITEGIC>MOL_PROPERTY
Angle
SciTegic.value.DoubleValue
3.198

@<SCITEGIC>MOL_PROPERTY
Pdih
SciTegic.value.DoubleValue
6.039

@<SCITEGIC>MOL_PROPERTY
Idih
SciTegic.value.DoubleValue
0.006

@<SCITEGIC>MOL_PROPERTY
Tether
SciTegic.value.DoubleValue
0.000

@<TRIPOS>MOLECULE
guest-8_confgen4.mol2 : confsearch ligand conformer 815
          25          24           1
SMALL
USER_CHARGES
 
@<TRIPOS>ATOM
       1    C1      18.117229   20.689935   25.377301 C.2        1 MOL1         0.6168
       2    O1      18.458195   20.511186   26.530312 O.co2      1 MOL1        -0.6703
       3    O2      18.370034   21.701214   24.752305 O.co2      1 MOL1        -0.6703
       4    C2      17.269053   19.616742   24.697415 C.3        1 MOL1        -0.1963
       5    H1      17.007597   19.955627   23.687670 H          1 MOL1         0.0750
       6    H2      16.331362   19.561563   25.262355 H          1 MOL1         0.0750
       7    C3      17.910007   18.201414   24.641492 C.3        1 MOL1        -0.1860
       8    H3      18.357106   17.954038   25.614375 H          1 MOL1         0.0752
       9    H4      17.105109   17.470656   24.484770 H          1 MOL1         0.0752
      10    C4      18.952184   18.004347   23.512724 C.3        1 MOL1        -0.1858
      11    H5      18.495408   18.241643   22.542219 H          1 MOL1         0.0752
      12    H6      19.218998   16.939247   23.475915 H          1 MOL1         0.0752
      13    C5      20.243534   18.833603   23.695414 C.3        1 MOL1        -0.1858
      14    H7      20.015913   19.903023   23.603013 H          1 MOL1         0.0752
      15    H8      20.643466   18.675655   24.706430 H          1 MOL1         0.0752
      16    C6      21.316191   18.458151   22.649941 C.3        1 MOL1        -0.1858
      17    H9      20.912830   18.612083   21.639676 H          1 MOL1         0.0752
      18    H10     21.558615   17.390287   22.738613 H          1 MOL1         0.0752
      19    C7      22.601828   19.293680   22.824298 C.3        1 MOL1        -0.1834
      20    H11     22.363505   20.362665   22.734430 H          1 MOL1         0.0752
      21    H12     23.008248   19.141359   23.833792 H          1 MOL1         0.0752
      22    C8      23.670848   18.916938   21.778865 C.3        1 MOL1        -0.2849
      23    H13     23.301381   19.089708   20.759543 H          1 MOL1         0.0764
      24    H14     24.577271   19.520431   21.917636 H          1 MOL1         0.0764
      25    H15     23.951095   17.859105   21.867312 H          1 MOL1         0.0764
@<TRIPOS>BOND
    1     1     2    1
    2     1     3    2
    3     1     4    1
    4     4     5    1
    5     4     6    1
    6     4     7    1
    7     7     8    1
    8     7     9    1
    9     7    10    1
   10    10    11    1
   11    10    12    1
   12    10    13    1
   13    13    14    1
   14    13    15    1
   15    13    16    1
   16    16    17    1
   17    16    18    1
   18    16    19    1
   19    19    20    1
   20    19    21    1
   21    19    22    1
   22    22    23    1
   23    22    24    1
   24    22    25    1
@<TRIPOS>SUBSTRUCTURE
       1 MOL1            1 RESIDUE      1      MOL     
@<SCITEGIC>MOL_PROPERTY
VConf Rank
SciTegic.value.IntegerValue
815

@<SCITEGIC>MOL_PROPERTY
Conf_Id
SciTegic.value.IntegerValue
9

@<SCITEGIC>MOL_PROPERTY
Delta U+W
SciTegic.value.DoubleValue
1.764

@<SCITEGIC>MOL_PROPERTY
U+W
SciTegic.value.DoubleValue
-49.865

@<SCITEGIC>MOL_PROPERTY
Grad RMS
SciTegic.value.DoubleValue
0.000000

@<SCITEGIC>MOL_PROPERTY
U
SciTegic.value.DoubleValue
10.902

@<SCITEGIC>MOL_PROPERTY
W
SciTegic.value.DoubleValue
-60.768

@<SCITEGIC>MOL_PROPERTY
W(PB)
SciTegic.value.DoubleValue
-63.223

@<SCITEGIC>MOL_PROPERTY
W(SA)
SciTegic.value.DoubleValue
2.456

@<SCITEGIC>MOL_PROPERTY
Valence
SciTegic.value.DoubleValue
9.445

@<SCITEGIC>MOL_PROPERTY
Coulomb
SciTegic.value.DoubleValue
0.778

@<SCITEGIC>MOL_PROPERTY
VdW
SciTegic.value.DoubleValue
0.679

@<SCITEGIC>MOL_PROPERTY
VdW6
SciTegic.value.DoubleValue
-10.007

@<SCITEGIC>MOL_PROPERTY
VdW12
SciTegic.value.DoubleValue
10.687

@<SCITEGIC>MOL_PROPERTY
Bond
SciTegic.value.DoubleValue
0.201

@<SCITEGIC>MOL_PROPERTY
Angle
SciTegic.value.DoubleValue
3.198

@<SCITEGIC>MOL_PROPERTY
Pdih
SciTegic.value.DoubleValue
6.040

@<SCITEGIC>MOL_PROPERTY
Idih
SciTegic.value.DoubleValue
0.006

@<SCITEGIC>MOL_PROPERTY
Tether
SciTegic.value.DoubleValue
0.000

@<TRIPOS>MOLECULE
guest-8_confgen4.mol2 : confsearch ligand conformer 816
          25          24           1
SMALL
USER_CHARGES
 
@<TRIPOS>ATOM
       1    C1      21.880394   16.587286   21.534221 C.2        1 MOL1         0.6168
       2    O1      22.918458   17.205537   21.663808 O.co2      1 MOL1        -0.6703
       3    O2      21.828969   15.421235   21.195800 O.co2      1 MOL1        -0.6703
       4    C2      20.570780   17.308205   21.832389 C.3        1 MOL1        -0.1963
       5    H1      19.800981   16.899345   21.167183 H          1 MOL1         0.0750
       6    H2      20.699331   18.360802   21.562246 H          1 MOL1         0.0750
       7    C3      20.128218   17.159832   23.312177 C.3        1 MOL1        -0.1860
       8    H3      20.008687   16.088020   23.522812 H          1 MOL1         0.0752
       9    H4      20.922895   17.515900   23.982341 H          1 MOL1         0.0752
      10    C4      18.793440   17.879302   23.633149 C.3        1 MOL1        -0.1858
      11    H5      18.250072   17.276027   24.373236 H          1 MOL1         0.0752
      12    H6      18.151374   17.907444   22.742195 H          1 MOL1         0.0752
      13    C5      18.952129   19.303957   24.221313 C.3        1 MOL1        -0.1858
      14    H7      17.954976   19.680379   24.486909 H          1 MOL1         0.0752
      15    H8      19.519511   19.242877   25.159275 H          1 MOL1         0.0752
      16    C6      19.631344   20.313555   23.266038 C.3        1 MOL1        -0.1858
      17    H9      19.151061   20.254597   22.280012 H          1 MOL1         0.0752
      18    H10     20.684941   20.039458   23.124430 H          1 MOL1         0.0752
      19    C7      19.554352   21.775139   23.765415 C.3        1 MOL1        -0.1834
      20    H11     19.967794   22.435110   22.990388 H          1 MOL1         0.0752
      21    H12     18.503404   22.068601   23.894336 H          1 MOL1         0.0752
      22    C8      20.324455   22.010259   25.082983 C.3        1 MOL1        -0.2849
      23    H13     21.372994   21.700057   24.985595 H          1 MOL1         0.0764
      24    H14     20.310077   23.074401   25.351771 H          1 MOL1         0.0764
      25    H15     19.875717   21.451287   25.913680 H          1 MOL1         0.0764
@<TRIPOS>BOND
    1     1     2    1
    2     1     3    2
    3     1     4    1
    4     4     5    1
    5     4     6    1
    6     4     7    1
    7     7     8    1
    8     7     9    1
    9     7    10    1
   10    10    11    1
   11    10    12    1
   12    10    13    1
   13    13    14    1
   14    13    15    1
   15    13    16    1
   16    16    17    1
   17    16    18    1
   18    16    19    1
   19    19    20    1
   20    19    21    1
   21    19    22    1
   22    22    23    1
   23    22    24    1
   24    22    25    1
@<TRIPOS>SUBSTRUCTURE
       1 MOL1            1 RESIDUE      1      MOL     
@<SCITEGIC>MOL_PROPERTY
VConf Rank
SciTegic.value.IntegerValue
816

@<SCITEGIC>MOL_PROPERTY
Conf_Id
SciTegic.value.IntegerValue
89

@<SCITEGIC>MOL_PROPERTY
Delta U+W
SciTegic.value.DoubleValue
2.903

@<SCITEGIC>MOL_PROPERTY
U+W
SciTegic.value.DoubleValue
-48.726

@<SCITEGIC>MOL_PROPERTY
Grad RMS
SciTegic.value.DoubleValue
0.000000

@<SCITEGIC>MOL_PROPERTY
U
SciTegic.value.DoubleValue
10.996

@<SCITEGIC>MOL_PROPERTY
W
SciTegic.value.DoubleValue
-59.723

@<SCITEGIC>MOL_PROPERTY
W(PB)
SciTegic.value.DoubleValue
-62.151

@<SCITEGIC>MOL_PROPERTY
W(SA)
SciTegic.value.DoubleValue
2.428

@<SCITEGIC>MOL_PROPERTY
Valence
SciTegic.value.DoubleValue
10.985

@<SCITEGIC>MOL_PROPERTY
Coulomb
SciTegic.value.DoubleValue
-0.995

@<SCITEGIC>MOL_PROPERTY
VdW
SciTegic.value.DoubleValue
1.006

@<SCITEGIC>MOL_PROPERTY
VdW6
SciTegic.value.DoubleValue
-10.062

@<SCITEGIC>MOL_PROPERTY
VdW12
SciTegic.value.DoubleValue
11.069

@<SCITEGIC>MOL_PROPERTY
Bond
SciTegic.value.DoubleValue
0.238

@<SCITEGIC>MOL_PROPERTY
Angle
SciTegic.value.DoubleValue
3.202

@<SCITEGIC>MOL_PROPERTY
Pdih
SciTegic.value.DoubleValue
7.544

@<SCITEGIC>MOL_PROPERTY
Idih
SciTegic.value.DoubleValue
0.001

@<SCITEGIC>MOL_PROPERTY
Tether
SciTegic.value.DoubleValue
0.000

@<TRIPOS>MOLECULE
guest-8_confgen4.mol2 : confsearch ligand conformer 817
          25          24           1
SMALL
USER_CHARGES
 
@<TRIPOS>ATOM
       1    C1      22.846240   16.931160   23.628308 C.2        1 MOL1         0.6168
       2    O1      23.708032   17.731813   23.322483 O.co2      1 MOL1        -0.6703
       3    O2      22.787252   16.392493   24.716410 O.co2      1 MOL1        -0.6703
       4    C2      21.822744   16.534362   22.566114 C.3        1 MOL1        -0.1963
       5    H1      21.987476   15.469832   22.363345 H          1 MOL1         0.0750
       6    H2      22.048242   17.069283   21.635641 H          1 MOL1         0.0750
       7    C3      20.335135   16.748599   22.964489 C.3        1 MOL1        -0.1860
       8    H3      19.718533   16.098919   22.328752 H          1 MOL1         0.0752
       9    H4      20.169557   16.406291   23.995500 H          1 MOL1         0.0752
      10    C4      19.816991   18.198862   22.796569 C.3        1 MOL1        -0.1858
      11    H5      18.729771   18.181940   22.942118 H          1 MOL1         0.0752
      12    H6      19.985313   18.534002   21.764144 H          1 MOL1         0.0752
      13    C5      20.449317   19.211793   23.781718 C.3        1 MOL1        -0.1858
      14    H7      20.336936   18.850222   24.812934 H          1 MOL1         0.0752
      15    H8      21.527172   19.277429   23.589993 H          1 MOL1         0.0752
      16    C6      19.861735   20.638695   23.663087 C.3        1 MOL1        -0.1858
      17    H9      19.945215   20.986328   22.624334 H          1 MOL1         0.0752
      18    H10     20.478684   21.317613   24.267526 H          1 MOL1         0.0752
      19    C7      18.393822   20.747054   24.135241 C.3        1 MOL1        -0.1834
      20    H11     17.742031   20.140413   23.493458 H          1 MOL1         0.0752
      21    H12     18.302186   20.347464   25.154612 H          1 MOL1         0.0752
      22    C8      17.899125   22.207473   24.111831 C.3        1 MOL1        -0.2849
      23    H13     17.954578   22.624291   23.097654 H          1 MOL1         0.0764
      24    H14     16.855358   22.267686   24.446460 H          1 MOL1         0.0764
      25    H15     18.504451   22.838576   24.775633 H          1 MOL1         0.0764
@<TRIPOS>BOND
    1     1     2    1
    2     1     3    2
    3     1     4    1
    4     4     5    1
    5     4     6    1
    6     4     7    1
    7     7     8    1
    8     7     9    1
    9     7    10    1
   10    10    11    1
   11    10    12    1
   12    10    13    1
   13    13    14    1
   14    13    15    1
   15    13    16    1
   16    16    17    1
   17    16    18    1
   18    16    19    1
   19    19    20    1
   20    19    21    1
   21    19    22    1
   22    22    23    1
   23    22    24    1
   24    22    25    1
@<TRIPOS>SUBSTRUCTURE
       1 MOL1            1 RESIDUE      1      MOL     
@<SCITEGIC>MOL_PROPERTY
VConf Rank
SciTegic.value.IntegerValue
817

@<SCITEGIC>MOL_PROPERTY
Conf_Id
SciTegic.value.IntegerValue
114

@<SCITEGIC>MOL_PROPERTY
Delta U+W
SciTegic.value.DoubleValue
2.758

@<SCITEGIC>MOL_PROPERTY
U+W
SciTegic.value.DoubleValue
-48.871

@<SCITEGIC>MOL_PROPERTY
Grad RMS
SciTegic.value.DoubleValue
0.000000

@<SCITEGIC>MOL_PROPERTY
U
SciTegic.value.DoubleValue
11.422

@<SCITEGIC>MOL_PROPERTY
W
SciTegic.value.DoubleValue
-60.293

@<SCITEGIC>MOL_PROPERTY
W(PB)
SciTegic.value.DoubleValue
-62.719

@<SCITEGIC>MOL_PROPERTY
W(SA)
SciTegic.value.DoubleValue
2.425

@<SCITEGIC>MOL_PROPERTY
Valence
SciTegic.value.DoubleValue
10.135

@<SCITEGIC>MOL_PROPERTY
Coulomb
SciTegic.value.DoubleValue
0.369

@<SCITEGIC>MOL_PROPERTY
VdW
SciTegic.value.DoubleValue
0.918

@<SCITEGIC>MOL_PROPERTY
VdW6
SciTegic.value.DoubleValue
-10.482

@<SCITEGIC>MOL_PROPERTY
VdW12
SciTegic.value.DoubleValue
11.400

@<SCITEGIC>MOL_PROPERTY
Bond
SciTegic.value.DoubleValue
0.245

@<SCITEGIC>MOL_PROPERTY
Angle
SciTegic.value.DoubleValue
3.539

@<SCITEGIC>MOL_PROPERTY
Pdih
SciTegic.value.DoubleValue
6.346

@<SCITEGIC>MOL_PROPERTY
Idih
SciTegic.value.DoubleValue
0.006

@<SCITEGIC>MOL_PROPERTY
Tether
SciTegic.value.DoubleValue
0.000

@<TRIPOS>MOLECULE
guest-8_confgen4.mol2 : confsearch ligand conformer 818
          25          24           1
SMALL
USER_CHARGES
 
@<TRIPOS>ATOM
       1    C1      22.867311   16.542342   24.439641 C.2        1 MOL1         0.6168
       2    O1      23.565106   16.377323   23.458359 O.co2      1 MOL1        -0.6703
       3    O2      23.281531   16.985001   25.493003 O.co2      1 MOL1        -0.6703
       4    C2      21.394080   16.153704   24.353032 C.3        1 MOL1        -0.1963
       5    H1      21.148258   15.593326   25.262717 H          1 MOL1         0.0750
       6    H2      21.263000   15.464125   23.510372 H          1 MOL1         0.0750
       7    C3      20.431933   17.361823   24.212680 C.3        1 MOL1        -0.1860
       8    H3      19.396422   17.003714   24.288344 H          1 MOL1         0.0752
       9    H4      20.594768   18.044736   25.056743 H          1 MOL1         0.0752
      10    C4      20.616471   18.112371   22.871830 C.3        1 MOL1        -0.1858
      11    H5      20.542264   17.390329   22.047214 H          1 MOL1         0.0752
      12    H6      21.627570   18.539121   22.818325 H          1 MOL1         0.0752
      13    C5      19.572113   19.230339   22.639134 C.3        1 MOL1        -0.1858
      14    H7      19.693045   19.598208   21.612376 H          1 MOL1         0.0752
      15    H8      18.560158   18.807743   22.701449 H          1 MOL1         0.0752
      16    C6      19.706279   20.414627   23.628075 C.3        1 MOL1        -0.1858
      17    H9      20.719571   20.834508   23.567910 H          1 MOL1         0.0752
      18    H10     19.581127   20.049016   24.655076 H          1 MOL1         0.0752
      19    C7      18.666899   21.535028   23.389690 C.3        1 MOL1        -0.1834
      20    H11     17.652170   21.116325   23.437657 H          1 MOL1         0.0752
      21    H12     18.740788   22.262783   24.209539 H          1 MOL1         0.0752
      22    C8      18.860709   22.278109   22.049848 C.3        1 MOL1        -0.2849
      23    H13     18.162002   23.121346   21.974597 H          1 MOL1         0.0764
      24    H14     19.880358   22.675892   21.965003 H          1 MOL1         0.0764
      25    H15     18.675883   21.617682   21.193645 H          1 MOL1         0.0764
@<TRIPOS>BOND
    1     1     2    1
    2     1     3    2
    3     1     4    1
    4     4     5    1
    5     4     6    1
    6     4     7    1
    7     7     8    1
    8     7     9    1
    9     7    10    1
   10    10    11    1
   11    10    12    1
   12    10    13    1
   13    13    14    1
   14    13    15    1
   15    13    16    1
   16    16    17    1
   17    16    18    1
   18    16    19    1
   19    19    20    1
   20    19    21    1
   21    19    22    1
   22    22    23    1
   23    22    24    1
   24    22    25    1
@<TRIPOS>SUBSTRUCTURE
       1 MOL1            1 RESIDUE      1      MOL     
@<SCITEGIC>MOL_PROPERTY
VConf Rank
SciTegic.value.IntegerValue
818

@<SCITEGIC>MOL_PROPERTY
Conf_Id
SciTegic.value.IntegerValue
87

@<SCITEGIC>MOL_PROPERTY
Delta U+W
SciTegic.value.DoubleValue
1.453

@<SCITEGIC>MOL_PROPERTY
U+W
SciTegic.value.DoubleValue
-50.176

@<SCITEGIC>MOL_PROPERTY
Grad RMS
SciTegic.value.DoubleValue
0.000000

@<SCITEGIC>MOL_PROPERTY
U
SciTegic.value.DoubleValue
9.763

@<SCITEGIC>MOL_PROPERTY
W
SciTegic.value.DoubleValue
-59.940

@<SCITEGIC>MOL_PROPERTY
W(PB)
SciTegic.value.DoubleValue
-62.392

@<SCITEGIC>MOL_PROPERTY
W(SA)
SciTegic.value.DoubleValue
2.452

@<SCITEGIC>MOL_PROPERTY
Valence
SciTegic.value.DoubleValue
8.883

@<SCITEGIC>MOL_PROPERTY
Coulomb
SciTegic.value.DoubleValue
-0.122

@<SCITEGIC>MOL_PROPERTY
VdW
SciTegic.value.DoubleValue
1.003

@<SCITEGIC>MOL_PROPERTY
VdW6
SciTegic.value.DoubleValue
-9.782

@<SCITEGIC>MOL_PROPERTY
VdW12
SciTegic.value.DoubleValue
10.785

@<SCITEGIC>MOL_PROPERTY
Bond
SciTegic.value.DoubleValue
0.212

@<SCITEGIC>MOL_PROPERTY
Angle
SciTegic.value.DoubleValue
2.940

@<SCITEGIC>MOL_PROPERTY
Pdih
SciTegic.value.DoubleValue
5.730

@<SCITEGIC>MOL_PROPERTY
Idih
SciTegic.value.DoubleValue
0.001

@<SCITEGIC>MOL_PROPERTY
Tether
SciTegic.value.DoubleValue
0.000

@<TRIPOS>MOLECULE
guest-8_confgen4.mol2 : confsearch ligand conformer 819
          25          24           1
SMALL
USER_CHARGES
 
@<TRIPOS>ATOM
       1    C1      17.998810   22.474559   23.523272 C.2        1 MOL1         0.6168
       2    O1      18.478751   23.113612   22.607874 O.co2      1 MOL1        -0.6703
       3    O2      16.838879   22.567215   23.873583 O.co2      1 MOL1        -0.6703
       4    C2      18.896975   21.488353   24.261421 C.3        1 MOL1        -0.1963
       5    H1      18.569015   21.445733   25.306939 H          1 MOL1         0.0750
       6    H2      19.917969   21.888516   24.257492 H          1 MOL1         0.0750
       7    C3      18.876611   20.071999   23.635741 C.3        1 MOL1        -0.1860
       8    H3      17.847267   19.687833   23.638732 H          1 MOL1         0.0752
       9    H4      19.189143   20.143295   22.585490 H          1 MOL1         0.0752
      10    C4      19.800424   19.094563   24.398507 C.3        1 MOL1        -0.1858
      11    H5      19.516904   19.089512   25.459739 H          1 MOL1         0.0752
      12    H6      20.836158   19.456948   24.361906 H          1 MOL1         0.0752
      13    C5      19.731554   17.640416   23.868364 C.3        1 MOL1        -0.1858
      14    H7      20.366670   17.003221   24.497641 H          1 MOL1         0.0752
      15    H8      18.708570   17.263188   24.001311 H          1 MOL1         0.0752
      16    C6      20.137096   17.456977   22.381857 C.3        1 MOL1        -0.1858
      17    H9      19.402977   17.961311   21.739998 H          1 MOL1         0.0752
      18    H10     20.067586   16.390208   22.129545 H          1 MOL1         0.0752
      19    C7      21.554300   17.963877   22.017555 C.3        1 MOL1        -0.1834
      20    H11     21.717476   17.805263   20.942789 H          1 MOL1         0.0752
      21    H12     21.620530   19.048185   22.177942 H          1 MOL1         0.0752
      22    C8      22.677480   17.251087   22.801416 C.3        1 MOL1        -0.2849
      23    H13     22.619904   16.163042   22.668084 H          1 MOL1         0.0764
      24    H14     23.662514   17.583904   22.449750 H          1 MOL1         0.0764
      25    H15     22.615446   17.470554   23.874697 H          1 MOL1         0.0764
@<TRIPOS>BOND
    1     1     2    1
    2     1     3    2
    3     1     4    1
    4     4     5    1
    5     4     6    1
    6     4     7    1
    7     7     8    1
    8     7     9    1
    9     7    10    1
   10    10    11    1
   11    10    12    1
   12    10    13    1
   13    13    14    1
   14    13    15    1
   15    13    16    1
   16    16    17    1
   17    16    18    1
   18    16    19    1
   19    19    20    1
   20    19    21    1
   21    19    22    1
   22    22    23    1
   23    22    24    1
   24    22    25    1
@<TRIPOS>SUBSTRUCTURE
       1 MOL1            1 RESIDUE      1      MOL     
@<SCITEGIC>MOL_PROPERTY
VConf Rank
SciTegic.value.IntegerValue
819

@<SCITEGIC>MOL_PROPERTY
Conf_Id
SciTegic.value.IntegerValue
29

@<SCITEGIC>MOL_PROPERTY
Delta U+W
SciTegic.value.DoubleValue
0.850

@<SCITEGIC>MOL_PROPERTY
U+W
SciTegic.value.DoubleValue
-50.780

@<SCITEGIC>MOL_PROPERTY
Grad RMS
SciTegic.value.DoubleValue
0.000000

@<SCITEGIC>MOL_PROPERTY
U
SciTegic.value.DoubleValue
8.646

@<SCITEGIC>MOL_PROPERTY
W
SciTegic.value.DoubleValue
-59.426

@<SCITEGIC>MOL_PROPERTY
W(PB)
SciTegic.value.DoubleValue
-61.868

@<SCITEGIC>MOL_PROPERTY
W(SA)
SciTegic.value.DoubleValue
2.442

@<SCITEGIC>MOL_PROPERTY
Valence
SciTegic.value.DoubleValue
8.924

@<SCITEGIC>MOL_PROPERTY
Coulomb
SciTegic.value.DoubleValue
-1.171

@<SCITEGIC>MOL_PROPERTY
VdW
SciTegic.value.DoubleValue
0.894

@<SCITEGIC>MOL_PROPERTY
VdW6
SciTegic.value.DoubleValue
-10.223

@<SCITEGIC>MOL_PROPERTY
VdW12
SciTegic.value.DoubleValue
11.117

@<SCITEGIC>MOL_PROPERTY
Bond
SciTegic.value.DoubleValue
0.231

@<SCITEGIC>MOL_PROPERTY
Angle
SciTegic.value.DoubleValue
3.232

@<SCITEGIC>MOL_PROPERTY
Pdih
SciTegic.value.DoubleValue
5.461

@<SCITEGIC>MOL_PROPERTY
Idih
SciTegic.value.DoubleValue
0.001

@<SCITEGIC>MOL_PROPERTY
Tether
SciTegic.value.DoubleValue
0.000

@<TRIPOS>MOLECULE
guest-8_confgen4.mol2 : confsearch ligand conformer 820
          25          24           1
SMALL
USER_CHARGES
 
@<TRIPOS>ATOM
       1    C1      18.139364   16.746926   25.856469 C.2        1 MOL1         0.6168
       2    O1      18.886787   16.761037   26.814512 O.co2      1 MOL1        -0.6703
       3    O2      17.472241   15.782705   25.537149 O.co2      1 MOL1        -0.6703
       4    C2      18.047731   18.002256   24.996282 C.3        1 MOL1        -0.1963
       5    H1      18.201190   18.872358   25.645855 H          1 MOL1         0.0750
       6    H2      17.027748   18.069376   24.599281 H          1 MOL1         0.0750
       7    C3      19.075063   18.013592   23.837655 C.3        1 MOL1        -0.1860
       8    H3      20.085555   17.925468   24.258280 H          1 MOL1         0.0752
       9    H4      18.914768   17.132765   23.200795 H          1 MOL1         0.0752
      10    C4      18.965543   19.299694   22.986431 C.3        1 MOL1        -0.1858
      11    H5      19.165108   20.178548   23.613484 H          1 MOL1         0.0752
      12    H6      17.931267   19.406823   22.632289 H          1 MOL1         0.0752
      13    C5      19.905807   19.306077   21.755089 C.3        1 MOL1        -0.1858
      14    H7      19.627647   18.475043   21.092910 H          1 MOL1         0.0752
      15    H8      19.724489   20.220626   21.175344 H          1 MOL1         0.0752
      16    C6      21.419882   19.196766   22.076730 C.3        1 MOL1        -0.1858
      17    H9      21.981173   19.231478   21.133207 H          1 MOL1         0.0752
      18    H10     21.629133   18.209706   22.509387 H          1 MOL1         0.0752
      19    C7      21.972887   20.288207   23.025980 C.3        1 MOL1        -0.1834
      20    H11     21.487839   20.215524   24.008467 H          1 MOL1         0.0752
      21    H12     23.040213   20.093859   23.199033 H          1 MOL1         0.0752
      22    C8      21.812051   21.719453   22.469471 C.3        1 MOL1        -0.2849
      23    H13     20.753908   21.995846   22.380667 H          1 MOL1         0.0764
      24    H14     22.291622   22.447354   23.136480 H          1 MOL1         0.0764
      25    H15     22.276404   21.810165   21.478975 H          1 MOL1         0.0764
@<TRIPOS>BOND
    1     1     2    1
    2     1     3    2
    3     1     4    1
    4     4     5    1
    5     4     6    1
    6     4     7    1
    7     7     8    1
    8     7     9    1
    9     7    10    1
   10    10    11    1
   11    10    12    1
   12    10    13    1
   13    13    14    1
   14    13    15    1
   15    13    16    1
   16    16    17    1
   17    16    18    1
   18    16    19    1
   19    19    20    1
   20    19    21    1
   21    19    22    1
   22    22    23    1
   23    22    24    1
   24    22    25    1
@<TRIPOS>SUBSTRUCTURE
       1 MOL1            1 RESIDUE      1      MOL     
@<SCITEGIC>MOL_PROPERTY
VConf Rank
SciTegic.value.IntegerValue
820

@<SCITEGIC>MOL_PROPERTY
Conf_Id
SciTegic.value.IntegerValue
30

@<SCITEGIC>MOL_PROPERTY
Delta U+W
SciTegic.value.DoubleValue
0.843

@<SCITEGIC>MOL_PROPERTY
U+W
SciTegic.value.DoubleValue
-50.787

@<SCITEGIC>MOL_PROPERTY
Grad RMS
SciTegic.value.DoubleValue
0.000000

@<SCITEGIC>MOL_PROPERTY
U
SciTegic.value.DoubleValue
8.647

@<SCITEGIC>MOL_PROPERTY
W
SciTegic.value.DoubleValue
-59.434

@<SCITEGIC>MOL_PROPERTY
W(PB)
SciTegic.value.DoubleValue
-61.861

@<SCITEGIC>MOL_PROPERTY
W(SA)
SciTegic.value.DoubleValue
2.428

@<SCITEGIC>MOL_PROPERTY
Valence
SciTegic.value.DoubleValue
8.924

@<SCITEGIC>MOL_PROPERTY
Coulomb
SciTegic.value.DoubleValue
-1.170

@<SCITEGIC>MOL_PROPERTY
VdW
SciTegic.value.DoubleValue
0.894

@<SCITEGIC>MOL_PROPERTY
VdW6
SciTegic.value.DoubleValue
-10.224

@<SCITEGIC>MOL_PROPERTY
VdW12
SciTegic.value.DoubleValue
11.118

@<SCITEGIC>MOL_PROPERTY
Bond
SciTegic.value.DoubleValue
0.231

@<SCITEGIC>MOL_PROPERTY
Angle
SciTegic.value.DoubleValue
3.232

@<SCITEGIC>MOL_PROPERTY
Pdih
SciTegic.value.DoubleValue
5.460

@<SCITEGIC>MOL_PROPERTY
Idih
SciTegic.value.DoubleValue
0.000

@<SCITEGIC>MOL_PROPERTY
Tether
SciTegic.value.DoubleValue
0.000

@<TRIPOS>MOLECULE
guest-8_confgen4.mol2 : confsearch ligand conformer 821
          25          24           1
SMALL
USER_CHARGES
 
@<TRIPOS>ATOM
       1    C1      19.865193   17.572715   18.711168 C.2        1 MOL1         0.6168
       2    O1      21.044950   17.777674   18.499587 O.co2      1 MOL1        -0.6703
       3    O2      19.113662   17.102691   17.880267 O.co2      1 MOL1        -0.6703
       4    C2      19.269459   17.912576   20.078279 C.3        1 MOL1        -0.1963
       5    H1      18.829263   16.992741   20.480819 H          1 MOL1         0.0750
       6    H2      18.445480   18.615906   19.910073 H          1 MOL1         0.0750
       7    C3      20.267624   18.509807   21.105605 C.3        1 MOL1        -0.1860
       8    H3      21.093738   17.802853   21.264530 H          1 MOL1         0.0752
       9    H4      20.709573   19.427518   20.693303 H          1 MOL1         0.0752
      10    C4      19.584773   18.822732   22.454842 C.3        1 MOL1        -0.1858
      11    H5      19.143661   17.903896   22.865081 H          1 MOL1         0.0752
      12    H6      18.759271   19.529592   22.293499 H          1 MOL1         0.0752
      13    C5      20.579499   19.416693   23.475243 C.3        1 MOL1        -0.1858
      14    H7      21.405103   18.710028   23.636811 H          1 MOL1         0.0752
      15    H8      21.020744   20.335577   23.065293 H          1 MOL1         0.0752
      16    C6      19.897381   19.729798   24.824537 C.3        1 MOL1        -0.1858
      17    H9      19.456106   18.811029   25.234698 H          1 MOL1         0.0752
      18    H10     19.071798   20.436539   24.663218 H          1 MOL1         0.0752
      19    C7      20.891581   20.323463   25.844581 C.3        1 MOL1        -0.1834
      20    H11     21.717994   19.618350   26.009943 H          1 MOL1         0.0752
      21    H12     21.333687   21.243849   25.438476 H          1 MOL1         0.0752
      22    C8      20.206657   20.634720   27.190539 C.3        1 MOL1        -0.2849
      23    H13     19.782458   19.724879   27.635108 H          1 MOL1         0.0764
      24    H14     20.927620   21.055743   27.903307 H          1 MOL1         0.0764
      25    H15     19.395275   21.362624   27.059347 H          1 MOL1         0.0764
@<TRIPOS>BOND
    1     1     2    1
    2     1     3    2
    3     1     4    1
    4     4     5    1
    5     4     6    1
    6     4     7    1
    7     7     8    1
    8     7     9    1
    9     7    10    1
   10    10    11    1
   11    10    12    1
   12    10    13    1
   13    13    14    1
   14    13    15    1
   15    13    16    1
   16    16    17    1
   17    16    18    1
   18    16    19    1
   19    19    20    1
   20    19    21    1
   21    19    22    1
   22    22    23    1
   23    22    24    1
   24    22    25    1
@<TRIPOS>SUBSTRUCTURE
       1 MOL1            1 RESIDUE      1      MOL     
@<SCITEGIC>MOL_PROPERTY
VConf Rank
SciTegic.value.IntegerValue
821

@<SCITEGIC>MOL_PROPERTY
Conf_Id
SciTegic.value.IntegerValue
0

@<SCITEGIC>MOL_PROPERTY
Delta U+W
SciTegic.value.DoubleValue
0.000

@<SCITEGIC>MOL_PROPERTY
U+W
SciTegic.value.DoubleValue
-51.629

@<SCITEGIC>MOL_PROPERTY
Grad RMS
SciTegic.value.DoubleValue
0.000000

@<SCITEGIC>MOL_PROPERTY
U
SciTegic.value.DoubleValue
6.586

@<SCITEGIC>MOL_PROPERTY
W
SciTegic.value.DoubleValue
-58.216

@<SCITEGIC>MOL_PROPERTY
W(PB)
SciTegic.value.DoubleValue
-60.757

@<SCITEGIC>MOL_PROPERTY
W(SA)
SciTegic.value.DoubleValue
2.541

@<SCITEGIC>MOL_PROPERTY
Valence
SciTegic.value.DoubleValue
8.027

@<SCITEGIC>MOL_PROPERTY
Coulomb
SciTegic.value.DoubleValue
-2.892

@<SCITEGIC>MOL_PROPERTY
VdW
SciTegic.value.DoubleValue
1.451

@<SCITEGIC>MOL_PROPERTY
VdW6
SciTegic.value.DoubleValue
-7.931

@<SCITEGIC>MOL_PROPERTY
VdW12
SciTegic.value.DoubleValue
9.383

@<SCITEGIC>MOL_PROPERTY
Bond
SciTegic.value.DoubleValue
0.149

@<SCITEGIC>MOL_PROPERTY
Angle
SciTegic.value.DoubleValue
2.726

@<SCITEGIC>MOL_PROPERTY
Pdih
SciTegic.value.DoubleValue
5.152

@<SCITEGIC>MOL_PROPERTY
Idih
SciTegic.value.DoubleValue
0.000

@<SCITEGIC>MOL_PROPERTY
Tether
SciTegic.value.DoubleValue
0.000

@<TRIPOS>MOLECULE
guest-8_confgen4.mol2 : confsearch ligand conformer 822
          25          24           1
SMALL
USER_CHARGES
 
@<TRIPOS>ATOM
       1    C1      17.175141   19.003502   19.513812 C.2        1 MOL1         0.6168
       2    O1      17.413895   18.125893   18.707947 O.co2      1 MOL1        -0.6703
       3    O2      16.055076   19.405579   19.759594 O.co2      1 MOL1        -0.6703
       4    C2      18.343778   19.618339   20.275615 C.3        1 MOL1        -0.1963
       5    H1      18.100620   20.667229   20.483725 H          1 MOL1         0.0750
       6    H2      19.220347   19.613195   19.616672 H          1 MOL1         0.0750
       7    C3      18.661641   18.871274   21.594281 C.3        1 MOL1        -0.1860
       8    H3      17.770210   18.874044   22.236882 H          1 MOL1         0.0752
       9    H4      18.889754   17.819995   21.369849 H          1 MOL1         0.0752
      10    C4      19.847836   19.512281   22.346660 C.3        1 MOL1        -0.1858
      11    H5      19.617104   20.563337   22.568528 H          1 MOL1         0.0752
      12    H6      20.736917   19.509199   21.701133 H          1 MOL1         0.0752
      13    C5      20.162497   18.765324   23.660628 C.3        1 MOL1        -0.1858
      14    H7      19.273594   18.768338   24.306341 H          1 MOL1         0.0752
      15    H8      20.393270   17.714266   23.438983 H          1 MOL1         0.0752
      16    C6      21.348627   19.405733   24.413524 C.3        1 MOL1        -0.1858
      17    H9      21.118121   20.456793   24.635414 H          1 MOL1         0.0752
      18    H10     22.237708   19.402855   23.768062 H          1 MOL1         0.0752
      19    C7      21.663344   18.659183   25.726908 C.3        1 MOL1        -0.1834
      20    H11     20.776717   18.661623   26.376042 H          1 MOL1         0.0752
      21    H12     21.896323   17.607710   25.508699 H          1 MOL1         0.0752
      22    C8      22.848262   19.301698   26.475737 C.3        1 MOL1        -0.2849
      23    H13     23.058062   18.758652   27.406421 H          1 MOL1         0.0764
      24    H14     23.757608   19.284146   25.860774 H          1 MOL1         0.0764
      25    H15     22.629570   20.345987   26.734641 H          1 MOL1         0.0764
@<TRIPOS>BOND
    1     1     2    1
    2     1     3    2
    3     1     4    1
    4     4     5    1
    5     4     6    1
    6     4     7    1
    7     7     8    1
    8     7     9    1
    9     7    10    1
   10    10    11    1
   11    10    12    1
   12    10    13    1
   13    13    14    1
   14    13    15    1
   15    13    16    1
   16    16    17    1
   17    16    18    1
   18    16    19    1
   19    19    20    1
   20    19    21    1
   21    19    22    1
   22    22    23    1
   23    22    24    1
   24    22    25    1
@<TRIPOS>SUBSTRUCTURE
       1 MOL1            1 RESIDUE      1      MOL     
@<SCITEGIC>MOL_PROPERTY
VConf Rank
SciTegic.value.IntegerValue
822

@<SCITEGIC>MOL_PROPERTY
Conf_Id
SciTegic.value.IntegerValue
27

@<SCITEGIC>MOL_PROPERTY
Delta U+W
SciTegic.value.DoubleValue
-1.297

@<SCITEGIC>MOL_PROPERTY
U+W
SciTegic.value.DoubleValue
-52.926

@<SCITEGIC>MOL_PROPERTY
Grad RMS
SciTegic.value.DoubleValue
0.000000

@<SCITEGIC>MOL_PROPERTY
U
SciTegic.value.DoubleValue
5.617

@<SCITEGIC>MOL_PROPERTY
W
SciTegic.value.DoubleValue
-58.543

@<SCITEGIC>MOL_PROPERTY
W(PB)
SciTegic.value.DoubleValue
-61.065

@<SCITEGIC>MOL_PROPERTY
W(SA)
SciTegic.value.DoubleValue
2.522

@<SCITEGIC>MOL_PROPERTY
Valence
SciTegic.value.DoubleValue
7.531

@<SCITEGIC>MOL_PROPERTY
Coulomb
SciTegic.value.DoubleValue
-2.818

@<SCITEGIC>MOL_PROPERTY
VdW
SciTegic.value.DoubleValue
0.904

@<SCITEGIC>MOL_PROPERTY
VdW6
SciTegic.value.DoubleValue
-7.640

@<SCITEGIC>MOL_PROPERTY
VdW12
SciTegic.value.DoubleValue
8.544

@<SCITEGIC>MOL_PROPERTY
Bond
SciTegic.value.DoubleValue
0.115

@<SCITEGIC>MOL_PROPERTY
Angle
SciTegic.value.DoubleValue
2.271

@<SCITEGIC>MOL_PROPERTY
Pdih
SciTegic.value.DoubleValue
5.144

@<SCITEGIC>MOL_PROPERTY
Idih
SciTegic.value.DoubleValue
0.001

@<SCITEGIC>MOL_PROPERTY
Tether
SciTegic.value.DoubleValue
0.000

@<TRIPOS>MOLECULE
guest-8_confgen4.mol2 : confsearch ligand conformer 823
          25          24           1
SMALL
USER_CHARGES
 
@<TRIPOS>ATOM
       1    C1      22.482445   21.853842   21.470152 C.2        1 MOL1         0.6168
       2    O1      22.024369   22.216588   20.404480 O.co2      1 MOL1        -0.6703
       3    O2      22.579340   22.577135   22.441966 O.co2      1 MOL1        -0.6703
       4    C2      22.978162   20.415238   21.586984 C.3        1 MOL1        -0.1963
       5    H1      23.652933   20.346377   22.448836 H          1 MOL1         0.0750
       6    H2      23.579380   20.202202   20.695280 H          1 MOL1         0.0750
       7    C3      21.843299   19.365503   21.709813 C.3        1 MOL1        -0.1860
       8    H3      21.160903   19.465483   20.854236 H          1 MOL1         0.0752
       9    H4      22.280284   18.359530   21.649728 H          1 MOL1         0.0752
      10    C4      21.050850   19.498734   23.029677 C.3        1 MOL1        -0.1858
      11    H5      20.595790   20.497137   23.089139 H          1 MOL1         0.0752
      12    H6      21.739238   19.411613   23.881473 H          1 MOL1         0.0752
      13    C5      19.947808   18.424689   23.145247 C.3        1 MOL1        -0.1858
      14    H7      19.259941   18.512614   22.293076 H          1 MOL1         0.0752
      15    H8      20.400892   17.425390   23.089076 H          1 MOL1         0.0752
      16    C6      19.155016   18.557736   24.463443 C.3        1 MOL1        -0.1858
      17    H9      18.701911   19.557060   24.519794 H          1 MOL1         0.0752
      18    H10     19.842757   18.470197   25.315751 H          1 MOL1         0.0752
      19    C7      18.052017   17.484719   24.579185 C.3        1 MOL1        -0.1834
      20    H11     17.361063   17.570527   23.729067 H          1 MOL1         0.0752
      21    H12     18.501908   16.483641   24.525125 H          1 MOL1         0.0752
      22    C8      17.262658   17.621178   25.896719 C.3        1 MOL1        -0.2849
      23    H13     16.775541   18.602877   25.962911 H          1 MOL1         0.0764
      24    H14     16.483164   16.851004   25.962312 H          1 MOL1         0.0764
      25    H15     17.924975   17.507859   26.764987 H          1 MOL1         0.0764
@<TRIPOS>BOND
    1     1     2    1
    2     1     3    2
    3     1     4    1
    4     4     5    1
    5     4     6    1
    6     4     7    1
    7     7     8    1
    8     7     9    1
    9     7    10    1
   10    10    11    1
   11    10    12    1
   12    10    13    1
   13    13    14    1
   14    13    15    1
   15    13    16    1
   16    16    17    1
   17    16    18    1
   18    16    19    1
   19    19    20    1
   20    19    21    1
   21    19    22    1
   22    22    23    1
   23    22    24    1
   24    22    25    1
@<TRIPOS>SUBSTRUCTURE
       1 MOL1            1 RESIDUE      1      MOL     
@<SCITEGIC>MOL_PROPERTY
VConf Rank
SciTegic.value.IntegerValue
823

@<SCITEGIC>MOL_PROPERTY
Conf_Id
SciTegic.value.IntegerValue
37

@<SCITEGIC>MOL_PROPERTY
Delta U+W
SciTegic.value.DoubleValue
-0.230

@<SCITEGIC>MOL_PROPERTY
U+W
SciTegic.value.DoubleValue
-51.860

@<SCITEGIC>MOL_PROPERTY
Grad RMS
SciTegic.value.DoubleValue
0.000000

@<SCITEGIC>MOL_PROPERTY
U
SciTegic.value.DoubleValue
7.816

@<SCITEGIC>MOL_PROPERTY
W
SciTegic.value.DoubleValue
-59.675

@<SCITEGIC>MOL_PROPERTY
W(PB)
SciTegic.value.DoubleValue
-62.180

@<SCITEGIC>MOL_PROPERTY
W(SA)
SciTegic.value.DoubleValue
2.505

@<SCITEGIC>MOL_PROPERTY
Valence
SciTegic.value.DoubleValue
7.785

@<SCITEGIC>MOL_PROPERTY
Coulomb
SciTegic.value.DoubleValue
-0.713

@<SCITEGIC>MOL_PROPERTY
VdW
SciTegic.value.DoubleValue
0.744

@<SCITEGIC>MOL_PROPERTY
VdW6
SciTegic.value.DoubleValue
-8.514

@<SCITEGIC>MOL_PROPERTY
VdW12
SciTegic.value.DoubleValue
9.259

@<SCITEGIC>MOL_PROPERTY
Bond
SciTegic.value.DoubleValue
0.136

@<SCITEGIC>MOL_PROPERTY
Angle
SciTegic.value.DoubleValue
2.433

@<SCITEGIC>MOL_PROPERTY
Pdih
SciTegic.value.DoubleValue
5.216

@<SCITEGIC>MOL_PROPERTY
Idih
SciTegic.value.DoubleValue
0.000

@<SCITEGIC>MOL_PROPERTY
Tether
SciTegic.value.DoubleValue
0.000

@<TRIPOS>MOLECULE
guest-8_confgen4.mol2 : confsearch ligand conformer 824
          25          24           1
SMALL
USER_CHARGES
 
@<TRIPOS>ATOM
       1    C1      23.908435   20.265822   23.336652 C.2        1 MOL1         0.6168
       2    O1      24.408710   20.267660   22.229044 O.co2      1 MOL1        -0.6703
       3    O2      24.199421   19.466872   24.204966 O.co2      1 MOL1        -0.6703
       4    C2      22.869714   21.336738   23.657847 C.3        1 MOL1        -0.1963
       5    H1      23.264221   22.294394   23.298344 H          1 MOL1         0.0750
       6    H2      22.778177   21.419980   24.747590 H          1 MOL1         0.0750
       7    C3      21.479428   21.077319   23.021647 C.3        1 MOL1        -0.1860
       8    H3      20.841962   21.956341   23.187498 H          1 MOL1         0.0752
       9    H4      21.591532   20.968682   21.933850 H          1 MOL1         0.0752
      10    C4      20.783669   19.826325   23.603628 C.3        1 MOL1        -0.1858
      11    H5      20.686025   19.933905   24.692626 H          1 MOL1         0.0752
      12    H6      21.407622   18.939413   23.426169 H          1 MOL1         0.0752
      13    C5      19.388962   19.605372   22.979447 C.3        1 MOL1        -0.1858
      14    H7      18.762274   20.489874   23.158200 H          1 MOL1         0.0752
      15    H8      19.487650   19.497788   21.890515 H          1 MOL1         0.0752
      16    C6      18.693443   18.355135   23.559979 C.3        1 MOL1        -0.1858
      17    H9      18.594916   18.462385   24.648956 H          1 MOL1         0.0752
      18    H10     19.320098   17.470519   23.381416 H          1 MOL1         0.0752
      19    C7      17.299590   18.133517   22.935941 C.3        1 MOL1        -0.1834
      20    H11     16.669339   19.015832   23.114217 H          1 MOL1         0.0752
      21    H12     17.394564   18.023858   21.846704 H          1 MOL1         0.0752
      22    C8      16.608515   16.884163   23.518291 C.3        1 MOL1        -0.2849
      23    H13     16.472083   16.980618   24.603407 H          1 MOL1         0.0764
      24    H14     15.619478   16.741818   23.063731 H          1 MOL1         0.0764
      25    H15     17.202827   15.981183   23.326405 H          1 MOL1         0.0764
@<TRIPOS>BOND
    1     1     2    1
    2     1     3    2
    3     1     4    1
    4     4     5    1
    5     4     6    1
    6     4     7    1
    7     7     8    1
    8     7     9    1
    9     7    10    1
   10    10    11    1
   11    10    12    1
   12    10    13    1
   13    13    14    1
   14    13    15    1
   15    13    16    1
   16    16    17    1
   17    16    18    1
   18    16    19    1
   19    19    20    1
   20    19    21    1
   21    19    22    1
   22    22    23    1
   23    22    24    1
   24    22    25    1
@<TRIPOS>SUBSTRUCTURE
       1 MOL1            1 RESIDUE      1      MOL     
@<SCITEGIC>MOL_PROPERTY
VConf Rank
SciTegic.value.IntegerValue
824

@<SCITEGIC>MOL_PROPERTY
Conf_Id
SciTegic.value.IntegerValue
54

@<SCITEGIC>MOL_PROPERTY
Delta U+W
SciTegic.value.DoubleValue
-0.224

@<SCITEGIC>MOL_PROPERTY
U+W
SciTegic.value.DoubleValue
-51.854

@<SCITEGIC>MOL_PROPERTY
Grad RMS
SciTegic.value.DoubleValue
0.000000

@<SCITEGIC>MOL_PROPERTY
U
SciTegic.value.DoubleValue
7.816

@<SCITEGIC>MOL_PROPERTY
W
SciTegic.value.DoubleValue
-59.670

@<SCITEGIC>MOL_PROPERTY
W(PB)
SciTegic.value.DoubleValue
-62.157

@<SCITEGIC>MOL_PROPERTY
W(SA)
SciTegic.value.DoubleValue
2.487

@<SCITEGIC>MOL_PROPERTY
Valence
SciTegic.value.DoubleValue
7.785

@<SCITEGIC>MOL_PROPERTY
Coulomb
SciTegic.value.DoubleValue
-0.713

@<SCITEGIC>MOL_PROPERTY
VdW
SciTegic.value.DoubleValue
0.744

@<SCITEGIC>MOL_PROPERTY
VdW6
SciTegic.value.DoubleValue
-8.515

@<SCITEGIC>MOL_PROPERTY
VdW12
SciTegic.value.DoubleValue
9.259

@<SCITEGIC>MOL_PROPERTY
Bond
SciTegic.value.DoubleValue
0.136

@<SCITEGIC>MOL_PROPERTY
Angle
SciTegic.value.DoubleValue
2.433

@<SCITEGIC>MOL_PROPERTY
Pdih
SciTegic.value.DoubleValue
5.215

@<SCITEGIC>MOL_PROPERTY
Idih
SciTegic.value.DoubleValue
0.000

@<SCITEGIC>MOL_PROPERTY
Tether
SciTegic.value.DoubleValue
0.000

@<TRIPOS>MOLECULE
guest-8_confgen4.mol2 : confsearch ligand conformer 825
          25          24           1
SMALL
USER_CHARGES
 
@<TRIPOS>ATOM
       1    C1      18.547854   19.126441   27.047497 C.2        1 MOL1         0.6168
       2    O1      18.318451   17.957725   27.289422 O.co2      1 MOL1        -0.6703
       3    O2      19.156733   19.861976   27.799404 O.co2      1 MOL1        -0.6703
       4    C2      18.027653   19.709337   25.736464 C.3        1 MOL1        -0.1963
       5    H1      17.555973   20.670891   25.970776 H          1 MOL1         0.0750
       6    H2      17.237587   19.053897   25.350428 H          1 MOL1         0.0750
       7    C3      19.123285   19.919344   24.658896 C.3        1 MOL1        -0.1860
       8    H3      18.685087   20.480510   23.824102 H          1 MOL1         0.0752
       9    H4      19.926825   20.543299   25.074110 H          1 MOL1         0.0752
      10    C4      19.710134   18.584021   24.140753 C.3        1 MOL1        -0.1858
      11    H5      18.913667   17.980375   23.684651 H          1 MOL1         0.0752
      12    H6      20.087765   18.003028   24.993290 H          1 MOL1         0.0752
      13    C5      20.866804   18.766490   23.128935 C.3        1 MOL1        -0.1858
      14    H7      21.654529   19.385921   23.578791 H          1 MOL1         0.0752
      15    H8      21.313272   17.781135   22.944782 H          1 MOL1         0.0752
      16    C6      20.418689   19.386181   21.782085 C.3        1 MOL1        -0.1858
      17    H9      19.978534   20.374867   21.962738 H          1 MOL1         0.0752
      18    H10     19.627428   18.769085   21.335188 H          1 MOL1         0.0752
      19    C7      21.575359   19.556762   20.769414 C.3        1 MOL1        -0.1834
      20    H11     21.204111   20.123721   19.904557 H          1 MOL1         0.0752
      21    H12     22.374568   20.163256   21.217443 H          1 MOL1         0.0752
      22    C8      22.157049   18.216470   20.269221 C.3        1 MOL1        -0.2849
      23    H13     22.650783   17.665398   21.079127 H          1 MOL1         0.0764
      24    H14     21.368918   17.578654   19.848329 H          1 MOL1         0.0764
      25    H15     22.904307   18.391952   19.484545 H          1 MOL1         0.0764
@<TRIPOS>BOND
    1     1     2    1
    2     1     3    2
    3     1     4    1
    4     4     5    1
    5     4     6    1
    6     4     7    1
    7     7     8    1
    8     7     9    1
    9     7    10    1
   10    10    11    1
   11    10    12    1
   12    10    13    1
   13    13    14    1
   14    13    15    1
   15    13    16    1
   16    16    17    1
   17    16    18    1
   18    16    19    1
   19    19    20    1
   20    19    21    1
   21    19    22    1
   22    22    23    1
   23    22    24    1
   24    22    25    1
@<TRIPOS>SUBSTRUCTURE
       1 MOL1            1 RESIDUE      1      MOL     
@<SCITEGIC>MOL_PROPERTY
VConf Rank
SciTegic.value.IntegerValue
825

@<SCITEGIC>MOL_PROPERTY
Conf_Id
SciTegic.value.IntegerValue
101

@<SCITEGIC>MOL_PROPERTY
Delta U+W
SciTegic.value.DoubleValue
1.534

@<SCITEGIC>MOL_PROPERTY
U+W
SciTegic.value.DoubleValue
-50.095

@<SCITEGIC>MOL_PROPERTY
Grad RMS
SciTegic.value.DoubleValue
0.000000

@<SCITEGIC>MOL_PROPERTY
U
SciTegic.value.DoubleValue
9.416

@<SCITEGIC>MOL_PROPERTY
W
SciTegic.value.DoubleValue
-59.512

@<SCITEGIC>MOL_PROPERTY
W(PB)
SciTegic.value.DoubleValue
-61.988

@<SCITEGIC>MOL_PROPERTY
W(SA)
SciTegic.value.DoubleValue
2.476

@<SCITEGIC>MOL_PROPERTY
Valence
SciTegic.value.DoubleValue
8.939

@<SCITEGIC>MOL_PROPERTY
Coulomb
SciTegic.value.DoubleValue
-0.615

@<SCITEGIC>MOL_PROPERTY
VdW
SciTegic.value.DoubleValue
1.092

@<SCITEGIC>MOL_PROPERTY
VdW6
SciTegic.value.DoubleValue
-9.710

@<SCITEGIC>MOL_PROPERTY
VdW12
SciTegic.value.DoubleValue
10.802

@<SCITEGIC>MOL_PROPERTY
Bond
SciTegic.value.DoubleValue
0.216

@<SCITEGIC>MOL_PROPERTY
Angle
SciTegic.value.DoubleValue
2.979

@<SCITEGIC>MOL_PROPERTY
Pdih
SciTegic.value.DoubleValue
5.743

@<SCITEGIC>MOL_PROPERTY
Idih
SciTegic.value.DoubleValue
0.000

@<SCITEGIC>MOL_PROPERTY
Tether
SciTegic.value.DoubleValue
0.000

@<TRIPOS>MOLECULE
guest-8_confgen4.mol2 : confsearch ligand conformer 826
          25          24           1
SMALL
USER_CHARGES
 
@<TRIPOS>ATOM
       1    C1      19.855880   19.724284   19.120089 C.2        1 MOL1         0.6168
       2    O1      19.358197   18.718999   18.652702 O.co2      1 MOL1        -0.6703
       3    O2      19.875373   20.795141   18.545927 O.co2      1 MOL1        -0.6703
       4    C2      20.469753   19.643260   20.513202 C.3        1 MOL1        -0.1963
       5    H1      21.303391   20.354088   20.559124 H          1 MOL1         0.0750
       6    H2      20.890999   18.638959   20.632752 H          1 MOL1         0.0750
       7    C3      19.445503   19.946223   21.637782 C.3        1 MOL1        -0.1860
       8    H3      18.973517   20.916611   21.430408 H          1 MOL1         0.0752
       9    H4      18.640470   19.198815   21.613216 H          1 MOL1         0.0752
      10    C4      20.071759   19.993975   23.052078 C.3        1 MOL1        -0.1858
      11    H5      19.304353   20.352337   23.750043 H          1 MOL1         0.0752
      12    H6      20.882603   20.734728   23.071611 H          1 MOL1         0.0752
      13    C5      20.603709   18.622707   23.536389 C.3        1 MOL1        -0.1858
      14    H7      19.793226   17.882584   23.517629 H          1 MOL1         0.0752
      15    H8      21.365112   18.258143   22.835620 H          1 MOL1         0.0752
      16    C6      21.243944   18.670799   24.947113 C.3        1 MOL1        -0.1858
      17    H9      22.106333   19.350784   24.922948 H          1 MOL1         0.0752
      18    H10     21.648998   17.677110   25.182023 H          1 MOL1         0.0752
      19    C7      20.298212   19.105760   26.094222 C.3        1 MOL1        -0.1834
      20    H11     20.866526   19.103765   27.034466 H          1 MOL1         0.0752
      21    H12     19.968947   20.142115   25.942913 H          1 MOL1         0.0752
      22    C8      19.068307   18.186494   26.256169 C.3        1 MOL1        -0.2849
      23    H13     19.374001   17.140083   26.384828 H          1 MOL1         0.0764
      24    H14     18.483019   18.479304   27.137343 H          1 MOL1         0.0764
      25    H15     18.407170   18.248055   25.382563 H          1 MOL1         0.0764
@<TRIPOS>BOND
    1     1     2    1
    2     1     3    2
    3     1     4    1
    4     4     5    1
    5     4     6    1
    6     4     7    1
    7     7     8    1
    8     7     9    1
    9     7    10    1
   10    10    11    1
   11    10    12    1
   12    10    13    1
   13    13    14    1
   14    13    15    1
   15    13    16    1
   16    16    17    1
   17    16    18    1
   18    16    19    1
   19    19    20    1
   20    19    21    1
   21    19    22    1
   22    22    23    1
   23    22    24    1
   24    22    25    1
@<TRIPOS>SUBSTRUCTURE
       1 MOL1            1 RESIDUE      1      MOL     
@<SCITEGIC>MOL_PROPERTY
VConf Rank
SciTegic.value.IntegerValue
826

@<SCITEGIC>MOL_PROPERTY
Conf_Id
SciTegic.value.IntegerValue
75

@<SCITEGIC>MOL_PROPERTY
Delta U+W
SciTegic.value.DoubleValue
1.014

@<SCITEGIC>MOL_PROPERTY
U+W
SciTegic.value.DoubleValue
-50.615

@<SCITEGIC>MOL_PROPERTY
Grad RMS
SciTegic.value.DoubleValue
0.000000

@<SCITEGIC>MOL_PROPERTY
U
SciTegic.value.DoubleValue
8.474

@<SCITEGIC>MOL_PROPERTY
W
SciTegic.value.DoubleValue
-59.089

@<SCITEGIC>MOL_PROPERTY
W(PB)
SciTegic.value.DoubleValue
-61.530

@<SCITEGIC>MOL_PROPERTY
W(SA)
SciTegic.value.DoubleValue
2.441

@<SCITEGIC>MOL_PROPERTY
Valence
SciTegic.value.DoubleValue
9.080

@<SCITEGIC>MOL_PROPERTY
Coulomb
SciTegic.value.DoubleValue
-1.772

@<SCITEGIC>MOL_PROPERTY
VdW
SciTegic.value.DoubleValue
1.165

@<SCITEGIC>MOL_PROPERTY
VdW6
SciTegic.value.DoubleValue
-9.830

@<SCITEGIC>MOL_PROPERTY
VdW12
SciTegic.value.DoubleValue
10.996

@<SCITEGIC>MOL_PROPERTY
Bond
SciTegic.value.DoubleValue
0.240

@<SCITEGIC>MOL_PROPERTY
Angle
SciTegic.value.DoubleValue
3.225

@<SCITEGIC>MOL_PROPERTY
Pdih
SciTegic.value.DoubleValue
5.615

@<SCITEGIC>MOL_PROPERTY
Idih
SciTegic.value.DoubleValue
0.001

@<SCITEGIC>MOL_PROPERTY
Tether
SciTegic.value.DoubleValue
0.000

@<TRIPOS>MOLECULE
guest-8_confgen4.mol2 : confsearch ligand conformer 827
          25          24           1
SMALL
USER_CHARGES
 
@<TRIPOS>ATOM
       1    C1      22.182951   16.966219   26.229123 C.2        1 MOL1         0.6168
       2    O1      21.444694   16.096553   26.647823 O.co2      1 MOL1        -0.6703
       3    O2      23.395455   16.889023   26.252432 O.co2      1 MOL1        -0.6703
       4    C2      21.552806   18.214256   25.621339 C.3        1 MOL1        -0.1963
       5    H1      22.216914   19.063510   25.822058 H          1 MOL1         0.0750
       6    H2      20.609451   18.409244   26.145427 H          1 MOL1         0.0750
       7    C3      21.300889   18.080593   24.099251 C.3        1 MOL1        -0.1860
       8    H3      22.252496   17.872789   23.590569 H          1 MOL1         0.0752
       9    H4      20.645246   17.218310   23.914494 H          1 MOL1         0.0752
      10    C4      20.661306   19.355635   23.508190 C.3        1 MOL1        -0.1858
      11    H5      21.319749   20.214787   23.695602 H          1 MOL1         0.0752
      12    H6      19.718514   19.562736   24.028254 H          1 MOL1         0.0752
      13    C5      20.417265   19.219383   21.986805 C.3        1 MOL1        -0.1858
      14    H7      21.386231   19.044748   21.499440 H          1 MOL1         0.0752
      15    H8      19.804179   18.332636   21.775562 H          1 MOL1         0.0752
      16    C6      19.768658   20.476686   21.353618 C.3        1 MOL1        -0.1858
      17    H9      20.191893   20.609574   20.348590 H          1 MOL1         0.0752
      18    H10     20.051086   21.376252   21.917401 H          1 MOL1         0.0752
      19    C7      18.228748   20.404226   21.204184 C.3        1 MOL1        -0.1834
      20    H11     17.887337   21.304207   20.674426 H          1 MOL1         0.0752
      21    H12     17.960664   19.551570   20.565164 H          1 MOL1         0.0752
      22    C8      17.467657   20.300039   22.542189 C.3        1 MOL1        -0.2849
      23    H13     17.765299   21.103269   23.228624 H          1 MOL1         0.0764
      24    H14     16.385724   20.380161   22.375585 H          1 MOL1         0.0764
      25    H15     17.655966   19.335643   23.030150 H          1 MOL1         0.0764
@<TRIPOS>BOND
    1     1     2    1
    2     1     3    2
    3     1     4    1
    4     4     5    1
    5     4     6    1
    6     4     7    1
    7     7     8    1
    8     7     9    1
    9     7    10    1
   10    10    11    1
   11    10    12    1
   12    10    13    1
   13    13    14    1
   14    13    15    1
   15    13    16    1
   16    16    17    1
   17    16    18    1
   18    16    19    1
   19    19    20    1
   20    19    21    1
   21    19    22    1
   22    22    23    1
   23    22    24    1
   24    22    25    1
@<TRIPOS>SUBSTRUCTURE
       1 MOL1            1 RESIDUE      1      MOL     
@<SCITEGIC>MOL_PROPERTY
VConf Rank
SciTegic.value.IntegerValue
827

@<SCITEGIC>MOL_PROPERTY
Conf_Id
SciTegic.value.IntegerValue
125

@<SCITEGIC>MOL_PROPERTY
Delta U+W
SciTegic.value.DoubleValue
2.314

@<SCITEGIC>MOL_PROPERTY
U+W
SciTegic.value.DoubleValue
-49.315

@<SCITEGIC>MOL_PROPERTY
Grad RMS
SciTegic.value.DoubleValue
0.000000

@<SCITEGIC>MOL_PROPERTY
U
SciTegic.value.DoubleValue
9.740

@<SCITEGIC>MOL_PROPERTY
W
SciTegic.value.DoubleValue
-59.054

@<SCITEGIC>MOL_PROPERTY
W(PB)
SciTegic.value.DoubleValue
-61.488

@<SCITEGIC>MOL_PROPERTY
W(SA)
SciTegic.value.DoubleValue
2.433

@<SCITEGIC>MOL_PROPERTY
Valence
SciTegic.value.DoubleValue
10.506

@<SCITEGIC>MOL_PROPERTY
Coulomb
SciTegic.value.DoubleValue
-1.761

@<SCITEGIC>MOL_PROPERTY
VdW
SciTegic.value.DoubleValue
0.994

@<SCITEGIC>MOL_PROPERTY
VdW6
SciTegic.value.DoubleValue
-9.209

@<SCITEGIC>MOL_PROPERTY
VdW12
SciTegic.value.DoubleValue
10.203

@<SCITEGIC>MOL_PROPERTY
Bond
SciTegic.value.DoubleValue
0.193

@<SCITEGIC>MOL_PROPERTY
Angle
SciTegic.value.DoubleValue
2.979

@<SCITEGIC>MOL_PROPERTY
Pdih
SciTegic.value.DoubleValue
7.334

@<SCITEGIC>MOL_PROPERTY
Idih
SciTegic.value.DoubleValue
0.001

@<SCITEGIC>MOL_PROPERTY
Tether
SciTegic.value.DoubleValue
0.000

@<TRIPOS>MOLECULE
guest-8_confgen4.mol2 : confsearch ligand conformer 828
          25          24           1
SMALL
USER_CHARGES
 
@<TRIPOS>ATOM
       1    C1      16.067052   19.130269   23.942833 C.2        1 MOL1         0.6168
       2    O1      15.598130   19.818883   23.058177 O.co2      1 MOL1        -0.6703
       3    O2      15.417449   18.695261   24.873169 O.co2      1 MOL1        -0.6703
       4    C2      17.557745   18.814561   23.896110 C.3        1 MOL1        -0.1963
       5    H1      17.849127   18.739395   22.842466 H          1 MOL1         0.0750
       6    H2      17.710576   17.827158   24.347811 H          1 MOL1         0.0750
       7    C3      18.418780   19.876970   24.627648 C.3        1 MOL1        -0.1860
       8    H3      18.293307   20.852063   24.136956 H          1 MOL1         0.0752
       9    H4      18.038678   19.994226   25.651963 H          1 MOL1         0.0752
      10    C4      19.921664   19.515139   24.695260 C.3        1 MOL1        -0.1858
      11    H5      20.044424   18.544439   25.194902 H          1 MOL1         0.0752
      12    H6      20.429858   20.256392   25.327078 H          1 MOL1         0.0752
      13    C5      20.608434   19.478324   23.310274 C.3        1 MOL1        -0.1858
      14    H7      20.152290   18.693618   22.694809 H          1 MOL1         0.0752
      15    H8      20.441803   20.432663   22.792553 H          1 MOL1         0.0752
      16    C6      22.127479   19.217143   23.434736 C.3        1 MOL1        -0.1858
      17    H9      22.297265   18.241387   23.910091 H          1 MOL1         0.0752
      18    H10     22.566413   19.969751   24.103887 H          1 MOL1         0.0752
      19    C7      22.873791   19.269983   22.081206 C.3        1 MOL1        -0.1834
      20    H11     22.710536   20.246838   21.605381 H          1 MOL1         0.0752
      21    H12     23.953342   19.194090   22.271038 H          1 MOL1         0.0752
      22    C8      22.459907   18.143281   21.109699 C.3        1 MOL1        -0.2849
      23    H13     21.413209   18.247303   20.797787 H          1 MOL1         0.0764
      24    H14     23.080093   18.170143   20.204412 H          1 MOL1         0.0764
      25    H15     22.584602   17.157132   21.575605 H          1 MOL1         0.0764
@<TRIPOS>BOND
    1     1     2    1
    2     1     3    2
    3     1     4    1
    4     4     5    1
    5     4     6    1
    6     4     7    1
    7     7     8    1
    8     7     9    1
    9     7    10    1
   10    10    11    1
   11    10    12    1
   12    10    13    1
   13    13    14    1
   14    13    15    1
   15    13    16    1
   16    16    17    1
   17    16    18    1
   18    16    19    1
   19    19    20    1
   20    19    21    1
   21    19    22    1
   22    22    23    1
   23    22    24    1
   24    22    25    1
@<TRIPOS>SUBSTRUCTURE
       1 MOL1            1 RESIDUE      1      MOL     
@<SCITEGIC>MOL_PROPERTY
VConf Rank
SciTegic.value.IntegerValue
828

@<SCITEGIC>MOL_PROPERTY
Conf_Id
SciTegic.value.IntegerValue
4

@<SCITEGIC>MOL_PROPERTY
Delta U+W
SciTegic.value.DoubleValue
0.189

@<SCITEGIC>MOL_PROPERTY
U+W
SciTegic.value.DoubleValue
-51.441

@<SCITEGIC>MOL_PROPERTY
Grad RMS
SciTegic.value.DoubleValue
0.000000

@<SCITEGIC>MOL_PROPERTY
U
SciTegic.value.DoubleValue
7.701

@<SCITEGIC>MOL_PROPERTY
W
SciTegic.value.DoubleValue
-59.141

@<SCITEGIC>MOL_PROPERTY
W(PB)
SciTegic.value.DoubleValue
-61.609

@<SCITEGIC>MOL_PROPERTY
W(SA)
SciTegic.value.DoubleValue
2.467

@<SCITEGIC>MOL_PROPERTY
Valence
SciTegic.value.DoubleValue
8.550

@<SCITEGIC>MOL_PROPERTY
Coulomb
SciTegic.value.DoubleValue
-1.988

@<SCITEGIC>MOL_PROPERTY
VdW
SciTegic.value.DoubleValue
1.139

@<SCITEGIC>MOL_PROPERTY
VdW6
SciTegic.value.DoubleValue
-8.988

@<SCITEGIC>MOL_PROPERTY
VdW12
SciTegic.value.DoubleValue
10.127

@<SCITEGIC>MOL_PROPERTY
Bond
SciTegic.value.DoubleValue
0.191

@<SCITEGIC>MOL_PROPERTY
Angle
SciTegic.value.DoubleValue
2.738

@<SCITEGIC>MOL_PROPERTY
Pdih
SciTegic.value.DoubleValue
5.621

@<SCITEGIC>MOL_PROPERTY
Idih
SciTegic.value.DoubleValue
0.001

@<SCITEGIC>MOL_PROPERTY
Tether
SciTegic.value.DoubleValue
0.000

@<TRIPOS>MOLECULE
guest-8_confgen4.mol2 : confsearch ligand conformer 829
          25          24           1
SMALL
USER_CHARGES
 
@<TRIPOS>ATOM
       1    C1      17.925347   16.733963   20.824031 C.2        1 MOL1         0.6168
       2    O1      17.477495   17.453254   19.952972 O.co2      1 MOL1        -0.6703
       3    O2      17.844627   15.521609   20.803463 O.co2      1 MOL1        -0.6703
       4    C2      18.649218   17.387206   21.995912 C.3        1 MOL1        -0.1963
       5    H1      18.491197   16.763342   22.883707 H          1 MOL1         0.0750
       6    H2      18.168833   18.353352   22.186996 H          1 MOL1         0.0750
       7    C3      20.166735   17.572577   21.735103 C.3        1 MOL1        -0.1860
       8    H3      20.597354   16.601361   21.454471 H          1 MOL1         0.0752
       9    H4      20.312174   18.237090   20.872201 H          1 MOL1         0.0752
      10    C4      20.941245   18.123768   22.955954 C.3        1 MOL1        -0.1858
      11    H5      22.014542   18.110511   22.721930 H          1 MOL1         0.0752
      12    H6      20.801911   17.452075   23.814084 H          1 MOL1         0.0752
      13    C5      20.528928   19.561642   23.348009 C.3        1 MOL1        -0.1858
      14    H7      20.621876   20.221133   22.474513 H          1 MOL1         0.0752
      15    H8      19.474537   19.572180   23.649296 H          1 MOL1         0.0752
      16    C6      21.399789   20.108851   24.502723 C.3        1 MOL1        -0.1858
      17    H9      22.458366   20.035986   24.218204 H          1 MOL1         0.0752
      18    H10     21.272766   19.477721   25.392907 H          1 MOL1         0.0752
      19    C7      21.089430   21.580386   24.863387 C.3        1 MOL1        -0.1834
      20    H11     21.825650   21.924612   25.602789 H          1 MOL1         0.0752
      21    H12     21.220610   22.215414   23.976348 H          1 MOL1         0.0752
      22    C8      19.672196   21.782832   25.442222 C.3        1 MOL1        -0.2849
      23    H13     19.506607   21.134013   26.312121 H          1 MOL1         0.0764
      24    H14     19.534616   22.822824   25.765308 H          1 MOL1         0.0764
      25    H15     18.899015   21.562483   24.695681 H          1 MOL1         0.0764
@<TRIPOS>BOND
    1     1     2    1
    2     1     3    2
    3     1     4    1
    4     4     5    1
    5     4     6    1
    6     4     7    1
    7     7     8    1
    8     7     9    1
    9     7    10    1
   10    10    11    1
   11    10    12    1
   12    10    13    1
   13    13    14    1
   14    13    15    1
   15    13    16    1
   16    16    17    1
   17    16    18    1
   18    16    19    1
   19    19    20    1
   20    19    21    1
   21    19    22    1
   22    22    23    1
   23    22    24    1
   24    22    25    1
@<TRIPOS>SUBSTRUCTURE
       1 MOL1            1 RESIDUE      1      MOL     
@<SCITEGIC>MOL_PROPERTY
VConf Rank
SciTegic.value.IntegerValue
829

@<SCITEGIC>MOL_PROPERTY
Conf_Id
SciTegic.value.IntegerValue
17

@<SCITEGIC>MOL_PROPERTY
Delta U+W
SciTegic.value.DoubleValue
0.219

@<SCITEGIC>MOL_PROPERTY
U+W
SciTegic.value.DoubleValue
-51.411

@<SCITEGIC>MOL_PROPERTY
Grad RMS
SciTegic.value.DoubleValue
0.000000

@<SCITEGIC>MOL_PROPERTY
U
SciTegic.value.DoubleValue
7.701

@<SCITEGIC>MOL_PROPERTY
W
SciTegic.value.DoubleValue
-59.111

@<SCITEGIC>MOL_PROPERTY
W(PB)
SciTegic.value.DoubleValue
-61.599

@<SCITEGIC>MOL_PROPERTY
W(SA)
SciTegic.value.DoubleValue
2.488

@<SCITEGIC>MOL_PROPERTY
Valence
SciTegic.value.DoubleValue
8.550

@<SCITEGIC>MOL_PROPERTY
Coulomb
SciTegic.value.DoubleValue
-1.988

@<SCITEGIC>MOL_PROPERTY
VdW
SciTegic.value.DoubleValue
1.139

@<SCITEGIC>MOL_PROPERTY
VdW6
SciTegic.value.DoubleValue
-8.988

@<SCITEGIC>MOL_PROPERTY
VdW12
SciTegic.value.DoubleValue
10.127

@<SCITEGIC>MOL_PROPERTY
Bond
SciTegic.value.DoubleValue
0.191

@<SCITEGIC>MOL_PROPERTY
Angle
SciTegic.value.DoubleValue
2.738

@<SCITEGIC>MOL_PROPERTY
Pdih
SciTegic.value.DoubleValue
5.621

@<SCITEGIC>MOL_PROPERTY
Idih
SciTegic.value.DoubleValue
0.001

@<SCITEGIC>MOL_PROPERTY
Tether
SciTegic.value.DoubleValue
0.000

@<TRIPOS>MOLECULE
guest-8_confgen4.mol2 : confsearch ligand conformer 830
          25          24           1
SMALL
USER_CHARGES
 
@<TRIPOS>ATOM
       1    C1      22.147131   22.251420   24.459726 C.2        1 MOL1         0.6168
       2    O1      23.153677   22.300888   23.780404 O.co2      1 MOL1        -0.6703
       3    O2      22.153111   22.043291   25.657108 O.co2      1 MOL1        -0.6703
       4    C2      20.801914   22.482280   23.777065 C.3        1 MOL1        -0.1963
       5    H1      20.976605   22.996882   22.824468 H          1 MOL1         0.0750
       6    H2      20.227016   23.169964   24.408385 H          1 MOL1         0.0750
       7    C3      19.983744   21.185583   23.544525 C.3        1 MOL1        -0.1860
       8    H3      19.838670   20.679355   24.508036 H          1 MOL1         0.0752
       9    H4      18.985792   21.455062   23.173396 H          1 MOL1         0.0752
      10    C4      20.663520   20.229890   22.534918 C.3        1 MOL1        -0.1858
      11    H5      21.633619   19.898124   22.930089 H          1 MOL1         0.0752
      12    H6      20.879215   20.782267   21.610146 H          1 MOL1         0.0752
      13    C5      19.802184   18.994671   22.179877 C.3        1 MOL1        -0.1858
      14    H7      18.834968   19.323948   21.776246 H          1 MOL1         0.0752
      15    H8      20.303224   18.441694   21.373630 H          1 MOL1         0.0752
      16    C6      19.571266   18.040829   23.374823 C.3        1 MOL1        -0.1858
      17    H9      19.004181   18.555619   24.161165 H          1 MOL1         0.0752
      18    H10     20.539123   17.757217   23.810381 H          1 MOL1         0.0752
      19    C7      18.805226   16.770074   22.950426 C.3        1 MOL1        -0.1834
      20    H11     17.837184   17.050487   22.512567 H          1 MOL1         0.0752
      21    H12     19.368110   16.241284   22.168783 H          1 MOL1         0.0752
      22    C8      18.572489   15.821680   24.143784 C.3        1 MOL1        -0.2849
      23    H13     17.983320   16.314606   24.928186 H          1 MOL1         0.0764
      24    H14     18.027398   14.924052   23.824103 H          1 MOL1         0.0764
      25    H15     19.526514   15.500764   24.582225 H          1 MOL1         0.0764
@<TRIPOS>BOND
    1     1     2    1
    2     1     3    2
    3     1     4    1
    4     4     5    1
    5     4     6    1
    6     4     7    1
    7     7     8    1
    8     7     9    1
    9     7    10    1
   10    10    11    1
   11    10    12    1
   12    10    13    1
   13    13    14    1
   14    13    15    1
   15    13    16    1
   16    16    17    1
   17    16    18    1
   18    16    19    1
   19    19    20    1
   20    19    21    1
   21    19    22    1
   22    22    23    1
   23    22    24    1
   24    22    25    1
@<TRIPOS>SUBSTRUCTURE
       1 MOL1            1 RESIDUE      1      MOL     
@<SCITEGIC>MOL_PROPERTY
VConf Rank
SciTegic.value.IntegerValue
830

@<SCITEGIC>MOL_PROPERTY
Conf_Id
SciTegic.value.IntegerValue
142

@<SCITEGIC>MOL_PROPERTY
Delta U+W
SciTegic.value.DoubleValue
0.593

@<SCITEGIC>MOL_PROPERTY
U+W
SciTegic.value.DoubleValue
-51.037

@<SCITEGIC>MOL_PROPERTY
Grad RMS
SciTegic.value.DoubleValue
0.000000

@<SCITEGIC>MOL_PROPERTY
U
SciTegic.value.DoubleValue
8.903

@<SCITEGIC>MOL_PROPERTY
W
SciTegic.value.DoubleValue
-59.940

@<SCITEGIC>MOL_PROPERTY
W(PB)
SciTegic.value.DoubleValue
-62.418

@<SCITEGIC>MOL_PROPERTY
W(SA)
SciTegic.value.DoubleValue
2.478

@<SCITEGIC>MOL_PROPERTY
Valence
SciTegic.value.DoubleValue
8.305

@<SCITEGIC>MOL_PROPERTY
Coulomb
SciTegic.value.DoubleValue
-0.223

@<SCITEGIC>MOL_PROPERTY
VdW
SciTegic.value.DoubleValue
0.821

@<SCITEGIC>MOL_PROPERTY
VdW6
SciTegic.value.DoubleValue
-9.236

@<SCITEGIC>MOL_PROPERTY
VdW12
SciTegic.value.DoubleValue
10.057

@<SCITEGIC>MOL_PROPERTY
Bond
SciTegic.value.DoubleValue
0.173

@<SCITEGIC>MOL_PROPERTY
Angle
SciTegic.value.DoubleValue
2.663

@<SCITEGIC>MOL_PROPERTY
Pdih
SciTegic.value.DoubleValue
5.469

@<SCITEGIC>MOL_PROPERTY
Idih
SciTegic.value.DoubleValue
0.001

@<SCITEGIC>MOL_PROPERTY
Tether
SciTegic.value.DoubleValue
0.000

@<TRIPOS>MOLECULE
guest-8_confgen4.mol2 : confsearch ligand conformer 831
          25          24           1
SMALL
USER_CHARGES
 
@<TRIPOS>ATOM
       1    C1      21.111217   16.248831   25.170763 C.2        1 MOL1         0.6168
       2    O1      21.496661   15.918527   26.275250 O.co2      1 MOL1        -0.6703
       3    O2      20.254037   15.650058   24.551271 O.co2      1 MOL1        -0.6703
       4    C2      21.760325   17.465720   24.517483 C.3        1 MOL1        -0.1963
       5    H1      21.515497   17.463500   23.449142 H          1 MOL1         0.0750
       6    H2      22.846182   17.333311   24.587495 H          1 MOL1         0.0750
       7    C3      21.364403   18.820186   25.166172 C.3        1 MOL1        -0.1860
       8    H3      21.685421   18.814243   26.216928 H          1 MOL1         0.0752
       9    H4      21.927541   19.630065   24.684696 H          1 MOL1         0.0752
      10    C4      19.847227   19.136506   25.113596 C.3        1 MOL1        -0.1858
      11    H5      19.671984   20.105427   25.600502 H          1 MOL1         0.0752
      12    H6      19.306197   18.394190   25.716373 H          1 MOL1         0.0752
      13    C5      19.226520   19.168665   23.694436 C.3        1 MOL1        -0.1858
      14    H7      19.293226   18.173343   23.235047 H          1 MOL1         0.0752
      15    H8      18.154164   19.385692   23.791831 H          1 MOL1         0.0752
      16    C6      19.869633   20.221170   22.762070 C.3        1 MOL1        -0.1858
      17    H9      20.926818   19.976390   22.596096 H          1 MOL1         0.0752
      18    H10     19.839647   21.207100   23.245515 H          1 MOL1         0.0752
      19    C7      19.148814   20.292334   21.399428 C.3        1 MOL1        -0.1834
      20    H11     19.175368   19.306248   20.915275 H          1 MOL1         0.0752
      21    H12     18.090366   20.544603   21.552468 H          1 MOL1         0.0752
      22    C8      19.795097   21.338046   20.468570 C.3        1 MOL1        -0.2849
      23    H13     20.846986   21.092323   20.272313 H          1 MOL1         0.0764
      24    H14     19.270289   21.375319   19.505127 H          1 MOL1         0.0764
      25    H15     19.754719   22.339965   20.915648 H          1 MOL1         0.0764
@<TRIPOS>BOND
    1     1     2    1
    2     1     3    2
    3     1     4    1
    4     4     5    1
    5     4     6    1
    6     4     7    1
    7     7     8    1
    8     7     9    1
    9     7    10    1
   10    10    11    1
   11    10    12    1
   12    10    13    1
   13    13    14    1
   14    13    15    1
   15    13    16    1
   16    16    17    1
   17    16    18    1
   18    16    19    1
   19    19    20    1
   20    19    21    1
   21    19    22    1
   22    22    23    1
   23    22    24    1
   24    22    25    1
@<TRIPOS>SUBSTRUCTURE
       1 MOL1            1 RESIDUE      1      MOL     
@<SCITEGIC>MOL_PROPERTY
VConf Rank
SciTegic.value.IntegerValue
831

@<SCITEGIC>MOL_PROPERTY
Conf_Id
SciTegic.value.IntegerValue
135

@<SCITEGIC>MOL_PROPERTY
Delta U+W
SciTegic.value.DoubleValue
1.314

@<SCITEGIC>MOL_PROPERTY
U+W
SciTegic.value.DoubleValue
-50.316

@<SCITEGIC>MOL_PROPERTY
Grad RMS
SciTegic.value.DoubleValue
0.000000

@<SCITEGIC>MOL_PROPERTY
U
SciTegic.value.DoubleValue
9.773

@<SCITEGIC>MOL_PROPERTY
W
SciTegic.value.DoubleValue
-60.088

@<SCITEGIC>MOL_PROPERTY
W(PB)
SciTegic.value.DoubleValue
-62.535

@<SCITEGIC>MOL_PROPERTY
W(SA)
SciTegic.value.DoubleValue
2.447

@<SCITEGIC>MOL_PROPERTY
Valence
SciTegic.value.DoubleValue
8.741

@<SCITEGIC>MOL_PROPERTY
Coulomb
SciTegic.value.DoubleValue
0.479

@<SCITEGIC>MOL_PROPERTY
VdW
SciTegic.value.DoubleValue
0.552

@<SCITEGIC>MOL_PROPERTY
VdW6
SciTegic.value.DoubleValue
-10.627

@<SCITEGIC>MOL_PROPERTY
VdW12
SciTegic.value.DoubleValue
11.179

@<SCITEGIC>MOL_PROPERTY
Bond
SciTegic.value.DoubleValue
0.227

@<SCITEGIC>MOL_PROPERTY
Angle
SciTegic.value.DoubleValue
3.155

@<SCITEGIC>MOL_PROPERTY
Pdih
SciTegic.value.DoubleValue
5.358

@<SCITEGIC>MOL_PROPERTY
Idih
SciTegic.value.DoubleValue
0.001

@<SCITEGIC>MOL_PROPERTY
Tether
SciTegic.value.DoubleValue
0.000

@<TRIPOS>MOLECULE
guest-8_confgen4.mol2 : confsearch ligand conformer 832
          25          24           1
SMALL
USER_CHARGES
 
@<TRIPOS>ATOM
       1    C1      17.401725   17.702851   26.135168 C.2        1 MOL1         0.6168
       2    O1      16.656199   16.845665   25.703698 O.co2      1 MOL1        -0.6703
       3    O2      17.630242   17.862882   27.317936 O.co2      1 MOL1        -0.6703
       4    C2      18.107007   18.613228   25.136182 C.3        1 MOL1        -0.1963
       5    H1      18.252641   19.590650   25.611351 H          1 MOL1         0.0750
       6    H2      17.430718   18.761559   24.287181 H          1 MOL1         0.0750
       7    C3      19.468256   18.040919   24.661536 C.3        1 MOL1        -0.1860
       8    H3      20.080166   17.814717   25.545757 H          1 MOL1         0.0752
       9    H4      19.306031   17.085029   24.144584 H          1 MOL1         0.0752
      10    C4      20.261895   19.003673   23.746016 C.3        1 MOL1        -0.1858
      11    H5      21.261914   18.577600   23.596305 H          1 MOL1         0.0752
      12    H6      20.401084   19.967127   24.254898 H          1 MOL1         0.0752
      13    C5      19.599088   19.229078   22.366037 C.3        1 MOL1        -0.1858
      14    H7      19.517736   18.268368   21.839718 H          1 MOL1         0.0752
      15    H8      18.573243   19.591652   22.506237 H          1 MOL1         0.0752
      16    C6      20.340638   20.248193   21.464384 C.3        1 MOL1        -0.1858
      17    H9      20.345656   21.237987   21.941027 H          1 MOL1         0.0752
      18    H10     19.751892   20.364024   20.544148 H          1 MOL1         0.0752
      19    C7      21.780259   19.836844   21.066282 C.3        1 MOL1        -0.1834
      20    H11     21.881525   18.742844   21.078267 H          1 MOL1         0.0752
      21    H12     21.960661   20.148380   20.028158 H          1 MOL1         0.0752
      22    C8      22.865088   20.485577   21.954852 C.3        1 MOL1        -0.2849
      23    H13     22.749236   20.208075   23.008745 H          1 MOL1         0.0764
      24    H14     23.865447   20.169099   21.632468 H          1 MOL1         0.0764
      25    H15     22.821369   21.580358   21.886856 H          1 MOL1         0.0764
@<TRIPOS>BOND
    1     1     2    1
    2     1     3    2
    3     1     4    1
    4     4     5    1
    5     4     6    1
    6     4     7    1
    7     7     8    1
    8     7     9    1
    9     7    10    1
   10    10    11    1
   11    10    12    1
   12    10    13    1
   13    13    14    1
   14    13    15    1
   15    13    16    1
   16    16    17    1
   17    16    18    1
   18    16    19    1
   19    19    20    1
   20    19    21    1
   21    19    22    1
   22    22    23    1
   23    22    24    1
   24    22    25    1
@<TRIPOS>SUBSTRUCTURE
       1 MOL1            1 RESIDUE      1      MOL     
@<SCITEGIC>MOL_PROPERTY
VConf Rank
SciTegic.value.IntegerValue
832

@<SCITEGIC>MOL_PROPERTY
Conf_Id
SciTegic.value.IntegerValue
19

@<SCITEGIC>MOL_PROPERTY
Delta U+W
SciTegic.value.DoubleValue
3.222

@<SCITEGIC>MOL_PROPERTY
U+W
SciTegic.value.DoubleValue
-48.407

@<SCITEGIC>MOL_PROPERTY
Grad RMS
SciTegic.value.DoubleValue
0.000000

@<SCITEGIC>MOL_PROPERTY
U
SciTegic.value.DoubleValue
10.617

@<SCITEGIC>MOL_PROPERTY
W
SciTegic.value.DoubleValue
-59.025

@<SCITEGIC>MOL_PROPERTY
W(PB)
SciTegic.value.DoubleValue
-61.462

@<SCITEGIC>MOL_PROPERTY
W(SA)
SciTegic.value.DoubleValue
2.437

@<SCITEGIC>MOL_PROPERTY
Valence
SciTegic.value.DoubleValue
11.188

@<SCITEGIC>MOL_PROPERTY
Coulomb
SciTegic.value.DoubleValue
-1.778

@<SCITEGIC>MOL_PROPERTY
VdW
SciTegic.value.DoubleValue
1.208

@<SCITEGIC>MOL_PROPERTY
VdW6
SciTegic.value.DoubleValue
-9.786

@<SCITEGIC>MOL_PROPERTY
VdW12
SciTegic.value.DoubleValue
10.993

@<SCITEGIC>MOL_PROPERTY
Bond
SciTegic.value.DoubleValue
0.241

@<SCITEGIC>MOL_PROPERTY
Angle
SciTegic.value.DoubleValue
3.294

@<SCITEGIC>MOL_PROPERTY
Pdih
SciTegic.value.DoubleValue
7.653

@<SCITEGIC>MOL_PROPERTY
Idih
SciTegic.value.DoubleValue
0.001

@<SCITEGIC>MOL_PROPERTY
Tether
SciTegic.value.DoubleValue
0.000

@<TRIPOS>MOLECULE
guest-8_confgen4.mol2 : confsearch ligand conformer 833
          25          24           1
SMALL
USER_CHARGES
 
@<TRIPOS>ATOM
       1    C1      20.858194   16.255767   26.177192 C.2        1 MOL1         0.6168
       2    O1      21.973177   15.777884   26.105199 O.co2      1 MOL1        -0.6703
       3    O2      19.931561   15.718710   26.751378 O.co2      1 MOL1        -0.6703
       4    C2      20.601539   17.591850   25.489302 C.3        1 MOL1        -0.1963
       5    H1      21.524027   18.179567   25.550758 H          1 MOL1         0.0750
       6    H2      19.835291   18.127313   26.062443 H          1 MOL1         0.0750
       7    C3      20.150259   17.429258   24.014263 C.3        1 MOL1        -0.1860
       8    H3      20.944640   16.934903   23.438195 H          1 MOL1         0.0752
       9    H4      19.282483   16.755748   23.986052 H          1 MOL1         0.0752
      10    C4      19.761336   18.763138   23.332766 C.3        1 MOL1        -0.1858
      11    H5      18.985000   19.267675   23.923802 H          1 MOL1         0.0752
      12    H6      19.313646   18.525606   22.359554 H          1 MOL1         0.0752
      13    C5      20.960042   19.717362   23.115911 C.3        1 MOL1        -0.1858
      14    H7      21.456282   19.907527   24.075630 H          1 MOL1         0.0752
      15    H8      21.705047   19.226573   22.475060 H          1 MOL1         0.0752
      16    C6      20.577476   21.088182   22.502746 C.3        1 MOL1        -0.1858
      17    H9      21.493436   21.692243   22.447995 H          1 MOL1         0.0752
      18    H10     19.904387   21.629146   23.181875 H          1 MOL1         0.0752
      19    C7      19.962674   21.016161   21.082523 C.3        1 MOL1        -0.1834
      20    H11     20.331782   21.868738   20.495861 H          1 MOL1         0.0752
      21    H12     20.311016   20.113803   20.561329 H          1 MOL1         0.0752
      22    C8      18.418584   21.071336   21.085505 C.3        1 MOL1        -0.2849
      23    H13     18.062806   22.007856   21.534318 H          1 MOL1         0.0764
      24    H14     18.030499   21.022134   20.059944 H          1 MOL1         0.0764
      25    H15     17.981463   20.239492   21.649490 H          1 MOL1         0.0764
@<TRIPOS>BOND
    1     1     2    1
    2     1     3    2
    3     1     4    1
    4     4     5    1
    5     4     6    1
    6     4     7    1
    7     7     8    1
    8     7     9    1
    9     7    10    1
   10    10    11    1
   11    10    12    1
   12    10    13    1
   13    13    14    1
   14    13    15    1
   15    13    16    1
   16    16    17    1
   17    16    18    1
   18    16    19    1
   19    19    20    1
   20    19    21    1
   21    19    22    1
   22    22    23    1
   23    22    24    1
   24    22    25    1
@<TRIPOS>SUBSTRUCTURE
       1 MOL1            1 RESIDUE      1      MOL     
@<SCITEGIC>MOL_PROPERTY
VConf Rank
SciTegic.value.IntegerValue
833

@<SCITEGIC>MOL_PROPERTY
Conf_Id
SciTegic.value.IntegerValue
20

@<SCITEGIC>MOL_PROPERTY
Delta U+W
SciTegic.value.DoubleValue
3.224

@<SCITEGIC>MOL_PROPERTY
U+W
SciTegic.value.DoubleValue
-48.406

@<SCITEGIC>MOL_PROPERTY
Grad RMS
SciTegic.value.DoubleValue
0.000000

@<SCITEGIC>MOL_PROPERTY
U
SciTegic.value.DoubleValue
10.617

@<SCITEGIC>MOL_PROPERTY
W
SciTegic.value.DoubleValue
-59.023

@<SCITEGIC>MOL_PROPERTY
W(PB)
SciTegic.value.DoubleValue
-61.467

@<SCITEGIC>MOL_PROPERTY
W(SA)
SciTegic.value.DoubleValue
2.444

@<SCITEGIC>MOL_PROPERTY
Valence
SciTegic.value.DoubleValue
11.188

@<SCITEGIC>MOL_PROPERTY
Coulomb
SciTegic.value.DoubleValue
-1.778

@<SCITEGIC>MOL_PROPERTY
VdW
SciTegic.value.DoubleValue
1.208

@<SCITEGIC>MOL_PROPERTY
VdW6
SciTegic.value.DoubleValue
-9.786

@<SCITEGIC>MOL_PROPERTY
VdW12
SciTegic.value.DoubleValue
10.993

@<SCITEGIC>MOL_PROPERTY
Bond
SciTegic.value.DoubleValue
0.241

@<SCITEGIC>MOL_PROPERTY
Angle
SciTegic.value.DoubleValue
3.294

@<SCITEGIC>MOL_PROPERTY
Pdih
SciTegic.value.DoubleValue
7.653

@<SCITEGIC>MOL_PROPERTY
Idih
SciTegic.value.DoubleValue
0.001

@<SCITEGIC>MOL_PROPERTY
Tether
SciTegic.value.DoubleValue
0.000

@<TRIPOS>MOLECULE
guest-8_confgen4.mol2 : confsearch ligand conformer 834
          25          24           1
SMALL
USER_CHARGES
 
@<TRIPOS>ATOM
       1    C1      22.314837   18.120310   25.310051 C.2        1 MOL1         0.6168
       2    O1      22.099483   18.462187   26.456519 O.co2      1 MOL1        -0.6703
       3    O2      23.122971   18.669347   24.587074 O.co2      1 MOL1        -0.6703
       4    C2      21.580300   16.895259   24.768667 C.3        1 MOL1        -0.1963
       5    H1      21.905277   16.045936   25.380637 H          1 MOL1         0.0750
       6    H2      21.924828   16.695758   23.746763 H          1 MOL1         0.0750
       7    C3      20.028467   16.981743   24.806673 C.3        1 MOL1        -0.1860
       8    H3      19.630520   15.959378   24.753412 H          1 MOL1         0.0752
       9    H4      19.699351   17.383716   25.775019 H          1 MOL1         0.0752
      10    C4      19.394640   17.795264   23.651021 C.3        1 MOL1        -0.1858
      11    H5      18.305277   17.659840   23.694968 H          1 MOL1         0.0752
      12    H6      19.718306   17.381072   22.686386 H          1 MOL1         0.0752
      13    C5      19.709191   19.307690   23.698484 C.3        1 MOL1        -0.1858
      14    H7      19.482417   19.700439   24.699168 H          1 MOL1         0.0752
      15    H8      20.780043   19.471316   23.523823 H          1 MOL1         0.0752
      16    C6      18.903920   20.092114   22.639811 C.3        1 MOL1        -0.1858
      17    H9      17.828904   19.942516   22.809893 H          1 MOL1         0.0752
      18    H10     19.128287   19.694817   21.640388 H          1 MOL1         0.0752
      19    C7      19.225794   21.600840   22.678752 C.3        1 MOL1        -0.1834
      20    H11     19.001667   22.001522   23.677090 H          1 MOL1         0.0752
      21    H12     20.300305   21.754565   22.507288 H          1 MOL1         0.0752
      22    C8      18.420751   22.381393   21.620304 C.3        1 MOL1        -0.2849
      23    H13     17.341318   22.270541   21.787353 H          1 MOL1         0.0764
      24    H14     18.662070   23.451472   21.662276 H          1 MOL1         0.0764
      25    H15     18.649884   22.021686   20.608631 H          1 MOL1         0.0764
@<TRIPOS>BOND
    1     1     2    1
    2     1     3    2
    3     1     4    1
    4     4     5    1
    5     4     6    1
    6     4     7    1
    7     7     8    1
    8     7     9    1
    9     7    10    1
   10    10    11    1
   11    10    12    1
   12    10    13    1
   13    13    14    1
   14    13    15    1
   15    13    16    1
   16    16    17    1
   17    16    18    1
   18    16    19    1
   19    19    20    1
   20    19    21    1
   21    19    22    1
   22    22    23    1
   23    22    24    1
   24    22    25    1
@<TRIPOS>SUBSTRUCTURE
       1 MOL1            1 RESIDUE      1      MOL     
@<SCITEGIC>MOL_PROPERTY
VConf Rank
SciTegic.value.IntegerValue
834

@<SCITEGIC>MOL_PROPERTY
Conf_Id
SciTegic.value.IntegerValue
24

@<SCITEGIC>MOL_PROPERTY
Delta U+W
SciTegic.value.DoubleValue
1.784

@<SCITEGIC>MOL_PROPERTY
U+W
SciTegic.value.DoubleValue
-49.846

@<SCITEGIC>MOL_PROPERTY
Grad RMS
SciTegic.value.DoubleValue
0.000000

@<SCITEGIC>MOL_PROPERTY
U
SciTegic.value.DoubleValue
10.904

@<SCITEGIC>MOL_PROPERTY
W
SciTegic.value.DoubleValue
-60.749

@<SCITEGIC>MOL_PROPERTY
W(PB)
SciTegic.value.DoubleValue
-63.220

@<SCITEGIC>MOL_PROPERTY
W(SA)
SciTegic.value.DoubleValue
2.471

@<SCITEGIC>MOL_PROPERTY
Valence
SciTegic.value.DoubleValue
9.445

@<SCITEGIC>MOL_PROPERTY
Coulomb
SciTegic.value.DoubleValue
0.780

@<SCITEGIC>MOL_PROPERTY
VdW
SciTegic.value.DoubleValue
0.679

@<SCITEGIC>MOL_PROPERTY
VdW6
SciTegic.value.DoubleValue
-10.008

@<SCITEGIC>MOL_PROPERTY
VdW12
SciTegic.value.DoubleValue
10.687

@<SCITEGIC>MOL_PROPERTY
Bond
SciTegic.value.DoubleValue
0.201

@<SCITEGIC>MOL_PROPERTY
Angle
SciTegic.value.DoubleValue
3.198

@<SCITEGIC>MOL_PROPERTY
Pdih
SciTegic.value.DoubleValue
6.039

@<SCITEGIC>MOL_PROPERTY
Idih
SciTegic.value.DoubleValue
0.006

@<SCITEGIC>MOL_PROPERTY
Tether
SciTegic.value.DoubleValue
0.000

@<TRIPOS>MOLECULE
guest-8_confgen4.mol2 : confsearch ligand conformer 835
          25          24           1
SMALL
USER_CHARGES
 
@<TRIPOS>ATOM
       1    C1      22.173754   18.261835   25.944511 C.2        1 MOL1         0.6168
       2    O1      22.984580   17.489922   25.470850 O.co2      1 MOL1        -0.6703
       3    O2      22.404274   19.438678   26.142300 O.co2      1 MOL1        -0.6703
       4    C2      20.815656   17.711927   26.376436 C.3        1 MOL1        -0.1963
       5    H1      20.229326   18.522562   26.825740 H          1 MOL1         0.0750
       6    H2      21.016090   16.989413   27.175977 H          1 MOL1         0.0750
       7    C3      19.996536   17.011914   25.255665 C.3        1 MOL1        -0.1860
       8    H3      20.650427   16.348633   24.672502 H          1 MOL1         0.0752
       9    H4      19.254839   16.358973   25.735229 H          1 MOL1         0.0752
      10    C4      19.236132   17.973901   24.309382 C.3        1 MOL1        -0.1858
      11    H5      18.575668   18.625636   24.897484 H          1 MOL1         0.0752
      12    H6      18.581190   17.372197   23.664412 H          1 MOL1         0.0752
      13    C5      20.155829   18.836868   23.416033 C.3        1 MOL1        -0.1858
      14    H7      20.725115   19.540181   24.036735 H          1 MOL1         0.0752
      15    H8      20.885904   18.192652   22.907091 H          1 MOL1         0.0752
      16    C6      19.349492   19.634020   22.367730 C.3        1 MOL1        -0.1858
      17    H9      18.616736   20.273907   22.878262 H          1 MOL1         0.0752
      18    H10     18.781339   18.939129   21.734251 H          1 MOL1         0.0752
      19    C7      20.265870   20.504831   21.482680 C.3        1 MOL1        -0.1834
      20    H11     20.834656   21.202627   22.112893 H          1 MOL1         0.0752
      21    H12     20.999684   19.867550   20.969994 H          1 MOL1         0.0752
      22    C8      19.458024   21.299887   20.437243 C.3        1 MOL1        -0.2849
      23    H13     18.737232   21.969651   20.924325 H          1 MOL1         0.0764
      24    H14     20.125095   21.913000   19.817426 H          1 MOL1         0.0764
      25    H15     18.903557   20.624406   19.772666 H          1 MOL1         0.0764
@<TRIPOS>BOND
    1     1     2    1
    2     1     3    2
    3     1     4    1
    4     4     5    1
    5     4     6    1
    6     4     7    1
    7     7     8    1
    8     7     9    1
    9     7    10    1
   10    10    11    1
   11    10    12    1
   12    10    13    1
   13    13    14    1
   14    13    15    1
   15    13    16    1
   16    16    17    1
   17    16    18    1
   18    16    19    1
   19    19    20    1
   20    19    21    1
   21    19    22    1
   22    22    23    1
   23    22    24    1
   24    22    25    1
@<TRIPOS>SUBSTRUCTURE
       1 MOL1            1 RESIDUE      1      MOL     
@<SCITEGIC>MOL_PROPERTY
VConf Rank
SciTegic.value.IntegerValue
835

@<SCITEGIC>MOL_PROPERTY
Conf_Id
SciTegic.value.IntegerValue
9

@<SCITEGIC>MOL_PROPERTY
Delta U+W
SciTegic.value.DoubleValue
1.764

@<SCITEGIC>MOL_PROPERTY
U+W
SciTegic.value.DoubleValue
-49.865

@<SCITEGIC>MOL_PROPERTY
Grad RMS
SciTegic.value.DoubleValue
0.000000

@<SCITEGIC>MOL_PROPERTY
U
SciTegic.value.DoubleValue
10.902

@<SCITEGIC>MOL_PROPERTY
W
SciTegic.value.DoubleValue
-60.768

@<SCITEGIC>MOL_PROPERTY
W(PB)
SciTegic.value.DoubleValue
-63.223

@<SCITEGIC>MOL_PROPERTY
W(SA)
SciTegic.value.DoubleValue
2.456

@<SCITEGIC>MOL_PROPERTY
Valence
SciTegic.value.DoubleValue
9.445

@<SCITEGIC>MOL_PROPERTY
Coulomb
SciTegic.value.DoubleValue
0.778

@<SCITEGIC>MOL_PROPERTY
VdW
SciTegic.value.DoubleValue
0.679

@<SCITEGIC>MOL_PROPERTY
VdW6
SciTegic.value.DoubleValue
-10.007

@<SCITEGIC>MOL_PROPERTY
VdW12
SciTegic.value.DoubleValue
10.687

@<SCITEGIC>MOL_PROPERTY
Bond
SciTegic.value.DoubleValue
0.201

@<SCITEGIC>MOL_PROPERTY
Angle
SciTegic.value.DoubleValue
3.198

@<SCITEGIC>MOL_PROPERTY
Pdih
SciTegic.value.DoubleValue
6.040

@<SCITEGIC>MOL_PROPERTY
Idih
SciTegic.value.DoubleValue
0.006

@<SCITEGIC>MOL_PROPERTY
Tether
SciTegic.value.DoubleValue
0.000

@<TRIPOS>MOLECULE
guest-8_confgen4.mol2 : confsearch ligand conformer 836
          25          24           1
SMALL
USER_CHARGES
 
@<TRIPOS>ATOM
       1    C1      17.434824   21.074827   21.539626 C.2        1 MOL1         0.6168
       2    O1      16.841963   20.058236   21.236863 O.co2      1 MOL1        -0.6703
       3    O2      16.954888   22.187374   21.446090 O.co2      1 MOL1        -0.6703
       4    C2      18.851953   20.946371   22.086397 C.3        1 MOL1        -0.1963
       5    H1      19.417909   21.830297   21.769181 H          1 MOL1         0.0750
       6    H2      19.318251   20.080232   21.606987 H          1 MOL1         0.0750
       7    C3      18.888722   20.818036   23.632304 C.3        1 MOL1        -0.1860
       8    H3      18.415772   21.714503   24.056688 H          1 MOL1         0.0752
       9    H4      18.274377   19.966458   23.956047 H          1 MOL1         0.0752
      10    C4      20.322375   20.694911   24.208296 C.3        1 MOL1        -0.1858
      11    H5      20.348644   21.219639   25.173121 H          1 MOL1         0.0752
      12    H6      21.039183   21.221092   23.563190 H          1 MOL1         0.0752
      13    C5      20.796407   19.240909   24.457160 C.3        1 MOL1        -0.1858
      14    H7      21.782182   19.277555   24.940331 H          1 MOL1         0.0752
      15    H8      20.117989   18.761056   25.174737 H          1 MOL1         0.0752
      16    C6      20.896874   18.377685   23.177347 C.3        1 MOL1        -0.1858
      17    H9      21.449980   18.935685   22.409815 H          1 MOL1         0.0752
      18    H10     19.892415   18.192201   22.774971 H          1 MOL1         0.0752
      19    C7      21.604862   17.022254   23.407767 C.3        1 MOL1        -0.1834
      20    H11     21.723266   16.516850   22.439412 H          1 MOL1         0.0752
      21    H12     22.619035   17.194013   23.794011 H          1 MOL1         0.0752
      22    C8      20.835354   16.088112   24.366704 C.3        1 MOL1        -0.2849
      23    H13     19.809218   15.922052   24.013697 H          1 MOL1         0.0764
      24    H14     21.332419   15.111706   24.433099 H          1 MOL1         0.0764
      25    H15     20.787492   16.506555   25.379862 H          1 MOL1         0.0764
@<TRIPOS>BOND
    1     1     2    1
    2     1     3    2
    3     1     4    1
    4     4     5    1
    5     4     6    1
    6     4     7    1
    7     7     8    1
    8     7     9    1
    9     7    10    1
   10    10    11    1
   11    10    12    1
   12    10    13    1
   13    13    14    1
   14    13    15    1
   15    13    16    1
   16    16    17    1
   17    16    18    1
   18    16    19    1
   19    19    20    1
   20    19    21    1
   21    19    22    1
   22    22    23    1
   23    22    24    1
   24    22    25    1
@<TRIPOS>SUBSTRUCTURE
       1 MOL1            1 RESIDUE      1      MOL     
@<SCITEGIC>MOL_PROPERTY
VConf Rank
SciTegic.value.IntegerValue
836

@<SCITEGIC>MOL_PROPERTY
Conf_Id
SciTegic.value.IntegerValue
89

@<SCITEGIC>MOL_PROPERTY
Delta U+W
SciTegic.value.DoubleValue
2.903

@<SCITEGIC>MOL_PROPERTY
U+W
SciTegic.value.DoubleValue
-48.726

@<SCITEGIC>MOL_PROPERTY
Grad RMS
SciTegic.value.DoubleValue
0.000000

@<SCITEGIC>MOL_PROPERTY
U
SciTegic.value.DoubleValue
10.996

@<SCITEGIC>MOL_PROPERTY
W
SciTegic.value.DoubleValue
-59.723

@<SCITEGIC>MOL_PROPERTY
W(PB)
SciTegic.value.DoubleValue
-62.151

@<SCITEGIC>MOL_PROPERTY
W(SA)
SciTegic.value.DoubleValue
2.428

@<SCITEGIC>MOL_PROPERTY
Valence
SciTegic.value.DoubleValue
10.985

@<SCITEGIC>MOL_PROPERTY
Coulomb
SciTegic.value.DoubleValue
-0.995

@<SCITEGIC>MOL_PROPERTY
VdW
SciTegic.value.DoubleValue
1.006

@<SCITEGIC>MOL_PROPERTY
VdW6
SciTegic.value.DoubleValue
-10.062

@<SCITEGIC>MOL_PROPERTY
VdW12
SciTegic.value.DoubleValue
11.069

@<SCITEGIC>MOL_PROPERTY
Bond
SciTegic.value.DoubleValue
0.238

@<SCITEGIC>MOL_PROPERTY
Angle
SciTegic.value.DoubleValue
3.202

@<SCITEGIC>MOL_PROPERTY
Pdih
SciTegic.value.DoubleValue
7.544

@<SCITEGIC>MOL_PROPERTY
Idih
SciTegic.value.DoubleValue
0.001

@<SCITEGIC>MOL_PROPERTY
Tether
SciTegic.value.DoubleValue
0.000

@<TRIPOS>MOLECULE
guest-8_confgen4.mol2 : confsearch ligand conformer 837
          25          24           1
SMALL
USER_CHARGES
 
@<TRIPOS>ATOM
       1    C1      18.777959   16.987615   21.000058 C.2        1 MOL1         0.6168
       2    O1      17.695574   17.524378   20.867432 O.co2      1 MOL1        -0.6703
       3    O2      19.621575   16.954532   20.125515 O.co2      1 MOL1        -0.6703
       4    C2      19.065370   16.261619   22.312907 C.3        1 MOL1        -0.1963
       5    H1      19.168806   15.199971   22.060554 H          1 MOL1         0.0750
       6    H2      18.188334   16.344567   22.966127 H          1 MOL1         0.0750
       7    C3      20.343736   16.729290   23.064336 C.3        1 MOL1        -0.1860
       8    H3      20.651915   15.921184   23.741414 H          1 MOL1         0.0752
       9    H4      21.171275   16.858388   22.352938 H          1 MOL1         0.0752
      10    C4      20.168450   18.012787   23.913949 C.3        1 MOL1        -0.1858
      11    H5      21.075111   18.136833   24.519009 H          1 MOL1         0.0752
      12    H6      19.340349   17.876401   24.622610 H          1 MOL1         0.0752
      13    C5      19.931909   19.294136   23.078139 C.3        1 MOL1        -0.1858
      14    H7      20.725787   19.401979   22.326542 H          1 MOL1         0.0752
      15    H8      18.990022   19.195808   22.524951 H          1 MOL1         0.0752
      16    C6      19.844709   20.581931   23.932162 C.3        1 MOL1        -0.1858
      17    H9      19.072736   20.460420   24.704249 H          1 MOL1         0.0752
      18    H10     19.508840   21.403552   23.284835 H          1 MOL1         0.0752
      19    C7      21.184858   20.982729   24.590039 C.3        1 MOL1        -0.1834
      20    H11     21.502123   20.213712   25.306060 H          1 MOL1         0.0752
      21    H12     21.968609   21.049667   23.822939 H          1 MOL1         0.0752
      22    C8      21.071704   22.333661   25.325073 C.3        1 MOL1        -0.2849
      23    H13     20.312583   22.287134   26.116866 H          1 MOL1         0.0764
      24    H14     22.029430   22.602923   25.789087 H          1 MOL1         0.0764
      25    H15     20.794131   23.137373   24.630564 H          1 MOL1         0.0764
@<TRIPOS>BOND
    1     1     2    1
    2     1     3    2
    3     1     4    1
    4     4     5    1
    5     4     6    1
    6     4     7    1
    7     7     8    1
    8     7     9    1
    9     7    10    1
   10    10    11    1
   11    10    12    1
   12    10    13    1
   13    13    14    1
   14    13    15    1
   15    13    16    1
   16    16    17    1
   17    16    18    1
   18    16    19    1
   19    19    20    1
   20    19    21    1
   21    19    22    1
   22    22    23    1
   23    22    24    1
   24    22    25    1
@<TRIPOS>SUBSTRUCTURE
       1 MOL1            1 RESIDUE      1      MOL     
@<SCITEGIC>MOL_PROPERTY
VConf Rank
SciTegic.value.IntegerValue
837

@<SCITEGIC>MOL_PROPERTY
Conf_Id
SciTegic.value.IntegerValue
114

@<SCITEGIC>MOL_PROPERTY
Delta U+W
SciTegic.value.DoubleValue
2.758

@<SCITEGIC>MOL_PROPERTY
U+W
SciTegic.value.DoubleValue
-48.871

@<SCITEGIC>MOL_PROPERTY
Grad RMS
SciTegic.value.DoubleValue
0.000000

@<SCITEGIC>MOL_PROPERTY
U
SciTegic.value.DoubleValue
11.422

@<SCITEGIC>MOL_PROPERTY
W
SciTegic.value.DoubleValue
-60.293

@<SCITEGIC>MOL_PROPERTY
W(PB)
SciTegic.value.DoubleValue
-62.719

@<SCITEGIC>MOL_PROPERTY
W(SA)
SciTegic.value.DoubleValue
2.425

@<SCITEGIC>MOL_PROPERTY
Valence
SciTegic.value.DoubleValue
10.135

@<SCITEGIC>MOL_PROPERTY
Coulomb
SciTegic.value.DoubleValue
0.369

@<SCITEGIC>MOL_PROPERTY
VdW
SciTegic.value.DoubleValue
0.918

@<SCITEGIC>MOL_PROPERTY
VdW6
SciTegic.value.DoubleValue
-10.482

@<SCITEGIC>MOL_PROPERTY
VdW12
SciTegic.value.DoubleValue
11.400

@<SCITEGIC>MOL_PROPERTY
Bond
SciTegic.value.DoubleValue
0.245

@<SCITEGIC>MOL_PROPERTY
Angle
SciTegic.value.DoubleValue
3.539

@<SCITEGIC>MOL_PROPERTY
Pdih
SciTegic.value.DoubleValue
6.346

@<SCITEGIC>MOL_PROPERTY
Idih
SciTegic.value.DoubleValue
0.006

@<SCITEGIC>MOL_PROPERTY
Tether
SciTegic.value.DoubleValue
0.000

@<TRIPOS>MOLECULE
guest-8_confgen4.mol2 : confsearch ligand conformer 838
          25          24           1
SMALL
USER_CHARGES
 
@<TRIPOS>ATOM
       1    C1      22.236971   16.172418   21.967909 C.2        1 MOL1         0.6168
       2    O1      23.316574   16.223822   22.523677 O.co2      1 MOL1        -0.6703
       3    O2      21.477431   15.228060   22.059483 O.co2      1 MOL1        -0.6703
       4    C2      21.819004   17.348396   21.089656 C.3        1 MOL1        -0.1963
       5    H1      21.419164   16.935271   20.156150 H          1 MOL1         0.0750
       6    H2      22.714782   17.922865   20.824434 H          1 MOL1         0.0750
       7    C3      20.760331   18.275369   21.741508 C.3        1 MOL1        -0.1860
       8    H3      20.424527   19.011057   20.998373 H          1 MOL1         0.0752
       9    H4      19.882529   17.674739   22.013602 H          1 MOL1         0.0752
      10    C4      21.308704   19.017655   22.983906 C.3        1 MOL1        -0.1858
      11    H5      22.238152   19.534136   22.707830 H          1 MOL1         0.0752
      12    H6      21.578655   18.292316   23.763849 H          1 MOL1         0.0752
      13    C5      20.324383   20.059507   23.567292 C.3        1 MOL1        -0.1858
      14    H7      20.853700   20.628692   24.341913 H          1 MOL1         0.0752
      15    H8      20.045769   20.780355   22.786730 H          1 MOL1         0.0752
      16    C6      19.047913   19.428123   24.175996 C.3        1 MOL1        -0.1858
      17    H9      19.327294   18.704700   24.953997 H          1 MOL1         0.0752
      18    H10     18.515133   18.862250   23.401402 H          1 MOL1         0.0752
      19    C7      18.068343   20.469794   24.765744 C.3        1 MOL1        -0.1834
      20    H11     17.795725   21.201990   23.993180 H          1 MOL1         0.0752
      21    H12     17.138631   19.956935   25.048321 H          1 MOL1         0.0752
      22    C8      18.624746   21.203666   26.005403 C.3        1 MOL1        -0.2849
      23    H13     17.857807   21.857794   26.439943 H          1 MOL1         0.0764
      24    H14     18.936296   20.488965   26.778224 H          1 MOL1         0.0764
      25    H15     19.487249   21.830647   25.747738 H          1 MOL1         0.0764
@<TRIPOS>BOND
    1     1     2    1
    2     1     3    2
    3     1     4    1
    4     4     5    1
    5     4     6    1
    6     4     7    1
    7     7     8    1
    8     7     9    1
    9     7    10    1
   10    10    11    1
   11    10    12    1
   12    10    13    1
   13    13    14    1
   14    13    15    1
   15    13    16    1
   16    16    17    1
   17    16    18    1
   18    16    19    1
   19    19    20    1
   20    19    21    1
   21    19    22    1
   22    22    23    1
   23    22    24    1
   24    22    25    1
@<TRIPOS>SUBSTRUCTURE
       1 MOL1            1 RESIDUE      1      MOL     
@<SCITEGIC>MOL_PROPERTY
VConf Rank
SciTegic.value.IntegerValue
838

@<SCITEGIC>MOL_PROPERTY
Conf_Id
SciTegic.value.IntegerValue
87

@<SCITEGIC>MOL_PROPERTY
Delta U+W
SciTegic.value.DoubleValue
1.453

@<SCITEGIC>MOL_PROPERTY
U+W
SciTegic.value.DoubleValue
-50.176

@<SCITEGIC>MOL_PROPERTY
Grad RMS
SciTegic.value.DoubleValue
0.000000

@<SCITEGIC>MOL_PROPERTY
U
SciTegic.value.DoubleValue
9.763

@<SCITEGIC>MOL_PROPERTY
W
SciTegic.value.DoubleValue
-59.940

@<SCITEGIC>MOL_PROPERTY
W(PB)
SciTegic.value.DoubleValue
-62.392

@<SCITEGIC>MOL_PROPERTY
W(SA)
SciTegic.value.DoubleValue
2.452

@<SCITEGIC>MOL_PROPERTY
Valence
SciTegic.value.DoubleValue
8.883

@<SCITEGIC>MOL_PROPERTY
Coulomb
SciTegic.value.DoubleValue
-0.122

@<SCITEGIC>MOL_PROPERTY
VdW
SciTegic.value.DoubleValue
1.003

@<SCITEGIC>MOL_PROPERTY
VdW6
SciTegic.value.DoubleValue
-9.782

@<SCITEGIC>MOL_PROPERTY
VdW12
SciTegic.value.DoubleValue
10.785

@<SCITEGIC>MOL_PROPERTY
Bond
SciTegic.value.DoubleValue
0.212

@<SCITEGIC>MOL_PROPERTY
Angle
SciTegic.value.DoubleValue
2.940

@<SCITEGIC>MOL_PROPERTY
Pdih
SciTegic.value.DoubleValue
5.730

@<SCITEGIC>MOL_PROPERTY
Idih
SciTegic.value.DoubleValue
0.001

@<SCITEGIC>MOL_PROPERTY
Tether
SciTegic.value.DoubleValue
0.000

@<TRIPOS>MOLECULE
guest-8_confgen4.mol2 : confsearch ligand conformer 839
          25          24           1
SMALL
USER_CHARGES
 
@<TRIPOS>ATOM
       1    C1      16.437173   20.056390   22.070550 C.2        1 MOL1         0.6168
       2    O1      15.863783   20.303229   23.113133 O.co2      1 MOL1        -0.6703
       3    O2      16.185601   20.607315   21.017015 O.co2      1 MOL1        -0.6703
       4    C2      17.546281   19.010587   22.088989 C.3        1 MOL1        -0.1963
       5    H1      17.551680   18.502700   21.117133 H          1 MOL1         0.0750
       6    H2      17.293495   18.259131   22.846609 H          1 MOL1         0.0750
       7    C3      18.940123   19.617464   22.383700 C.3        1 MOL1        -0.1860
       8    H3      19.175890   20.373723   21.622367 H          1 MOL1         0.0752
       9    H4      18.904125   20.136445   23.350730 H          1 MOL1         0.0752
      10    C4      20.044370   18.535397   22.403619 C.3        1 MOL1        -0.1858
      11    H5      20.018956   17.981420   21.455418 H          1 MOL1         0.0752
      12    H6      19.830767   17.800800   23.191112 H          1 MOL1         0.0752
      13    C5      21.469662   19.112364   22.593330 C.3        1 MOL1        -0.1858
      14    H7      22.195315   18.290443   22.536301 H          1 MOL1         0.0752
      15    H8      21.700606   19.771338   21.745457 H          1 MOL1         0.0752
      16    C6      21.695058   19.902543   23.909626 C.3        1 MOL1        -0.1858
      17    H9      21.086923   20.816425   23.893549 H          1 MOL1         0.0752
      18    H10     22.739203   20.242219   23.939110 H          1 MOL1         0.0752
      19    C7      21.389060   19.118957   25.209814 C.3        1 MOL1        -0.1834
      20    H11     21.559484   19.783699   26.067707 H          1 MOL1         0.0752
      21    H12     20.326274   18.844883   25.244498 H          1 MOL1         0.0752
      22    C8      22.259490   17.855018   25.379670 C.3        1 MOL1        -0.2849
      23    H13     23.327431   18.104273   25.331636 H          1 MOL1         0.0764
      24    H14     22.065243   17.382228   26.350992 H          1 MOL1         0.0764
      25    H15     22.043014   17.114379   24.599583 H          1 MOL1         0.0764
@<TRIPOS>BOND
    1     1     2    1
    2     1     3    2
    3     1     4    1
    4     4     5    1
    5     4     6    1
    6     4     7    1
    7     7     8    1
    8     7     9    1
    9     7    10    1
   10    10    11    1
   11    10    12    1
   12    10    13    1
   13    13    14    1
   14    13    15    1
   15    13    16    1
   16    16    17    1
   17    16    18    1
   18    16    19    1
   19    19    20    1
   20    19    21    1
   21    19    22    1
   22    22    23    1
   23    22    24    1
   24    22    25    1
@<TRIPOS>SUBSTRUCTURE
       1 MOL1            1 RESIDUE      1      MOL     
@<SCITEGIC>MOL_PROPERTY
VConf Rank
SciTegic.value.IntegerValue
839

@<SCITEGIC>MOL_PROPERTY
Conf_Id
SciTegic.value.IntegerValue
29

@<SCITEGIC>MOL_PROPERTY
Delta U+W
SciTegic.value.DoubleValue
0.850

@<SCITEGIC>MOL_PROPERTY
U+W
SciTegic.value.DoubleValue
-50.780

@<SCITEGIC>MOL_PROPERTY
Grad RMS
SciTegic.value.DoubleValue
0.000000

@<SCITEGIC>MOL_PROPERTY
U
SciTegic.value.DoubleValue
8.646

@<SCITEGIC>MOL_PROPERTY
W
SciTegic.value.DoubleValue
-59.426

@<SCITEGIC>MOL_PROPERTY
W(PB)
SciTegic.value.DoubleValue
-61.868

@<SCITEGIC>MOL_PROPERTY
W(SA)
SciTegic.value.DoubleValue
2.442

@<SCITEGIC>MOL_PROPERTY
Valence
SciTegic.value.DoubleValue
8.924

@<SCITEGIC>MOL_PROPERTY
Coulomb
SciTegic.value.DoubleValue
-1.171

@<SCITEGIC>MOL_PROPERTY
VdW
SciTegic.value.DoubleValue
0.894

@<SCITEGIC>MOL_PROPERTY
VdW6
SciTegic.value.DoubleValue
-10.223

@<SCITEGIC>MOL_PROPERTY
VdW12
SciTegic.value.DoubleValue
11.117

@<SCITEGIC>MOL_PROPERTY
Bond
SciTegic.value.DoubleValue
0.231

@<SCITEGIC>MOL_PROPERTY
Angle
SciTegic.value.DoubleValue
3.232

@<SCITEGIC>MOL_PROPERTY
Pdih
SciTegic.value.DoubleValue
5.461

@<SCITEGIC>MOL_PROPERTY
Idih
SciTegic.value.DoubleValue
0.001

@<SCITEGIC>MOL_PROPERTY
Tether
SciTegic.value.DoubleValue
0.000

@<TRIPOS>MOLECULE
guest-8_confgen4.mol2 : confsearch ligand conformer 840
          25          24           1
SMALL
USER_CHARGES
 
@<TRIPOS>ATOM
       1    C1      23.063801   18.774465   25.806299 C.2        1 MOL1         0.6168
       2    O1      24.009389   18.907333   25.054704 O.co2      1 MOL1        -0.6703
       3    O2      23.081802   18.063779   26.791865 O.co2      1 MOL1        -0.6703
       4    C2      21.777201   19.526337   25.484551 C.3        1 MOL1        -0.1963
       5    H1      22.047151   20.469194   24.993916 H          1 MOL1         0.0750
       6    H2      21.286270   19.781924   26.431200 H          1 MOL1         0.0750
       7    C3      20.814496   18.713126   24.584640 C.3        1 MOL1        -0.1860
       8    H3      21.334306   18.452510   23.653156 H          1 MOL1         0.0752
       9    H4      20.559689   17.768658   25.084837 H          1 MOL1         0.0752
      10    C4      19.522304   19.500913   24.267991 C.3        1 MOL1        -0.1858
      11    H5      19.772809   20.426033   23.732447 H          1 MOL1         0.0752
      12    H6      19.053553   19.812522   25.211280 H          1 MOL1         0.0752
      13    C5      18.486330   18.684957   23.454779 C.3        1 MOL1        -0.1858
      14    H7      18.177191   17.813848   24.048138 H          1 MOL1         0.0752
      15    H8      17.580564   19.291605   23.324601 H          1 MOL1         0.0752
      16    C6      18.973876   18.190423   22.067134 C.3        1 MOL1        -0.1858
      17    H9      18.152586   17.646224   21.581521 H          1 MOL1         0.0752
      18    H10     19.776120   17.453797   22.205166 H          1 MOL1         0.0752
      19    C7      19.471367   19.300535   21.108862 C.3        1 MOL1        -0.1834
      20    H11     20.350724   19.801423   21.535100 H          1 MOL1         0.0752
      21    H12     19.811730   18.831111   20.175750 H          1 MOL1         0.0752
      22    C8      18.387119   20.347005   20.772198 C.3        1 MOL1        -0.2849
      23    H13     18.092734   20.916375   21.662760 H          1 MOL1         0.0764
      24    H14     18.760973   21.062113   20.028167 H          1 MOL1         0.0764
      25    H15     17.491335   19.865440   20.359158 H          1 MOL1         0.0764
@<TRIPOS>BOND
    1     1     2    1
    2     1     3    2
    3     1     4    1
    4     4     5    1
    5     4     6    1
    6     4     7    1
    7     7     8    1
    8     7     9    1
    9     7    10    1
   10    10    11    1
   11    10    12    1
   12    10    13    1
   13    13    14    1
   14    13    15    1
   15    13    16    1
   16    16    17    1
   17    16    18    1
   18    16    19    1
   19    19    20    1
   20    19    21    1
   21    19    22    1
   22    22    23    1
   23    22    24    1
   24    22    25    1
@<TRIPOS>SUBSTRUCTURE
       1 MOL1            1 RESIDUE      1      MOL     
@<SCITEGIC>MOL_PROPERTY
VConf Rank
SciTegic.value.IntegerValue
840

@<SCITEGIC>MOL_PROPERTY
Conf_Id
SciTegic.value.IntegerValue
30

@<SCITEGIC>MOL_PROPERTY
Delta U+W
SciTegic.value.DoubleValue
0.843

@<SCITEGIC>MOL_PROPERTY
U+W
SciTegic.value.DoubleValue
-50.787

@<SCITEGIC>MOL_PROPERTY
Grad RMS
SciTegic.value.DoubleValue
0.000000

@<SCITEGIC>MOL_PROPERTY
U
SciTegic.value.DoubleValue
8.647

@<SCITEGIC>MOL_PROPERTY
W
SciTegic.value.DoubleValue
-59.434

@<SCITEGIC>MOL_PROPERTY
W(PB)
SciTegic.value.DoubleValue
-61.861

@<SCITEGIC>MOL_PROPERTY
W(SA)
SciTegic.value.DoubleValue
2.428

@<SCITEGIC>MOL_PROPERTY
Valence
SciTegic.value.DoubleValue
8.924

@<SCITEGIC>MOL_PROPERTY
Coulomb
SciTegic.value.DoubleValue
-1.170

@<SCITEGIC>MOL_PROPERTY
VdW
SciTegic.value.DoubleValue
0.894

@<SCITEGIC>MOL_PROPERTY
VdW6
SciTegic.value.DoubleValue
-10.224

@<SCITEGIC>MOL_PROPERTY
VdW12
SciTegic.value.DoubleValue
11.118

@<SCITEGIC>MOL_PROPERTY
Bond
SciTegic.value.DoubleValue
0.231

@<SCITEGIC>MOL_PROPERTY
Angle
SciTegic.value.DoubleValue
3.232

@<SCITEGIC>MOL_PROPERTY
Pdih
SciTegic.value.DoubleValue
5.460

@<SCITEGIC>MOL_PROPERTY
Idih
SciTegic.value.DoubleValue
0.000

@<SCITEGIC>MOL_PROPERTY
Tether
SciTegic.value.DoubleValue
0.000

@<TRIPOS>MOLECULE
guest-8_confgen4.mol2 : confsearch ligand conformer 841
          25          24           1
SMALL
USER_CHARGES
 
@<TRIPOS>ATOM
       1    C1      16.714185   18.696926   26.387280 C.2        1 MOL1         0.6168
       2    O1      16.922519   19.791769   26.873608 O.co2      1 MOL1        -0.6703
       3    O2      15.861457   17.937555   26.802407 O.co2      1 MOL1        -0.6703
       4    C2      17.548950   18.224837   25.195769 C.3        1 MOL1        -0.1963
       5    H1      16.853523   17.995231   24.379945 H          1 MOL1         0.0750
       6    H2      18.027208   17.281672   25.484933 H          1 MOL1         0.0750
       7    C3      18.624451   19.228564   24.701556 C.3        1 MOL1        -0.1860
       8    H3      18.139156   20.173283   24.419598 H          1 MOL1         0.0752
       9    H4      19.313944   19.459043   25.525561 H          1 MOL1         0.0752
      10    C4      19.418832   18.673485   23.499270 C.3        1 MOL1        -0.1858
      11    H5      18.727524   18.443758   22.676802 H          1 MOL1         0.0752
      12    H6      19.903063   17.729085   23.783463 H          1 MOL1         0.0752
      13    C5      20.488085   19.673539   23.009292 C.3        1 MOL1        -0.1858
      14    H7      20.004135   20.618035   22.724995 H          1 MOL1         0.0752
      15    H8      21.179573   19.903423   23.831545 H          1 MOL1         0.0752
      16    C6      21.282724   19.119155   21.807160 C.3        1 MOL1        -0.1858
      17    H9      20.591426   18.889249   20.984759 H          1 MOL1         0.0752
      18    H10     21.766850   18.174698   22.091268 H          1 MOL1         0.0752
      19    C7      22.351505   20.118700   21.317285 C.3        1 MOL1        -0.1834
      20    H11     21.870659   21.064194   21.030376 H          1 MOL1         0.0752
      21    H12     23.046079   20.349648   22.136869 H          1 MOL1         0.0752
      22    C8      23.142776   19.561467   20.116874 C.3        1 MOL1        -0.2849
      23    H13     22.475960   19.351002   19.270435 H          1 MOL1         0.0764
      24    H14     23.897725   20.284582   19.781846 H          1 MOL1         0.0764
      25    H15     23.660242   18.631093   20.385257 H          1 MOL1         0.0764
@<TRIPOS>BOND
    1     1     2    1
    2     1     3    2
    3     1     4    1
    4     4     5    1
    5     4     6    1
    6     4     7    1
    7     7     8    1
    8     7     9    1
    9     7    10    1
   10    10    11    1
   11    10    12    1
   12    10    13    1
   13    13    14    1
   14    13    15    1
   15    13    16    1
   16    16    17    1
   17    16    18    1
   18    16    19    1
   19    19    20    1
   20    19    21    1
   21    19    22    1
   22    22    23    1
   23    22    24    1
   24    22    25    1
@<TRIPOS>SUBSTRUCTURE
       1 MOL1            1 RESIDUE      1      MOL     
@<SCITEGIC>MOL_PROPERTY
VConf Rank
SciTegic.value.IntegerValue
841

@<SCITEGIC>MOL_PROPERTY
Conf_Id
SciTegic.value.IntegerValue
0

@<SCITEGIC>MOL_PROPERTY
Delta U+W
SciTegic.value.DoubleValue
0.000

@<SCITEGIC>MOL_PROPERTY
U+W
SciTegic.value.DoubleValue
-51.629

@<SCITEGIC>MOL_PROPERTY
Grad RMS
SciTegic.value.DoubleValue
0.000000

@<SCITEGIC>MOL_PROPERTY
U
SciTegic.value.DoubleValue
6.586

@<SCITEGIC>MOL_PROPERTY
W
SciTegic.value.DoubleValue
-58.216

@<SCITEGIC>MOL_PROPERTY
W(PB)
SciTegic.value.DoubleValue
-60.757

@<SCITEGIC>MOL_PROPERTY
W(SA)
SciTegic.value.DoubleValue
2.541

@<SCITEGIC>MOL_PROPERTY
Valence
SciTegic.value.DoubleValue
8.027

@<SCITEGIC>MOL_PROPERTY
Coulomb
SciTegic.value.DoubleValue
-2.892

@<SCITEGIC>MOL_PROPERTY
VdW
SciTegic.value.DoubleValue
1.451

@<SCITEGIC>MOL_PROPERTY
VdW6
SciTegic.value.DoubleValue
-7.931

@<SCITEGIC>MOL_PROPERTY
VdW12
SciTegic.value.DoubleValue
9.383

@<SCITEGIC>MOL_PROPERTY
Bond
SciTegic.value.DoubleValue
0.149

@<SCITEGIC>MOL_PROPERTY
Angle
SciTegic.value.DoubleValue
2.726

@<SCITEGIC>MOL_PROPERTY
Pdih
SciTegic.value.DoubleValue
5.152

@<SCITEGIC>MOL_PROPERTY
Idih
SciTegic.value.DoubleValue
0.000

@<SCITEGIC>MOL_PROPERTY
Tether
SciTegic.value.DoubleValue
0.000

@<TRIPOS>MOLECULE
guest-8_confgen4.mol2 : confsearch ligand conformer 842
          25          24           1
SMALL
USER_CHARGES
 
@<TRIPOS>ATOM
       1    C1      23.396828   15.817482   23.188936 C.2        1 MOL1         0.6168
       2    O1      22.962917   14.685165   23.110195 O.co2      1 MOL1        -0.6703
       3    O2      24.469519   16.160863   22.732816 O.co2      1 MOL1        -0.6703
       4    C2      22.537343   16.871207   23.878159 C.3        1 MOL1        -0.1963
       5    H1      23.206212   17.593633   24.361192 H          1 MOL1         0.0750
       6    H2      21.965055   16.377476   24.672717 H          1 MOL1         0.0750
       7    C3      21.579818   17.598446   22.902304 C.3        1 MOL1        -0.1860
       8    H3      22.167355   18.076124   22.105926 H          1 MOL1         0.0752
       9    H4      20.926338   16.859962   22.417332 H          1 MOL1         0.0752
      10    C4      20.720894   18.659603   23.623565 C.3        1 MOL1        -0.1858
      11    H5      21.377080   19.395628   24.108197 H          1 MOL1         0.0752
      12    H6      20.135883   18.179135   24.419864 H          1 MOL1         0.0752
      13    C5      19.767249   19.382729   22.648312 C.3        1 MOL1        -0.1858
      14    H7      20.352032   19.863329   21.851973 H          1 MOL1         0.0752
      15    H8      19.110973   18.646893   22.163593 H          1 MOL1         0.0752
      16    C6      18.907957   20.443993   23.368877 C.3        1 MOL1        -0.1858
      17    H9      19.563951   21.180055   23.853625 H          1 MOL1         0.0752
      18    H10     18.323031   19.963689   24.165284 H          1 MOL1         0.0752
      19    C7      17.954610   21.166852   22.394216 C.3        1 MOL1        -0.1834
      20    H11     18.536370   21.650177   21.597070 H          1 MOL1         0.0752
      21    H12     17.295444   20.433833   21.908753 H          1 MOL1         0.0752
      22    C8      17.098367   22.225750   23.117530 C.3        1 MOL1        -0.2849
      23    H13     16.426923   22.729484   22.410068 H          1 MOL1         0.0764
      24    H14     16.481800   21.764586   23.900199 H          1 MOL1         0.0764
      25    H15     17.732069   22.990078   23.586167 H          1 MOL1         0.0764
@<TRIPOS>BOND
    1     1     2    1
    2     1     3    2
    3     1     4    1
    4     4     5    1
    5     4     6    1
    6     4     7    1
    7     7     8    1
    8     7     9    1
    9     7    10    1
   10    10    11    1
   11    10    12    1
   12    10    13    1
   13    13    14    1
   14    13    15    1
   15    13    16    1
   16    16    17    1
   17    16    18    1
   18    16    19    1
   19    19    20    1
   20    19    21    1
   21    19    22    1
   22    22    23    1
   23    22    24    1
   24    22    25    1
@<TRIPOS>SUBSTRUCTURE
       1 MOL1            1 RESIDUE      1      MOL     
@<SCITEGIC>MOL_PROPERTY
VConf Rank
SciTegic.value.IntegerValue
842

@<SCITEGIC>MOL_PROPERTY
Conf_Id
SciTegic.value.IntegerValue
27

@<SCITEGIC>MOL_PROPERTY
Delta U+W
SciTegic.value.DoubleValue
-1.297

@<SCITEGIC>MOL_PROPERTY
U+W
SciTegic.value.DoubleValue
-52.926

@<SCITEGIC>MOL_PROPERTY
Grad RMS
SciTegic.value.DoubleValue
0.000000

@<SCITEGIC>MOL_PROPERTY
U
SciTegic.value.DoubleValue
5.617

@<SCITEGIC>MOL_PROPERTY
W
SciTegic.value.DoubleValue
-58.543

@<SCITEGIC>MOL_PROPERTY
W(PB)
SciTegic.value.DoubleValue
-61.065

@<SCITEGIC>MOL_PROPERTY
W(SA)
SciTegic.value.DoubleValue
2.522

@<SCITEGIC>MOL_PROPERTY
Valence
SciTegic.value.DoubleValue
7.531

@<SCITEGIC>MOL_PROPERTY
Coulomb
SciTegic.value.DoubleValue
-2.818

@<SCITEGIC>MOL_PROPERTY
VdW
SciTegic.value.DoubleValue
0.904

@<SCITEGIC>MOL_PROPERTY
VdW6
SciTegic.value.DoubleValue
-7.640

@<SCITEGIC>MOL_PROPERTY
VdW12
SciTegic.value.DoubleValue
8.544

@<SCITEGIC>MOL_PROPERTY
Bond
SciTegic.value.DoubleValue
0.115

@<SCITEGIC>MOL_PROPERTY
Angle
SciTegic.value.DoubleValue
2.271

@<SCITEGIC>MOL_PROPERTY
Pdih
SciTegic.value.DoubleValue
5.144

@<SCITEGIC>MOL_PROPERTY
Idih
SciTegic.value.DoubleValue
0.001

@<SCITEGIC>MOL_PROPERTY
Tether
SciTegic.value.DoubleValue
0.000

@<TRIPOS>MOLECULE
guest-8_confgen4.mol2 : confsearch ligand conformer 843
          25          24           1
SMALL
USER_CHARGES
 
@<TRIPOS>ATOM
       1    C1      16.987793   16.695025   23.345251 C.2        1 MOL1         0.6168
       2    O1      16.831493   16.089831   24.387549 O.co2      1 MOL1        -0.6703
       3    O2      16.227417   17.554927   22.946050 O.co2      1 MOL1        -0.6703
       4    C2      18.197059   16.342225   22.483758 C.3        1 MOL1        -0.1963
       5    H1      18.016369   16.700770   21.463149 H          1 MOL1         0.0750
       6    H2      18.253914   15.248638   22.430641 H          1 MOL1         0.0750
       7    C3      19.538791   16.905511   23.019862 C.3        1 MOL1        -0.1860
       8    H3      19.691977   16.560352   24.051885 H          1 MOL1         0.0752
       9    H4      20.362862   16.492156   22.422707 H          1 MOL1         0.0752
      10    C4      19.597671   18.448823   22.969967 C.3        1 MOL1        -0.1858
      11    H5      18.786391   18.870190   23.579637 H          1 MOL1         0.0752
      12    H6      19.430587   18.789342   21.938874 H          1 MOL1         0.0752
      13    C5      20.953026   18.986036   23.477951 C.3        1 MOL1        -0.1858
      14    H7      21.119203   18.645033   24.509062 H          1 MOL1         0.0752
      15    H8      21.765621   18.568355   22.867811 H          1 MOL1         0.0752
      16    C6      21.012261   20.528103   23.429180 C.3        1 MOL1        -0.1858
      17    H9      20.199641   20.945949   24.039246 H          1 MOL1         0.0752
      18    H10     20.845750   20.869339   22.398203 H          1 MOL1         0.0752
      19    C7      22.366618   21.065574   23.937326 C.3        1 MOL1        -0.1834
      20    H11     22.535667   20.727643   24.969173 H          1 MOL1         0.0752
      21    H12     23.181793   20.651115   23.328069 H          1 MOL1         0.0752
      22    C8      22.421583   22.605725   23.887157 C.3        1 MOL1        -0.2849
      23    H13     21.635752   23.047445   24.513856 H          1 MOL1         0.0764
      24    H14     23.390710   22.970394   24.251697 H          1 MOL1         0.0764
      25    H15     22.286694   22.970368   22.860398 H          1 MOL1         0.0764
@<TRIPOS>BOND
    1     1     2    1
    2     1     3    2
    3     1     4    1
    4     4     5    1
    5     4     6    1
    6     4     7    1
    7     7     8    1
    8     7     9    1
    9     7    10    1
   10    10    11    1
   11    10    12    1
   12    10    13    1
   13    13    14    1
   14    13    15    1
   15    13    16    1
   16    16    17    1
   17    16    18    1
   18    16    19    1
   19    19    20    1
   20    19    21    1
   21    19    22    1
   22    22    23    1
   23    22    24    1
   24    22    25    1
@<TRIPOS>SUBSTRUCTURE
       1 MOL1            1 RESIDUE      1      MOL     
@<SCITEGIC>MOL_PROPERTY
VConf Rank
SciTegic.value.IntegerValue
843

@<SCITEGIC>MOL_PROPERTY
Conf_Id
SciTegic.value.IntegerValue
37

@<SCITEGIC>MOL_PROPERTY
Delta U+W
SciTegic.value.DoubleValue
-0.230

@<SCITEGIC>MOL_PROPERTY
U+W
SciTegic.value.DoubleValue
-51.860

@<SCITEGIC>MOL_PROPERTY
Grad RMS
SciTegic.value.DoubleValue
0.000000

@<SCITEGIC>MOL_PROPERTY
U
SciTegic.value.DoubleValue
7.816

@<SCITEGIC>MOL_PROPERTY
W
SciTegic.value.DoubleValue
-59.675

@<SCITEGIC>MOL_PROPERTY
W(PB)
SciTegic.value.DoubleValue
-62.180

@<SCITEGIC>MOL_PROPERTY
W(SA)
SciTegic.value.DoubleValue
2.505

@<SCITEGIC>MOL_PROPERTY
Valence
SciTegic.value.DoubleValue
7.785

@<SCITEGIC>MOL_PROPERTY
Coulomb
SciTegic.value.DoubleValue
-0.713

@<SCITEGIC>MOL_PROPERTY
VdW
SciTegic.value.DoubleValue
0.744

@<SCITEGIC>MOL_PROPERTY
VdW6
SciTegic.value.DoubleValue
-8.514

@<SCITEGIC>MOL_PROPERTY
VdW12
SciTegic.value.DoubleValue
9.259

@<SCITEGIC>MOL_PROPERTY
Bond
SciTegic.value.DoubleValue
0.136

@<SCITEGIC>MOL_PROPERTY
Angle
SciTegic.value.DoubleValue
2.433

@<SCITEGIC>MOL_PROPERTY
Pdih
SciTegic.value.DoubleValue
5.216

@<SCITEGIC>MOL_PROPERTY
Idih
SciTegic.value.DoubleValue
0.000

@<SCITEGIC>MOL_PROPERTY
Tether
SciTegic.value.DoubleValue
0.000

@<TRIPOS>MOLECULE
guest-8_confgen4.mol2 : confsearch ligand conformer 844
          25          24           1
SMALL
USER_CHARGES
 
@<TRIPOS>ATOM
       1    C1      18.859358   22.655524   25.316415 C.2        1 MOL1         0.6168
       2    O1      19.790912   23.347784   25.677050 O.co2      1 MOL1        -0.6703
       3    O2      18.122073   22.067287   26.082803 O.co2      1 MOL1        -0.6703
       4    C2      18.592775   22.532722   23.818810 C.3        1 MOL1        -0.1963
       5    H1      18.650058   23.540899   23.391866 H          1 MOL1         0.0750
       6    H2      17.562901   22.184554   23.673948 H          1 MOL1         0.0750
       7    C3      19.583541   21.598580   23.076714 C.3        1 MOL1        -0.1860
       8    H3      19.405815   21.677242   21.995615 H          1 MOL1         0.0752
       9    H4      20.611632   21.943870   23.254136 H          1 MOL1         0.0752
      10    C4      19.445419   20.121654   23.509587 C.3        1 MOL1        -0.1858
      11    H5      18.412913   19.785320   23.342743 H          1 MOL1         0.0752
      12    H6      19.638990   20.032106   24.587517 H          1 MOL1         0.0752
      13    C5      20.418227   19.205736   22.736044 C.3        1 MOL1        -0.1858
      14    H7      20.224561   19.291417   21.657996 H          1 MOL1         0.0752
      15    H8      21.450420   19.542769   22.903597 H          1 MOL1         0.0752
      16    C6      20.281272   17.729919   23.168553 C.3        1 MOL1        -0.1858
      17    H9      19.249064   17.392766   23.001352 H          1 MOL1         0.0752
      18    H10     20.474789   17.644082   24.246658 H          1 MOL1         0.0752
      19    C7      21.253871   16.814116   22.396075 C.3        1 MOL1        -0.1834
      20    H11     21.061949   16.896055   21.317219 H          1 MOL1         0.0752
      21    H12     22.287658   17.147321   22.562632 H          1 MOL1         0.0752
      22    C8      21.113944   15.341387   22.830921 C.3        1 MOL1        -0.2849
      23    H13     20.096671   14.972150   22.645950 H          1 MOL1         0.0764
      24    H14     21.812301   14.704917   22.272095 H          1 MOL1         0.0764
      25    H15     21.331542   15.225337   23.900773 H          1 MOL1         0.0764
@<TRIPOS>BOND
    1     1     2    1
    2     1     3    2
    3     1     4    1
    4     4     5    1
    5     4     6    1
    6     4     7    1
    7     7     8    1
    8     7     9    1
    9     7    10    1
   10    10    11    1
   11    10    12    1
   12    10    13    1
   13    13    14    1
   14    13    15    1
   15    13    16    1
   16    16    17    1
   17    16    18    1
   18    16    19    1
   19    19    20    1
   20    19    21    1
   21    19    22    1
   22    22    23    1
   23    22    24    1
   24    22    25    1
@<TRIPOS>SUBSTRUCTURE
       1 MOL1            1 RESIDUE      1      MOL     
@<SCITEGIC>MOL_PROPERTY
VConf Rank
SciTegic.value.IntegerValue
844

@<SCITEGIC>MOL_PROPERTY
Conf_Id
SciTegic.value.IntegerValue
54

@<SCITEGIC>MOL_PROPERTY
Delta U+W
SciTegic.value.DoubleValue
-0.224

@<SCITEGIC>MOL_PROPERTY
U+W
SciTegic.value.DoubleValue
-51.854

@<SCITEGIC>MOL_PROPERTY
Grad RMS
SciTegic.value.DoubleValue
0.000000

@<SCITEGIC>MOL_PROPERTY
U
SciTegic.value.DoubleValue
7.816

@<SCITEGIC>MOL_PROPERTY
W
SciTegic.value.DoubleValue
-59.670

@<SCITEGIC>MOL_PROPERTY
W(PB)
SciTegic.value.DoubleValue
-62.157

@<SCITEGIC>MOL_PROPERTY
W(SA)
SciTegic.value.DoubleValue
2.487

@<SCITEGIC>MOL_PROPERTY
Valence
SciTegic.value.DoubleValue
7.785

@<SCITEGIC>MOL_PROPERTY
Coulomb
SciTegic.value.DoubleValue
-0.713

@<SCITEGIC>MOL_PROPERTY
VdW
SciTegic.value.DoubleValue
0.744

@<SCITEGIC>MOL_PROPERTY
VdW6
SciTegic.value.DoubleValue
-8.515

@<SCITEGIC>MOL_PROPERTY
VdW12
SciTegic.value.DoubleValue
9.259

@<SCITEGIC>MOL_PROPERTY
Bond
SciTegic.value.DoubleValue
0.136

@<SCITEGIC>MOL_PROPERTY
Angle
SciTegic.value.DoubleValue
2.433

@<SCITEGIC>MOL_PROPERTY
Pdih
SciTegic.value.DoubleValue
5.215

@<SCITEGIC>MOL_PROPERTY
Idih
SciTegic.value.DoubleValue
0.000

@<SCITEGIC>MOL_PROPERTY
Tether
SciTegic.value.DoubleValue
0.000

@<TRIPOS>MOLECULE
guest-8_confgen4.mol2 : confsearch ligand conformer 845
          25          24           1
SMALL
USER_CHARGES
 
@<TRIPOS>ATOM
       1    C1      20.065932   19.024791   27.369333 C.2        1 MOL1         0.6168
       2    O1      20.329237   17.873848   27.657518 O.co2      1 MOL1        -0.6703
       3    O2      20.628384   19.985681   27.856620 O.co2      1 MOL1        -0.6703
       4    C2      18.955711   19.280311   26.353802 C.3        1 MOL1        -0.1963
       5    H1      18.313632   20.069058   26.763170 H          1 MOL1         0.0750
       6    H2      18.338213   18.377377   26.274826 H          1 MOL1         0.0750
       7    C3      19.466240   19.704213   24.951899 C.3        1 MOL1        -0.1860
       8    H3      18.603942   20.013747   24.348214 H          1 MOL1         0.0752
       9    H4      20.116108   20.584532   25.052440 H          1 MOL1         0.0752
      10    C4      20.229722   18.567927   24.229473 C.3        1 MOL1        -0.1858
      11    H5      19.564971   17.704755   24.088699 H          1 MOL1         0.0752
      12    H6      21.051622   18.222851   24.871643 H          1 MOL1         0.0752
      13    C5      20.826032   18.991365   22.865629 C.3        1 MOL1        -0.1858
      14    H7      21.475787   19.866132   23.004114 H          1 MOL1         0.0752
      15    H8      21.471507   18.177549   22.511742 H          1 MOL1         0.0752
      16    C6      19.754402   19.300144   21.790876 C.3        1 MOL1        -0.1858
      17    H9      19.112143   20.118690   22.139242 H          1 MOL1         0.0752
      18    H10     19.101840   18.426806   21.656488 H          1 MOL1         0.0752
      19    C7      20.354261   19.712250   20.426023 C.3        1 MOL1        -0.1834
      20    H11     19.538136   20.044737   19.769793 H          1 MOL1         0.0752
      21    H12     21.017631   20.578122   20.558336 H          1 MOL1         0.0752
      22    C8      21.121197   18.571538   19.722089 C.3        1 MOL1        -0.2849
      23    H13     22.020101   18.286049   20.282331 H          1 MOL1         0.0764
      24    H14     20.487320   17.682257   19.610332 H          1 MOL1         0.0764
      25    H15     21.441300   18.886004   18.720316 H          1 MOL1         0.0764
@<TRIPOS>BOND
    1     1     2    1
    2     1     3    2
    3     1     4    1
    4     4     5    1
    5     4     6    1
    6     4     7    1
    7     7     8    1
    8     7     9    1
    9     7    10    1
   10    10    11    1
   11    10    12    1
   12    10    13    1
   13    13    14    1
   14    13    15    1
   15    13    16    1
   16    16    17    1
   17    16    18    1
   18    16    19    1
   19    19    20    1
   20    19    21    1
   21    19    22    1
   22    22    23    1
   23    22    24    1
   24    22    25    1
@<TRIPOS>SUBSTRUCTURE
       1 MOL1            1 RESIDUE      1      MOL     
@<SCITEGIC>MOL_PROPERTY
VConf Rank
SciTegic.value.IntegerValue
845

@<SCITEGIC>MOL_PROPERTY
Conf_Id
SciTegic.value.IntegerValue
101

@<SCITEGIC>MOL_PROPERTY
Delta U+W
SciTegic.value.DoubleValue
1.534

@<SCITEGIC>MOL_PROPERTY
U+W
SciTegic.value.DoubleValue
-50.095

@<SCITEGIC>MOL_PROPERTY
Grad RMS
SciTegic.value.DoubleValue
0.000000

@<SCITEGIC>MOL_PROPERTY
U
SciTegic.value.DoubleValue
9.416

@<SCITEGIC>MOL_PROPERTY
W
SciTegic.value.DoubleValue
-59.512

@<SCITEGIC>MOL_PROPERTY
W(PB)
SciTegic.value.DoubleValue
-61.988

@<SCITEGIC>MOL_PROPERTY
W(SA)
SciTegic.value.DoubleValue
2.476

@<SCITEGIC>MOL_PROPERTY
Valence
SciTegic.value.DoubleValue
8.939

@<SCITEGIC>MOL_PROPERTY
Coulomb
SciTegic.value.DoubleValue
-0.615

@<SCITEGIC>MOL_PROPERTY
VdW
SciTegic.value.DoubleValue
1.092

@<SCITEGIC>MOL_PROPERTY
VdW6
SciTegic.value.DoubleValue
-9.710

@<SCITEGIC>MOL_PROPERTY
VdW12
SciTegic.value.DoubleValue
10.802

@<SCITEGIC>MOL_PROPERTY
Bond
SciTegic.value.DoubleValue
0.216

@<SCITEGIC>MOL_PROPERTY
Angle
SciTegic.value.DoubleValue
2.979

@<SCITEGIC>MOL_PROPERTY
Pdih
SciTegic.value.DoubleValue
5.743

@<SCITEGIC>MOL_PROPERTY
Idih
SciTegic.value.DoubleValue
0.000

@<SCITEGIC>MOL_PROPERTY
Tether
SciTegic.value.DoubleValue
0.000

@<TRIPOS>MOLECULE
guest-8_confgen4.mol2 : confsearch ligand conformer 846
          25          24           1
SMALL
USER_CHARGES
 
@<TRIPOS>ATOM
       1    C1      20.807868   23.323675   23.214077 C.2        1 MOL1         0.6168
       2    O1      20.098165   23.827783   24.061976 O.co2      1 MOL1        -0.6703
       3    O2      21.801646   23.858485   22.763344 O.co2      1 MOL1        -0.6703
       4    C2      20.444234   21.933861   22.703828 C.3        1 MOL1        -0.1963
       5    H1      20.764547   21.861337   21.657654 H          1 MOL1         0.0750
       6    H2      19.351872   21.850531   22.716612 H          1 MOL1         0.0750
       7    C3      21.090979   20.799957   23.541406 C.3        1 MOL1        -0.1860
       8    H3      22.175234   20.972334   23.587297 H          1 MOL1         0.0752
       9    H4      20.725061   20.852444   24.576128 H          1 MOL1         0.0752
      10    C4      20.839893   19.384279   22.969114 C.3        1 MOL1        -0.1858
      11    H5      21.449772   18.674454   23.542427 H          1 MOL1         0.0752
      12    H6      21.197568   19.337059   21.931615 H          1 MOL1         0.0752
      13    C5      19.354910   18.949675   23.031150 C.3        1 MOL1        -0.1858
      14    H7      18.997645   18.996099   24.068080 H          1 MOL1         0.0752
      15    H8      18.741813   19.662533   22.465762 H          1 MOL1         0.0752
      16    C6      19.098714   17.537541   22.445834 C.3        1 MOL1        -0.1858
      17    H9      19.381648   17.536152   21.384409 H          1 MOL1         0.0752
      18    H10     18.018695   17.338556   22.471043 H          1 MOL1         0.0752
      19    C7      19.834709   16.376249   23.159396 C.3        1 MOL1        -0.1834
      20    H11     19.576599   15.436171   22.652762 H          1 MOL1         0.0752
      21    H12     20.921078   16.490065   23.048984 H          1 MOL1         0.0752
      22    C8      19.473325   16.248992   24.655106 C.3        1 MOL1        -0.2849
      23    H13     18.387819   16.158198   24.790795 H          1 MOL1         0.0764
      24    H14     19.944832   15.358295   25.089970 H          1 MOL1         0.0764
      25    H15     19.820674   17.120395   25.224391 H          1 MOL1         0.0764
@<TRIPOS>BOND
    1     1     2    1
    2     1     3    2
    3     1     4    1
    4     4     5    1
    5     4     6    1
    6     4     7    1
    7     7     8    1
    8     7     9    1
    9     7    10    1
   10    10    11    1
   11    10    12    1
   12    10    13    1
   13    13    14    1
   14    13    15    1
   15    13    16    1
   16    16    17    1
   17    16    18    1
   18    16    19    1
   19    19    20    1
   20    19    21    1
   21    19    22    1
   22    22    23    1
   23    22    24    1
   24    22    25    1
@<TRIPOS>SUBSTRUCTURE
       1 MOL1            1 RESIDUE      1      MOL     
@<SCITEGIC>MOL_PROPERTY
VConf Rank
SciTegic.value.IntegerValue
846

@<SCITEGIC>MOL_PROPERTY
Conf_Id
SciTegic.value.IntegerValue
75

@<SCITEGIC>MOL_PROPERTY
Delta U+W
SciTegic.value.DoubleValue
1.014

@<SCITEGIC>MOL_PROPERTY
U+W
SciTegic.value.DoubleValue
-50.615

@<SCITEGIC>MOL_PROPERTY
Grad RMS
SciTegic.value.DoubleValue
0.000000

@<SCITEGIC>MOL_PROPERTY
U
SciTegic.value.DoubleValue
8.474

@<SCITEGIC>MOL_PROPERTY
W
SciTegic.value.DoubleValue
-59.089

@<SCITEGIC>MOL_PROPERTY
W(PB)
SciTegic.value.DoubleValue
-61.530

@<SCITEGIC>MOL_PROPERTY
W(SA)
SciTegic.value.DoubleValue
2.441

@<SCITEGIC>MOL_PROPERTY
Valence
SciTegic.value.DoubleValue
9.080

@<SCITEGIC>MOL_PROPERTY
Coulomb
SciTegic.value.DoubleValue
-1.772

@<SCITEGIC>MOL_PROPERTY
VdW
SciTegic.value.DoubleValue
1.165

@<SCITEGIC>MOL_PROPERTY
VdW6
SciTegic.value.DoubleValue
-9.830

@<SCITEGIC>MOL_PROPERTY
VdW12
SciTegic.value.DoubleValue
10.996

@<SCITEGIC>MOL_PROPERTY
Bond
SciTegic.value.DoubleValue
0.240

@<SCITEGIC>MOL_PROPERTY
Angle
SciTegic.value.DoubleValue
3.225

@<SCITEGIC>MOL_PROPERTY
Pdih
SciTegic.value.DoubleValue
5.615

@<SCITEGIC>MOL_PROPERTY
Idih
SciTegic.value.DoubleValue
0.001

@<SCITEGIC>MOL_PROPERTY
Tether
SciTegic.value.DoubleValue
0.000

@<TRIPOS>MOLECULE
guest-8_confgen4.mol2 : confsearch ligand conformer 847
          25          24           1
SMALL
USER_CHARGES
 
@<TRIPOS>ATOM
       1    C1      23.518810   21.660642   23.168406 C.2        1 MOL1         0.6168
       2    O1      23.871724   21.768840   22.010651 O.co2      1 MOL1        -0.6703
       3    O2      23.756302   22.489218   24.024986 O.co2      1 MOL1        -0.6703
       4    C2      22.715015   20.427013   23.563566 C.3        1 MOL1        -0.1963
       5    H1      22.959189   20.180055   24.603735 H          1 MOL1         0.0750
       6    H2      23.052001   19.587812   22.943252 H          1 MOL1         0.0750
       7    C3      21.187677   20.628425   23.406237 C.3        1 MOL1        -0.1860
       8    H3      20.868250   21.479853   24.023109 H          1 MOL1         0.0752
       9    H4      20.961662   20.887811   22.362603 H          1 MOL1         0.0752
      10    C4      20.396545   19.365639   23.810751 C.3        1 MOL1        -0.1858
      11    H5      20.625896   19.109932   24.854219 H          1 MOL1         0.0752
      12    H6      20.728719   18.518410   23.199133 H          1 MOL1         0.0752
      13    C5      18.871456   19.573903   23.657571 C.3        1 MOL1        -0.1858
      14    H7      18.573325   20.407882   24.307580 H          1 MOL1         0.0752
      15    H8      18.628686   19.883384   22.631850 H          1 MOL1         0.0752
      16    C6      18.038810   18.325906   24.046969 C.3        1 MOL1        -0.1858
      17    H9      17.114222   18.669800   24.530438 H          1 MOL1         0.0752
      18    H10     18.569877   17.734825   24.805538 H          1 MOL1         0.0752
      19    C7      17.632999   17.422063   22.856469 C.3        1 MOL1        -0.1834
      20    H11     16.982979   16.620425   23.233325 H          1 MOL1         0.0752
      21    H12     17.026814   18.000099   22.145376 H          1 MOL1         0.0752
      22    C8      18.824180   16.783431   22.112420 C.3        1 MOL1        -0.2849
      23    H13     19.485912   16.253171   22.809484 H          1 MOL1         0.0764
      24    H14     18.468205   16.060770   21.366903 H          1 MOL1         0.0764
      25    H15     19.411923   17.542739   21.581727 H          1 MOL1         0.0764
@<TRIPOS>BOND
    1     1     2    1
    2     1     3    2
    3     1     4    1
    4     4     5    1
    5     4     6    1
    6     4     7    1
    7     7     8    1
    8     7     9    1
    9     7    10    1
   10    10    11    1
   11    10    12    1
   12    10    13    1
   13    13    14    1
   14    13    15    1
   15    13    16    1
   16    16    17    1
   17    16    18    1
   18    16    19    1
   19    19    20    1
   20    19    21    1
   21    19    22    1
   22    22    23    1
   23    22    24    1
   24    22    25    1
@<TRIPOS>SUBSTRUCTURE
       1 MOL1            1 RESIDUE      1      MOL     
@<SCITEGIC>MOL_PROPERTY
VConf Rank
SciTegic.value.IntegerValue
847

@<SCITEGIC>MOL_PROPERTY
Conf_Id
SciTegic.value.IntegerValue
125

@<SCITEGIC>MOL_PROPERTY
Delta U+W
SciTegic.value.DoubleValue
2.314

@<SCITEGIC>MOL_PROPERTY
U+W
SciTegic.value.DoubleValue
-49.315

@<SCITEGIC>MOL_PROPERTY
Grad RMS
SciTegic.value.DoubleValue
0.000000

@<SCITEGIC>MOL_PROPERTY
U
SciTegic.value.DoubleValue
9.740

@<SCITEGIC>MOL_PROPERTY
W
SciTegic.value.DoubleValue
-59.054

@<SCITEGIC>MOL_PROPERTY
W(PB)
SciTegic.value.DoubleValue
-61.488

@<SCITEGIC>MOL_PROPERTY
W(SA)
SciTegic.value.DoubleValue
2.433

@<SCITEGIC>MOL_PROPERTY
Valence
SciTegic.value.DoubleValue
10.506

@<SCITEGIC>MOL_PROPERTY
Coulomb
SciTegic.value.DoubleValue
-1.761

@<SCITEGIC>MOL_PROPERTY
VdW
SciTegic.value.DoubleValue
0.994

@<SCITEGIC>MOL_PROPERTY
VdW6
SciTegic.value.DoubleValue
-9.209

@<SCITEGIC>MOL_PROPERTY
VdW12
SciTegic.value.DoubleValue
10.203

@<SCITEGIC>MOL_PROPERTY
Bond
SciTegic.value.DoubleValue
0.193

@<SCITEGIC>MOL_PROPERTY
Angle
SciTegic.value.DoubleValue
2.979

@<SCITEGIC>MOL_PROPERTY
Pdih
SciTegic.value.DoubleValue
7.334

@<SCITEGIC>MOL_PROPERTY
Idih
SciTegic.value.DoubleValue
0.001

@<SCITEGIC>MOL_PROPERTY
Tether
SciTegic.value.DoubleValue
0.000

@<TRIPOS>MOLECULE
guest-8_confgen4.mol2 : confsearch ligand conformer 848
          25          24           1
SMALL
USER_CHARGES
 
@<TRIPOS>ATOM
       1    C1      18.596593   22.932481   23.040441 C.2        1 MOL1         0.6168
       2    O1      18.276346   23.072887   21.876645 O.co2      1 MOL1        -0.6703
       3    O2      18.581974   23.833270   23.855982 O.co2      1 MOL1        -0.6703
       4    C2      19.065742   21.555778   23.497176 C.3        1 MOL1        -0.1963
       5    H1      18.511396   20.806994   22.920338 H          1 MOL1         0.0750
       6    H2      18.782755   21.431796   24.549270 H          1 MOL1         0.0750
       7    C3      20.594287   21.356306   23.326879 C.3        1 MOL1        -0.1860
       8    H3      20.858452   21.436302   22.263325 H          1 MOL1         0.0752
       9    H4      21.115989   22.177029   23.838432 H          1 MOL1         0.0752
      10    C4      21.109488   20.012009   23.893965 C.3        1 MOL1        -0.1858
      11    H5      20.852317   19.939332   24.959588 H          1 MOL1         0.0752
      12    H6      22.206654   20.008511   23.838073 H          1 MOL1         0.0752
      13    C5      20.562864   18.776874   23.141077 C.3        1 MOL1        -0.1858
      14    H7      19.472352   18.734019   23.248660 H          1 MOL1         0.0752
      15    H8      20.777979   18.876046   22.068485 H          1 MOL1         0.0752
      16    C6      21.184594   17.464690   23.672896 C.3        1 MOL1        -0.1858
      17    H9      20.931431   17.339148   24.734515 H          1 MOL1         0.0752
      18    H10     22.279307   17.540550   23.621005 H          1 MOL1         0.0752
      19    C7      20.742331   16.210268   22.883817 C.3        1 MOL1        -0.1834
      20    H11     20.998972   16.330155   21.822182 H          1 MOL1         0.0752
      21    H12     21.316097   15.346003   23.245846 H          1 MOL1         0.0752
      22    C8      19.236025   15.899687   23.022258 C.3        1 MOL1        -0.2849
      23    H13     18.621121   16.685361   22.565862 H          1 MOL1         0.0764
      24    H14     18.991579   14.954083   22.521284 H          1 MOL1         0.0764
      25    H15     18.949310   15.806833   24.077853 H          1 MOL1         0.0764
@<TRIPOS>BOND
    1     1     2    1
    2     1     3    2
    3     1     4    1
    4     4     5    1
    5     4     6    1
    6     4     7    1
    7     7     8    1
    8     7     9    1
    9     7    10    1
   10    10    11    1
   11    10    12    1
   12    10    13    1
   13    13    14    1
   14    13    15    1
   15    13    16    1
   16    16    17    1
   17    16    18    1
   18    16    19    1
   19    19    20    1
   20    19    21    1
   21    19    22    1
   22    22    23    1
   23    22    24    1
   24    22    25    1
@<TRIPOS>SUBSTRUCTURE
       1 MOL1            1 RESIDUE      1      MOL     
@<SCITEGIC>MOL_PROPERTY
VConf Rank
SciTegic.value.IntegerValue
848

@<SCITEGIC>MOL_PROPERTY
Conf_Id
SciTegic.value.IntegerValue
4

@<SCITEGIC>MOL_PROPERTY
Delta U+W
SciTegic.value.DoubleValue
0.189

@<SCITEGIC>MOL_PROPERTY
U+W
SciTegic.value.DoubleValue
-51.441

@<SCITEGIC>MOL_PROPERTY
Grad RMS
SciTegic.value.DoubleValue
0.000000

@<SCITEGIC>MOL_PROPERTY
U
SciTegic.value.DoubleValue
7.701

@<SCITEGIC>MOL_PROPERTY
W
SciTegic.value.DoubleValue
-59.141

@<SCITEGIC>MOL_PROPERTY
W(PB)
SciTegic.value.DoubleValue
-61.609

@<SCITEGIC>MOL_PROPERTY
W(SA)
SciTegic.value.DoubleValue
2.467

@<SCITEGIC>MOL_PROPERTY
Valence
SciTegic.value.DoubleValue
8.550

@<SCITEGIC>MOL_PROPERTY
Coulomb
SciTegic.value.DoubleValue
-1.988

@<SCITEGIC>MOL_PROPERTY
VdW
SciTegic.value.DoubleValue
1.139

@<SCITEGIC>MOL_PROPERTY
VdW6
SciTegic.value.DoubleValue
-8.988

@<SCITEGIC>MOL_PROPERTY
VdW12
SciTegic.value.DoubleValue
10.127

@<SCITEGIC>MOL_PROPERTY
Bond
SciTegic.value.DoubleValue
0.191

@<SCITEGIC>MOL_PROPERTY
Angle
SciTegic.value.DoubleValue
2.738

@<SCITEGIC>MOL_PROPERTY
Pdih
SciTegic.value.DoubleValue
5.621

@<SCITEGIC>MOL_PROPERTY
Idih
SciTegic.value.DoubleValue
0.001

@<SCITEGIC>MOL_PROPERTY
Tether
SciTegic.value.DoubleValue
0.000

@<TRIPOS>MOLECULE
guest-8_confgen4.mol2 : confsearch ligand conformer 849
          25          24           1
SMALL
USER_CHARGES
 
@<TRIPOS>ATOM
       1    C1      22.589179   21.750295   21.359861 C.2        1 MOL1         0.6168
       2    O1      22.243429   22.867997   21.688331 O.co2      1 MOL1        -0.6703
       3    O2      23.590361   21.518805   20.711179 O.co2      1 MOL1        -0.6703
       4    C2      21.732253   20.571106   21.806193 C.3        1 MOL1        -0.1963
       5    H1      21.805916   19.788518   21.041676 H          1 MOL1         0.0750
       6    H2      20.689546   20.907211   21.828884 H          1 MOL1         0.0750
       7    C3      22.156867   20.010707   23.188544 C.3        1 MOL1        -0.1860
       8    H3      23.229144   19.772508   23.158045 H          1 MOL1         0.0752
       9    H4      22.034040   20.789715   23.953653 H          1 MOL1         0.0752
      10    C4      21.378791   18.740180   23.606294 C.3        1 MOL1        -0.1858
      11    H5      21.822548   18.349170   24.532092 H          1 MOL1         0.0752
      12    H6      21.511654   17.960022   22.844276 H          1 MOL1         0.0752
      13    C5      19.870467   18.990692   23.837373 C.3        1 MOL1        -0.1858
      14    H7      19.740653   19.805272   24.562750 H          1 MOL1         0.0752
      15    H8      19.404345   19.316523   22.899721 H          1 MOL1         0.0752
      16    C6      19.154967   17.720865   24.353902 C.3        1 MOL1        -0.1858
      17    H9      19.667041   17.364247   25.258030 H          1 MOL1         0.0752
      18    H10     19.243082   16.917936   23.609304 H          1 MOL1         0.0752
      19    C7      17.663660   17.950034   24.693464 C.3        1 MOL1        -0.1834
      20    H11     17.265060   17.039440   25.161615 H          1 MOL1         0.0752
      21    H12     17.572121   18.749125   25.442050 H          1 MOL1         0.0752
      22    C8      16.800686   18.292740   23.459602 C.3        1 MOL1        -0.2849
      23    H13     16.901056   17.522683   22.683684 H          1 MOL1         0.0764
      24    H14     15.740800   18.355636   23.738134 H          1 MOL1         0.0764
      25    H15     17.087396   19.258757   23.025673 H          1 MOL1         0.0764
@<TRIPOS>BOND
    1     1     2    1
    2     1     3    2
    3     1     4    1
    4     4     5    1
    5     4     6    1
    6     4     7    1
    7     7     8    1
    8     7     9    1
    9     7    10    1
   10    10    11    1
   11    10    12    1
   12    10    13    1
   13    13    14    1
   14    13    15    1
   15    13    16    1
   16    16    17    1
   17    16    18    1
   18    16    19    1
   19    19    20    1
   20    19    21    1
   21    19    22    1
   22    22    23    1
   23    22    24    1
   24    22    25    1
@<TRIPOS>SUBSTRUCTURE
       1 MOL1            1 RESIDUE      1      MOL     
@<SCITEGIC>MOL_PROPERTY
VConf Rank
SciTegic.value.IntegerValue
849

@<SCITEGIC>MOL_PROPERTY
Conf_Id
SciTegic.value.IntegerValue
17

@<SCITEGIC>MOL_PROPERTY
Delta U+W
SciTegic.value.DoubleValue
0.219

@<SCITEGIC>MOL_PROPERTY
U+W
SciTegic.value.DoubleValue
-51.411

@<SCITEGIC>MOL_PROPERTY
Grad RMS
SciTegic.value.DoubleValue
0.000000

@<SCITEGIC>MOL_PROPERTY
U
SciTegic.value.DoubleValue
7.701

@<SCITEGIC>MOL_PROPERTY
W
SciTegic.value.DoubleValue
-59.111

@<SCITEGIC>MOL_PROPERTY
W(PB)
SciTegic.value.DoubleValue
-61.599

@<SCITEGIC>MOL_PROPERTY
W(SA)
SciTegic.value.DoubleValue
2.488

@<SCITEGIC>MOL_PROPERTY
Valence
SciTegic.value.DoubleValue
8.550

@<SCITEGIC>MOL_PROPERTY
Coulomb
SciTegic.value.DoubleValue
-1.988

@<SCITEGIC>MOL_PROPERTY
VdW
SciTegic.value.DoubleValue
1.139

@<SCITEGIC>MOL_PROPERTY
VdW6
SciTegic.value.DoubleValue
-8.988

@<SCITEGIC>MOL_PROPERTY
VdW12
SciTegic.value.DoubleValue
10.127

@<SCITEGIC>MOL_PROPERTY
Bond
SciTegic.value.DoubleValue
0.191

@<SCITEGIC>MOL_PROPERTY
Angle
SciTegic.value.DoubleValue
2.738

@<SCITEGIC>MOL_PROPERTY
Pdih
SciTegic.value.DoubleValue
5.621

@<SCITEGIC>MOL_PROPERTY
Idih
SciTegic.value.DoubleValue
0.001

@<SCITEGIC>MOL_PROPERTY
Tether
SciTegic.value.DoubleValue
0.000

@<TRIPOS>MOLECULE
guest-8_confgen4.mol2 : confsearch ligand conformer 850
          25          24           1
SMALL
USER_CHARGES
 
@<TRIPOS>ATOM
       1    C1      21.313115   22.873786   23.495587 C.2        1 MOL1         0.6168
       2    O1      22.043509   23.077392   22.545781 O.co2      1 MOL1        -0.6703
       3    O2      21.690800   22.891100   24.650632 O.co2      1 MOL1        -0.6703
       4    C2      19.836075   22.600232   23.226414 C.3        1 MOL1        -0.1963
       5    H1      19.589812   22.965655   22.222126 H          1 MOL1         0.0750
       6    H2      19.255996   23.203504   23.934619 H          1 MOL1         0.0750
       7    C3      19.436650   21.108459   23.367737 C.3        1 MOL1        -0.1860
       8    H3      19.710145   20.761043   24.372809 H          1 MOL1         0.0752
       9    H4      18.344667   21.022307   23.287636 H          1 MOL1         0.0752
      10    C4      20.099998   20.213794   22.293356 C.3        1 MOL1        -0.1858
      11    H5      21.192278   20.237685   22.410295 H          1 MOL1         0.0752
      12    H6      19.886456   20.631137   21.299841 H          1 MOL1         0.0752
      13    C5      19.610396   18.746491   22.325506 C.3        1 MOL1        -0.1858
      14    H7      18.519366   18.719542   22.199897 H          1 MOL1         0.0752
      15    H8      20.035777   18.219126   21.460754 H          1 MOL1         0.0752
      16    C6      20.005540   17.993552   23.617008 C.3        1 MOL1        -0.1858
      17    H9      19.526709   18.463112   24.486009 H          1 MOL1         0.0752
      18    H10     21.090967   18.069483   23.768587 H          1 MOL1         0.0752
      19    C7      19.596452   16.506634   23.558125 C.3        1 MOL1        -0.1834
      20    H11     18.511272   16.427222   23.404707 H          1 MOL1         0.0752
      21    H12     20.077051   16.023522   22.696121 H          1 MOL1         0.0752
      22    C8      19.987813   15.758060   24.848161 C.3        1 MOL1        -0.2849
      23    H13     19.495178   16.200534   25.723895 H          1 MOL1         0.0764
      24    H14     19.690107   14.703115   24.788845 H          1 MOL1         0.0764
      25    H15     21.073072   15.795446   25.010012 H          1 MOL1         0.0764
@<TRIPOS>BOND
    1     1     2    1
    2     1     3    2
    3     1     4    1
    4     4     5    1
    5     4     6    1
    6     4     7    1
    7     7     8    1
    8     7     9    1
    9     7    10    1
   10    10    11    1
   11    10    12    1
   12    10    13    1
   13    13    14    1
   14    13    15    1
   15    13    16    1
   16    16    17    1
   17    16    18    1
   18    16    19    1
   19    19    20    1
   20    19    21    1
   21    19    22    1
   22    22    23    1
   23    22    24    1
   24    22    25    1
@<TRIPOS>SUBSTRUCTURE
       1 MOL1            1 RESIDUE      1      MOL     
@<SCITEGIC>MOL_PROPERTY
VConf Rank
SciTegic.value.IntegerValue
850

@<SCITEGIC>MOL_PROPERTY
Conf_Id
SciTegic.value.IntegerValue
142

@<SCITEGIC>MOL_PROPERTY
Delta U+W
SciTegic.value.DoubleValue
0.593

@<SCITEGIC>MOL_PROPERTY
U+W
SciTegic.value.DoubleValue
-51.037

@<SCITEGIC>MOL_PROPERTY
Grad RMS
SciTegic.value.DoubleValue
0.000000

@<SCITEGIC>MOL_PROPERTY
U
SciTegic.value.DoubleValue
8.903

@<SCITEGIC>MOL_PROPERTY
W
SciTegic.value.DoubleValue
-59.940

@<SCITEGIC>MOL_PROPERTY
W(PB)
SciTegic.value.DoubleValue
-62.418

@<SCITEGIC>MOL_PROPERTY
W(SA)
SciTegic.value.DoubleValue
2.478

@<SCITEGIC>MOL_PROPERTY
Valence
SciTegic.value.DoubleValue
8.305

@<SCITEGIC>MOL_PROPERTY
Coulomb
SciTegic.value.DoubleValue
-0.223

@<SCITEGIC>MOL_PROPERTY
VdW
SciTegic.value.DoubleValue
0.821

@<SCITEGIC>MOL_PROPERTY
VdW6
SciTegic.value.DoubleValue
-9.236

@<SCITEGIC>MOL_PROPERTY
VdW12
SciTegic.value.DoubleValue
10.057

@<SCITEGIC>MOL_PROPERTY
Bond
SciTegic.value.DoubleValue
0.173

@<SCITEGIC>MOL_PROPERTY
Angle
SciTegic.value.DoubleValue
2.663

@<SCITEGIC>MOL_PROPERTY
Pdih
SciTegic.value.DoubleValue
5.469

@<SCITEGIC>MOL_PROPERTY
Idih
SciTegic.value.DoubleValue
0.001

@<SCITEGIC>MOL_PROPERTY
Tether
SciTegic.value.DoubleValue
0.000

@<TRIPOS>MOLECULE
guest-8_confgen4.mol2 : confsearch ligand conformer 851
          25          24           1
SMALL
USER_CHARGES
 
@<TRIPOS>ATOM
       1    C1      17.646123   17.797287   25.346885 C.2        1 MOL1         0.6168
       2    O1      16.753529   16.979455   25.237410 O.co2      1 MOL1        -0.6703
       3    O2      18.354814   17.891031   26.329751 O.co2      1 MOL1        -0.6703
       4    C2      17.868551   18.776197   24.197451 C.3        1 MOL1        -0.1963
       5    H1      18.496055   19.600816   24.554581 H          1 MOL1         0.0750
       6    H2      16.894654   19.212779   23.947571 H          1 MOL1         0.0750
       7    C3      18.484732   18.131472   22.925924 C.3        1 MOL1        -0.1860
       8    H3      17.798348   17.357366   22.556041 H          1 MOL1         0.0752
       9    H4      18.543704   18.885513   22.130442 H          1 MOL1         0.0752
      10    C4      19.880735   17.492480   23.143885 C.3        1 MOL1        -0.1858
      11    H5      20.223665   17.061786   22.193360 H          1 MOL1         0.0752
      12    H6      19.782540   16.647679   23.839410 H          1 MOL1         0.0752
      13    C5      20.971321   18.452250   23.682209 C.3        1 MOL1        -0.1858
      14    H7      20.695828   18.805690   24.684875 H          1 MOL1         0.0752
      15    H8      21.901555   17.881726   23.807507 H          1 MOL1         0.0752
      16    C6      21.243497   19.660279   22.756330 C.3        1 MOL1        -0.1858
      17    H9      20.341877   20.281722   22.678907 H          1 MOL1         0.0752
      18    H10     21.475385   19.302124   21.744091 H          1 MOL1         0.0752
      19    C7      22.409574   20.526618   23.277057 C.3        1 MOL1        -0.1834
      20    H11     22.180727   20.883775   24.290735 H          1 MOL1         0.0752
      21    H12     23.320448   19.916575   23.351412 H          1 MOL1         0.0752
      22    C8      22.675784   21.734250   22.355942 C.3        1 MOL1        -0.2849
      23    H13     21.790243   22.379765   22.288909 H          1 MOL1         0.0764
      24    H14     23.507403   22.338607   22.740904 H          1 MOL1         0.0764
      25    H15     22.937250   21.404521   21.341907 H          1 MOL1         0.0764
@<TRIPOS>BOND
    1     1     2    1
    2     1     3    2
    3     1     4    1
    4     4     5    1
    5     4     6    1
    6     4     7    1
    7     7     8    1
    8     7     9    1
    9     7    10    1
   10    10    11    1
   11    10    12    1
   12    10    13    1
   13    13    14    1
   14    13    15    1
   15    13    16    1
   16    16    17    1
   17    16    18    1
   18    16    19    1
   19    19    20    1
   20    19    21    1
   21    19    22    1
   22    22    23    1
   23    22    24    1
   24    22    25    1
@<TRIPOS>SUBSTRUCTURE
       1 MOL1            1 RESIDUE      1      MOL     
@<SCITEGIC>MOL_PROPERTY
VConf Rank
SciTegic.value.IntegerValue
851

@<SCITEGIC>MOL_PROPERTY
Conf_Id
SciTegic.value.IntegerValue
135

@<SCITEGIC>MOL_PROPERTY
Delta U+W
SciTegic.value.DoubleValue
1.314

@<SCITEGIC>MOL_PROPERTY
U+W
SciTegic.value.DoubleValue
-50.316

@<SCITEGIC>MOL_PROPERTY
Grad RMS
SciTegic.value.DoubleValue
0.000000

@<SCITEGIC>MOL_PROPERTY
U
SciTegic.value.DoubleValue
9.773

@<SCITEGIC>MOL_PROPERTY
W
SciTegic.value.DoubleValue
-60.088

@<SCITEGIC>MOL_PROPERTY
W(PB)
SciTegic.value.DoubleValue
-62.535

@<SCITEGIC>MOL_PROPERTY
W(SA)
SciTegic.value.DoubleValue
2.447

@<SCITEGIC>MOL_PROPERTY
Valence
SciTegic.value.DoubleValue
8.741

@<SCITEGIC>MOL_PROPERTY
Coulomb
SciTegic.value.DoubleValue
0.479

@<SCITEGIC>MOL_PROPERTY
VdW
SciTegic.value.DoubleValue
0.552

@<SCITEGIC>MOL_PROPERTY
VdW6
SciTegic.value.DoubleValue
-10.627

@<SCITEGIC>MOL_PROPERTY
VdW12
SciTegic.value.DoubleValue
11.179

@<SCITEGIC>MOL_PROPERTY
Bond
SciTegic.value.DoubleValue
0.227

@<SCITEGIC>MOL_PROPERTY
Angle
SciTegic.value.DoubleValue
3.155

@<SCITEGIC>MOL_PROPERTY
Pdih
SciTegic.value.DoubleValue
5.358

@<SCITEGIC>MOL_PROPERTY
Idih
SciTegic.value.DoubleValue
0.001

@<SCITEGIC>MOL_PROPERTY
Tether
SciTegic.value.DoubleValue
0.000

@<TRIPOS>MOLECULE
guest-8_confgen4.mol2 : confsearch ligand conformer 852
          25          24           1
SMALL
USER_CHARGES
 
@<TRIPOS>ATOM
       1    C1      23.414102   18.135830   25.622709 C.2        1 MOL1         0.6168
       2    O1      23.776281   16.986881   25.463074 O.co2      1 MOL1        -0.6703
       3    O2      24.117961   19.003007   26.101621 O.co2      1 MOL1        -0.6703
       4    C2      22.006694   18.515838   25.176640 C.3        1 MOL1        -0.1963
       5    H1      21.644078   19.311811   25.837915 H          1 MOL1         0.0750
       6    H2      21.362076   17.643932   25.332909 H          1 MOL1         0.0750
       7    C3      21.952281   18.982143   23.698321 C.3        1 MOL1        -0.1860
       8    H3      22.682125   19.791813   23.559727 H          1 MOL1         0.0752
       9    H4      22.271712   18.161603   23.041084 H          1 MOL1         0.0752
      10    C4      20.559336   19.493542   23.258880 C.3        1 MOL1        -0.1858
      11    H5      20.664013   19.939842   22.261961 H          1 MOL1         0.0752
      12    H6      20.230928   20.296641   23.932496 H          1 MOL1         0.0752
      13    C5      19.484001   18.382267   23.202440 C.3        1 MOL1        -0.1858
      14    H7      19.793042   17.612558   22.482276 H          1 MOL1         0.0752
      15    H8      19.419430   17.883927   24.177613 H          1 MOL1         0.0752
      16    C6      18.065924   18.888963   22.836676 C.3        1 MOL1        -0.1858
      17    H9      17.708098   19.590433   23.602710 H          1 MOL1         0.0752
      18    H10     17.385999   18.027234   22.881391 H          1 MOL1         0.0752
      19    C7      17.945782   19.524437   21.428862 C.3        1 MOL1        -0.1834
      20    H11     18.712829   19.113450   20.758068 H          1 MOL1         0.0752
      21    H12     16.977221   19.238945   20.995638 H          1 MOL1         0.0752
      22    C8      18.023073   21.067433   21.450244 C.3        1 MOL1        -0.2849
      23    H13     18.973203   21.422876   21.865012 H          1 MOL1         0.0764
      24    H14     17.928737   21.470851   20.433799 H          1 MOL1         0.0764
      25    H15     17.210788   21.490123   22.055724 H          1 MOL1         0.0764
@<TRIPOS>BOND
    1     1     2    1
    2     1     3    2
    3     1     4    1
    4     4     5    1
    5     4     6    1
    6     4     7    1
    7     7     8    1
    8     7     9    1
    9     7    10    1
   10    10    11    1
   11    10    12    1
   12    10    13    1
   13    13    14    1
   14    13    15    1
   15    13    16    1
   16    16    17    1
   17    16    18    1
   18    16    19    1
   19    19    20    1
   20    19    21    1
   21    19    22    1
   22    22    23    1
   23    22    24    1
   24    22    25    1
@<TRIPOS>SUBSTRUCTURE
       1 MOL1            1 RESIDUE      1      MOL     
@<SCITEGIC>MOL_PROPERTY
VConf Rank
SciTegic.value.IntegerValue
852

@<SCITEGIC>MOL_PROPERTY
Conf_Id
SciTegic.value.IntegerValue
19

@<SCITEGIC>MOL_PROPERTY
Delta U+W
SciTegic.value.DoubleValue
3.222

@<SCITEGIC>MOL_PROPERTY
U+W
SciTegic.value.DoubleValue
-48.407

@<SCITEGIC>MOL_PROPERTY
Grad RMS
SciTegic.value.DoubleValue
0.000000

@<SCITEGIC>MOL_PROPERTY
U
SciTegic.value.DoubleValue
10.617

@<SCITEGIC>MOL_PROPERTY
W
SciTegic.value.DoubleValue
-59.025

@<SCITEGIC>MOL_PROPERTY
W(PB)
SciTegic.value.DoubleValue
-61.462

@<SCITEGIC>MOL_PROPERTY
W(SA)
SciTegic.value.DoubleValue
2.437

@<SCITEGIC>MOL_PROPERTY
Valence
SciTegic.value.DoubleValue
11.188

@<SCITEGIC>MOL_PROPERTY
Coulomb
SciTegic.value.DoubleValue
-1.778

@<SCITEGIC>MOL_PROPERTY
VdW
SciTegic.value.DoubleValue
1.208

@<SCITEGIC>MOL_PROPERTY
VdW6
SciTegic.value.DoubleValue
-9.786

@<SCITEGIC>MOL_PROPERTY
VdW12
SciTegic.value.DoubleValue
10.993

@<SCITEGIC>MOL_PROPERTY
Bond
SciTegic.value.DoubleValue
0.241

@<SCITEGIC>MOL_PROPERTY
Angle
SciTegic.value.DoubleValue
3.294

@<SCITEGIC>MOL_PROPERTY
Pdih
SciTegic.value.DoubleValue
7.653

@<SCITEGIC>MOL_PROPERTY
Idih
SciTegic.value.DoubleValue
0.001

@<SCITEGIC>MOL_PROPERTY
Tether
SciTegic.value.DoubleValue
0.000

@<TRIPOS>MOLECULE
guest-8_confgen4.mol2 : confsearch ligand conformer 853
          25          24           1
SMALL
USER_CHARGES
 
@<TRIPOS>ATOM
       1    C1      21.239080   21.876324   20.214361 C.2        1 MOL1         0.6168
       2    O1      22.251275   21.543842   19.629845 O.co2      1 MOL1        -0.6703
       3    O2      20.801114   23.009876   20.210380 O.co2      1 MOL1        -0.6703
       4    C2      20.489885   20.818026   21.016167 C.3        1 MOL1        -0.1963
       5    H1      20.609760   19.861099   20.496463 H          1 MOL1         0.0750
       6    H2      19.422581   21.068583   20.995429 H          1 MOL1         0.0750
       7    C3      20.986636   20.713876   22.481848 C.3        1 MOL1        -0.1860
       8    H3      22.044063   20.415510   22.492259 H          1 MOL1         0.0752
       9    H4      20.942253   21.712510   22.938144 H          1 MOL1         0.0752
      10    C4      20.158094   19.737562   23.350908 C.3        1 MOL1        -0.1858
      11    H5      19.097804   20.022753   23.318781 H          1 MOL1         0.0752
      12    H6      20.485392   19.853214   24.391816 H          1 MOL1         0.0752
      13    C5      20.316548   18.255489   22.935195 C.3        1 MOL1        -0.1858
      14    H7      20.055848   18.141423   21.875713 H          1 MOL1         0.0752
      15    H8      21.371130   17.962168   23.026934 H          1 MOL1         0.0752
      16    C6      19.436552   17.271007   23.746290 C.3        1 MOL1        -0.1858
      17    H9      19.592990   16.267291   23.328015 H          1 MOL1         0.0752
      18    H10     18.373546   17.497663   23.586439 H          1 MOL1         0.0752
      19    C7      19.751425   17.215289   25.262190 C.3        1 MOL1        -0.1834
      20    H11     19.653014   16.175632   25.603848 H          1 MOL1         0.0752
      21    H12     20.797074   17.498698   25.445305 H          1 MOL1         0.0752
      22    C8      18.802220   18.089134   26.112291 C.3        1 MOL1        -0.2849
      23    H13     17.761158   17.760961   25.995783 H          1 MOL1         0.0764
      24    H14     19.060648   18.013790   27.176407 H          1 MOL1         0.0764
      25    H15     18.856557   19.146253   25.828275 H          1 MOL1         0.0764
@<TRIPOS>BOND
    1     1     2    1
    2     1     3    2
    3     1     4    1
    4     4     5    1
    5     4     6    1
    6     4     7    1
    7     7     8    1
    8     7     9    1
    9     7    10    1
   10    10    11    1
   11    10    12    1
   12    10    13    1
   13    13    14    1
   14    13    15    1
   15    13    16    1
   16    16    17    1
   17    16    18    1
   18    16    19    1
   19    19    20    1
   20    19    21    1
   21    19    22    1
   22    22    23    1
   23    22    24    1
   24    22    25    1
@<TRIPOS>SUBSTRUCTURE
       1 MOL1            1 RESIDUE      1      MOL     
@<SCITEGIC>MOL_PROPERTY
VConf Rank
SciTegic.value.IntegerValue
853

@<SCITEGIC>MOL_PROPERTY
Conf_Id
SciTegic.value.IntegerValue
20

@<SCITEGIC>MOL_PROPERTY
Delta U+W
SciTegic.value.DoubleValue
3.224

@<SCITEGIC>MOL_PROPERTY
U+W
SciTegic.value.DoubleValue
-48.406

@<SCITEGIC>MOL_PROPERTY
Grad RMS
SciTegic.value.DoubleValue
0.000000

@<SCITEGIC>MOL_PROPERTY
U
SciTegic.value.DoubleValue
10.617

@<SCITEGIC>MOL_PROPERTY
W
SciTegic.value.DoubleValue
-59.023

@<SCITEGIC>MOL_PROPERTY
W(PB)
SciTegic.value.DoubleValue
-61.467

@<SCITEGIC>MOL_PROPERTY
W(SA)
SciTegic.value.DoubleValue
2.444

@<SCITEGIC>MOL_PROPERTY
Valence
SciTegic.value.DoubleValue
11.188

@<SCITEGIC>MOL_PROPERTY
Coulomb
SciTegic.value.DoubleValue
-1.778

@<SCITEGIC>MOL_PROPERTY
VdW
SciTegic.value.DoubleValue
1.208

@<SCITEGIC>MOL_PROPERTY
VdW6
SciTegic.value.DoubleValue
-9.786

@<SCITEGIC>MOL_PROPERTY
VdW12
SciTegic.value.DoubleValue
10.993

@<SCITEGIC>MOL_PROPERTY
Bond
SciTegic.value.DoubleValue
0.241

@<SCITEGIC>MOL_PROPERTY
Angle
SciTegic.value.DoubleValue
3.294

@<SCITEGIC>MOL_PROPERTY
Pdih
SciTegic.value.DoubleValue
7.653

@<SCITEGIC>MOL_PROPERTY
Idih
SciTegic.value.DoubleValue
0.001

@<SCITEGIC>MOL_PROPERTY
Tether
SciTegic.value.DoubleValue
0.000

@<TRIPOS>MOLECULE
guest-8_confgen4.mol2 : confsearch ligand conformer 854
          25          24           1
SMALL
USER_CHARGES
 
@<TRIPOS>ATOM
       1    C1      19.440089   18.087279   20.623991 C.2        1 MOL1         0.6168
       2    O1      20.247867   17.188132   20.494855 O.co2      1 MOL1        -0.6703
       3    O2      19.581250   19.190970   20.134955 O.co2      1 MOL1        -0.6703
       4    C2      18.147748   17.797134   21.384951 C.3        1 MOL1        -0.1963
       5    H1      17.619914   17.025610   20.812580 H          1 MOL1         0.0750
       6    H2      17.513650   18.691731   21.364798 H          1 MOL1         0.0750
       7    C3      18.335477   17.302789   22.846966 C.3        1 MOL1        -0.1860
       8    H3      17.412892   16.791326   23.153024 H          1 MOL1         0.0752
       9    H4      19.128938   16.543554   22.886651 H          1 MOL1         0.0752
      10    C4      18.619163   18.421723   23.879727 C.3        1 MOL1        -0.1858
      11    H5      18.581004   17.977761   24.883929 H          1 MOL1         0.0752
      12    H6      17.816561   19.170932   23.842984 H          1 MOL1         0.0752
      13    C5      19.987216   19.116912   23.695948 C.3        1 MOL1        -0.1858
      14    H7      20.779880   18.359216   23.627921 H          1 MOL1         0.0752
      15    H8      19.996587   19.677743   22.752876 H          1 MOL1         0.0752
      16    C6      20.296027   20.086241   24.857673 C.3        1 MOL1        -0.1858
      17    H9      20.297645   19.533845   25.807317 H          1 MOL1         0.0752
      18    H10     19.499932   20.840185   24.927190 H          1 MOL1         0.0752
      19    C7      21.656683   20.789464   24.669349 C.3        1 MOL1        -0.1834
      20    H11     22.455364   20.037939   24.600235 H          1 MOL1         0.0752
      21    H12     21.658241   21.344603   23.720969 H          1 MOL1         0.0752
      22    C8      21.962078   21.757052   25.830458 C.3        1 MOL1        -0.2849
      23    H13     21.997694   21.222066   26.788525 H          1 MOL1         0.0764
      24    H14     22.932434   22.247817   25.680048 H          1 MOL1         0.0764
      25    H15     21.194477   22.538697   25.902529 H          1 MOL1         0.0764
@<TRIPOS>BOND
    1     1     2    1
    2     1     3    2
    3     1     4    1
    4     4     5    1
    5     4     6    1
    6     4     7    1
    7     7     8    1
    8     7     9    1
    9     7    10    1
   10    10    11    1
   11    10    12    1
   12    10    13    1
   13    13    14    1
   14    13    15    1
   15    13    16    1
   16    16    17    1
   17    16    18    1
   18    16    19    1
   19    19    20    1
   20    19    21    1
   21    19    22    1
   22    22    23    1
   23    22    24    1
   24    22    25    1
@<TRIPOS>SUBSTRUCTURE
       1 MOL1            1 RESIDUE      1      MOL     
@<SCITEGIC>MOL_PROPERTY
VConf Rank
SciTegic.value.IntegerValue
854

@<SCITEGIC>MOL_PROPERTY
Conf_Id
SciTegic.value.IntegerValue
24

@<SCITEGIC>MOL_PROPERTY
Delta U+W
SciTegic.value.DoubleValue
1.784

@<SCITEGIC>MOL_PROPERTY
U+W
SciTegic.value.DoubleValue
-49.846

@<SCITEGIC>MOL_PROPERTY
Grad RMS
SciTegic.value.DoubleValue
0.000000

@<SCITEGIC>MOL_PROPERTY
U
SciTegic.value.DoubleValue
10.904

@<SCITEGIC>MOL_PROPERTY
W
SciTegic.value.DoubleValue
-60.749

@<SCITEGIC>MOL_PROPERTY
W(PB)
SciTegic.value.DoubleValue
-63.220

@<SCITEGIC>MOL_PROPERTY
W(SA)
SciTegic.value.DoubleValue
2.471

@<SCITEGIC>MOL_PROPERTY
Valence
SciTegic.value.DoubleValue
9.445

@<SCITEGIC>MOL_PROPERTY
Coulomb
SciTegic.value.DoubleValue
0.780

@<SCITEGIC>MOL_PROPERTY
VdW
SciTegic.value.DoubleValue
0.679

@<SCITEGIC>MOL_PROPERTY
VdW6
SciTegic.value.DoubleValue
-10.008

@<SCITEGIC>MOL_PROPERTY
VdW12
SciTegic.value.DoubleValue
10.687

@<SCITEGIC>MOL_PROPERTY
Bond
SciTegic.value.DoubleValue
0.201

@<SCITEGIC>MOL_PROPERTY
Angle
SciTegic.value.DoubleValue
3.198

@<SCITEGIC>MOL_PROPERTY
Pdih
SciTegic.value.DoubleValue
6.039

@<SCITEGIC>MOL_PROPERTY
Idih
SciTegic.value.DoubleValue
0.006

@<SCITEGIC>MOL_PROPERTY
Tether
SciTegic.value.DoubleValue
0.000

@<TRIPOS>MOLECULE
guest-8_confgen4.mol2 : confsearch ligand conformer 855
          25          24           1
SMALL
USER_CHARGES
 
@<TRIPOS>ATOM
       1    C1      19.561479   17.568299   26.378771 C.2        1 MOL1         0.6168
       2    O1      19.704885   18.423560   27.230597 O.co2      1 MOL1        -0.6703
       3    O2      18.475875   17.190355   25.984007 O.co2      1 MOL1        -0.6703
       4    C2      20.808218   16.883785   25.821572 C.3        1 MOL1        -0.1963
       5    H1      20.501087   16.109743   25.107909 H          1 MOL1         0.0750
       6    H2      21.277339   16.364308   26.665098 H          1 MOL1         0.0750
       7    C3      21.851410   17.834338   25.169420 C.3        1 MOL1        -0.1860
       8    H3      21.999076   18.719754   25.803318 H          1 MOL1         0.0752
       9    H4      22.818239   17.313533   25.148583 H          1 MOL1         0.0752
      10    C4      21.518270   18.268356   23.720375 C.3        1 MOL1        -0.1858
      11    H5      21.383828   17.378975   23.089691 H          1 MOL1         0.0752
      12    H6      22.387442   18.804888   23.315830 H          1 MOL1         0.0752
      13    C5      20.274975   19.179187   23.605352 C.3        1 MOL1        -0.1858
      14    H7      19.374107   18.616716   23.881163 H          1 MOL1         0.0752
      15    H8      20.362670   20.014347   24.313776 H          1 MOL1         0.0752
      16    C6      20.101594   19.730968   22.173554 C.3        1 MOL1        -0.1858
      17    H9      20.018983   18.894498   21.466075 H          1 MOL1         0.0752
      18    H10     20.994932   20.303740   21.889220 H          1 MOL1         0.0752
      19    C7      18.853957   20.631350   22.054870 C.3        1 MOL1        -0.1834
      20    H11     17.957885   20.061146   22.336873 H          1 MOL1         0.0752
      21    H12     18.933830   21.469550   22.760915 H          1 MOL1         0.0752
      22    C8      18.683172   21.180489   20.624155 C.3        1 MOL1        -0.2849
      23    H13     18.569269   20.362661   19.900583 H          1 MOL1         0.0764
      24    H14     17.791867   21.817902   20.558245 H          1 MOL1         0.0764
      25    H15     19.552622   21.781855   20.327864 H          1 MOL1         0.0764
@<TRIPOS>BOND
    1     1     2    1
    2     1     3    2
    3     1     4    1
    4     4     5    1
    5     4     6    1
    6     4     7    1
    7     7     8    1
    8     7     9    1
    9     7    10    1
   10    10    11    1
   11    10    12    1
   12    10    13    1
   13    13    14    1
   14    13    15    1
   15    13    16    1
   16    16    17    1
   17    16    18    1
   18    16    19    1
   19    19    20    1
   20    19    21    1
   21    19    22    1
   22    22    23    1
   23    22    24    1
   24    22    25    1
@<TRIPOS>SUBSTRUCTURE
       1 MOL1            1 RESIDUE      1      MOL     
@<SCITEGIC>MOL_PROPERTY
VConf Rank
SciTegic.value.IntegerValue
855

@<SCITEGIC>MOL_PROPERTY
Conf_Id
SciTegic.value.IntegerValue
9

@<SCITEGIC>MOL_PROPERTY
Delta U+W
SciTegic.value.DoubleValue
1.764

@<SCITEGIC>MOL_PROPERTY
U+W
SciTegic.value.DoubleValue
-49.865

@<SCITEGIC>MOL_PROPERTY
Grad RMS
SciTegic.value.DoubleValue
0.000000

@<SCITEGIC>MOL_PROPERTY
U
SciTegic.value.DoubleValue
10.902

@<SCITEGIC>MOL_PROPERTY
W
SciTegic.value.DoubleValue
-60.768

@<SCITEGIC>MOL_PROPERTY
W(PB)
SciTegic.value.DoubleValue
-63.223

@<SCITEGIC>MOL_PROPERTY
W(SA)
SciTegic.value.DoubleValue
2.456

@<SCITEGIC>MOL_PROPERTY
Valence
SciTegic.value.DoubleValue
9.445

@<SCITEGIC>MOL_PROPERTY
Coulomb
SciTegic.value.DoubleValue
0.778

@<SCITEGIC>MOL_PROPERTY
VdW
SciTegic.value.DoubleValue
0.679

@<SCITEGIC>MOL_PROPERTY
VdW6
SciTegic.value.DoubleValue
-10.007

@<SCITEGIC>MOL_PROPERTY
VdW12
SciTegic.value.DoubleValue
10.687

@<SCITEGIC>MOL_PROPERTY
Bond
SciTegic.value.DoubleValue
0.201

@<SCITEGIC>MOL_PROPERTY
Angle
SciTegic.value.DoubleValue
3.198

@<SCITEGIC>MOL_PROPERTY
Pdih
SciTegic.value.DoubleValue
6.040

@<SCITEGIC>MOL_PROPERTY
Idih
SciTegic.value.DoubleValue
0.006

@<SCITEGIC>MOL_PROPERTY
Tether
SciTegic.value.DoubleValue
0.000

@<TRIPOS>MOLECULE
guest-8_confgen4.mol2 : confsearch ligand conformer 856
          25          24           1
SMALL
USER_CHARGES
 
@<TRIPOS>ATOM
       1    C1      16.912746   17.240643   24.124241 C.2        1 MOL1         0.6168
       2    O1      16.599416   18.009651   25.011403 O.co2      1 MOL1        -0.6703
       3    O2      16.146542   16.440084   23.625358 O.co2      1 MOL1        -0.6703
       4    C2      18.340544   17.296976   23.593263 C.3        1 MOL1        -0.1963
       5    H1      18.628874   16.283180   23.291038 H          1 MOL1         0.0750
       6    H2      18.995093   17.580625   24.423065 H          1 MOL1         0.0750
       7    C3      18.497338   18.273157   22.397381 C.3        1 MOL1        -0.1860
       8    H3      17.825135   17.936013   21.596187 H          1 MOL1         0.0752
       9    H4      18.154142   19.277647   22.681338 H          1 MOL1         0.0752
      10    C4      19.941230   18.337903   21.837672 C.3        1 MOL1        -0.1858
      11    H5      19.879450   18.474495   20.749351 H          1 MOL1         0.0752
      12    H6      20.452476   17.377402   21.989008 H          1 MOL1         0.0752
      13    C5      20.802415   19.495275   22.403016 C.3        1 MOL1        -0.1858
      14    H7      21.767469   19.495056   21.878401 H          1 MOL1         0.0752
      15    H8      20.319679   20.451469   22.162009 H          1 MOL1         0.0752
      16    C6      21.059467   19.410425   23.926136 C.3        1 MOL1        -0.1858
      17    H9      21.397878   18.396228   24.177689 H          1 MOL1         0.0752
      18    H10     20.121062   19.577730   24.470795 H          1 MOL1         0.0752
      19    C7      22.118013   20.421399   24.425082 C.3        1 MOL1        -0.1834
      20    H11     22.313485   20.231265   25.489414 H          1 MOL1         0.0752
      21    H12     23.068547   20.253115   23.900296 H          1 MOL1         0.0752
      22    C8      21.683569   21.893158   24.253300 C.3        1 MOL1        -0.2849
      23    H13     20.721869   22.079044   24.749004 H          1 MOL1         0.0764
      24    H14     22.428065   22.567654   24.695601 H          1 MOL1         0.0764
      25    H15     21.581849   22.159016   23.193656 H          1 MOL1         0.0764
@<TRIPOS>BOND
    1     1     2    1
    2     1     3    2
    3     1     4    1
    4     4     5    1
    5     4     6    1
    6     4     7    1
    7     7     8    1
    8     7     9    1
    9     7    10    1
   10    10    11    1
   11    10    12    1
   12    10    13    1
   13    13    14    1
   14    13    15    1
   15    13    16    1
   16    16    17    1
   17    16    18    1
   18    16    19    1
   19    19    20    1
   20    19    21    1
   21    19    22    1
   22    22    23    1
   23    22    24    1
   24    22    25    1
@<TRIPOS>SUBSTRUCTURE
       1 MOL1            1 RESIDUE      1      MOL     
@<SCITEGIC>MOL_PROPERTY
VConf Rank
SciTegic.value.IntegerValue
856

@<SCITEGIC>MOL_PROPERTY
Conf_Id
SciTegic.value.IntegerValue
89

@<SCITEGIC>MOL_PROPERTY
Delta U+W
SciTegic.value.DoubleValue
2.903

@<SCITEGIC>MOL_PROPERTY
U+W
SciTegic.value.DoubleValue
-48.726

@<SCITEGIC>MOL_PROPERTY
Grad RMS
SciTegic.value.DoubleValue
0.000000

@<SCITEGIC>MOL_PROPERTY
U
SciTegic.value.DoubleValue
10.996

@<SCITEGIC>MOL_PROPERTY
W
SciTegic.value.DoubleValue
-59.723

@<SCITEGIC>MOL_PROPERTY
W(PB)
SciTegic.value.DoubleValue
-62.151

@<SCITEGIC>MOL_PROPERTY
W(SA)
SciTegic.value.DoubleValue
2.428

@<SCITEGIC>MOL_PROPERTY
Valence
SciTegic.value.DoubleValue
10.985

@<SCITEGIC>MOL_PROPERTY
Coulomb
SciTegic.value.DoubleValue
-0.995

@<SCITEGIC>MOL_PROPERTY
VdW
SciTegic.value.DoubleValue
1.006

@<SCITEGIC>MOL_PROPERTY
VdW6
SciTegic.value.DoubleValue
-10.062

@<SCITEGIC>MOL_PROPERTY
VdW12
SciTegic.value.DoubleValue
11.069

@<SCITEGIC>MOL_PROPERTY
Bond
SciTegic.value.DoubleValue
0.238

@<SCITEGIC>MOL_PROPERTY
Angle
SciTegic.value.DoubleValue
3.202

@<SCITEGIC>MOL_PROPERTY
Pdih
SciTegic.value.DoubleValue
7.544

@<SCITEGIC>MOL_PROPERTY
Idih
SciTegic.value.DoubleValue
0.001

@<SCITEGIC>MOL_PROPERTY
Tether
SciTegic.value.DoubleValue
0.000

@<TRIPOS>MOLECULE
guest-8_confgen4.mol2 : confsearch ligand conformer 857
          25          24           1
SMALL
USER_CHARGES
 
@<TRIPOS>ATOM
       1    C1      22.261894   16.521339   22.471306 C.2        1 MOL1         0.6168
       2    O1      22.292011   15.874797   23.500061 O.co2      1 MOL1        -0.6703
       3    O2      21.808257   16.097622   21.426182 O.co2      1 MOL1        -0.6703
       4    C2      22.886045   17.915479   22.478771 C.3        1 MOL1        -0.1963
       5    H1      23.742651   17.872172   21.796256 H          1 MOL1         0.0750
       6    H2      23.290842   18.120037   23.477303 H          1 MOL1         0.0750
       7    C3      21.942380   19.067961   22.032829 C.3        1 MOL1        -0.1860
       8    H3      22.568237   19.911439   21.711439 H          1 MOL1         0.0752
       9    H4      21.369842   18.762491   21.146002 H          1 MOL1         0.0752
      10    C4      20.982254   19.587477   23.132008 C.3        1 MOL1        -0.1858
      11    H5      20.501628   20.496792   22.750349 H          1 MOL1         0.0752
      12    H6      21.561180   19.891213   24.014699 H          1 MOL1         0.0752
      13    C5      19.893037   18.569781   23.549482 C.3        1 MOL1        -0.1858
      14    H7      19.351239   18.216829   22.661423 H          1 MOL1         0.0752
      15    H8      20.372755   17.688737   23.992729 H          1 MOL1         0.0752
      16    C6      18.887844   19.129892   24.584489 C.3        1 MOL1        -0.1858
      17    H9      19.433180   19.512265   25.458117 H          1 MOL1         0.0752
      18    H10     18.266093   18.299628   24.946415 H          1 MOL1         0.0752
      19    C7      17.964587   20.233338   24.019298 C.3        1 MOL1        -0.1834
      20    H11     18.555612   21.110451   23.725881 H          1 MOL1         0.0752
      21    H12     17.461930   19.867574   23.113351 H          1 MOL1         0.0752
      22    C8      16.905112   20.667482   25.052316 C.3        1 MOL1        -0.2849
      23    H13     17.380577   21.063117   25.959385 H          1 MOL1         0.0764
      24    H14     16.259761   21.452804   24.637778 H          1 MOL1         0.0764
      25    H15     16.266950   19.821874   25.340482 H          1 MOL1         0.0764
@<TRIPOS>BOND
    1     1     2    1
    2     1     3    2
    3     1     4    1
    4     4     5    1
    5     4     6    1
    6     4     7    1
    7     7     8    1
    8     7     9    1
    9     7    10    1
   10    10    11    1
   11    10    12    1
   12    10    13    1
   13    13    14    1
   14    13    15    1
   15    13    16    1
   16    16    17    1
   17    16    18    1
   18    16    19    1
   19    19    20    1
   20    19    21    1
   21    19    22    1
   22    22    23    1
   23    22    24    1
   24    22    25    1
@<TRIPOS>SUBSTRUCTURE
       1 MOL1            1 RESIDUE      1      MOL     
@<SCITEGIC>MOL_PROPERTY
VConf Rank
SciTegic.value.IntegerValue
857

@<SCITEGIC>MOL_PROPERTY
Conf_Id
SciTegic.value.IntegerValue
114

@<SCITEGIC>MOL_PROPERTY
Delta U+W
SciTegic.value.DoubleValue
2.758

@<SCITEGIC>MOL_PROPERTY
U+W
SciTegic.value.DoubleValue
-48.871

@<SCITEGIC>MOL_PROPERTY
Grad RMS
SciTegic.value.DoubleValue
0.000000

@<SCITEGIC>MOL_PROPERTY
U
SciTegic.value.DoubleValue
11.422

@<SCITEGIC>MOL_PROPERTY
W
SciTegic.value.DoubleValue
-60.293

@<SCITEGIC>MOL_PROPERTY
W(PB)
SciTegic.value.DoubleValue
-62.719

@<SCITEGIC>MOL_PROPERTY
W(SA)
SciTegic.value.DoubleValue
2.425

@<SCITEGIC>MOL_PROPERTY
Valence
SciTegic.value.DoubleValue
10.135

@<SCITEGIC>MOL_PROPERTY
Coulomb
SciTegic.value.DoubleValue
0.369

@<SCITEGIC>MOL_PROPERTY
VdW
SciTegic.value.DoubleValue
0.918

@<SCITEGIC>MOL_PROPERTY
VdW6
SciTegic.value.DoubleValue
-10.482

@<SCITEGIC>MOL_PROPERTY
VdW12
SciTegic.value.DoubleValue
11.400

@<SCITEGIC>MOL_PROPERTY
Bond
SciTegic.value.DoubleValue
0.245

@<SCITEGIC>MOL_PROPERTY
Angle
SciTegic.value.DoubleValue
3.539

@<SCITEGIC>MOL_PROPERTY
Pdih
SciTegic.value.DoubleValue
6.346

@<SCITEGIC>MOL_PROPERTY
Idih
SciTegic.value.DoubleValue
0.006

@<SCITEGIC>MOL_PROPERTY
Tether
SciTegic.value.DoubleValue
0.000

@<TRIPOS>MOLECULE
guest-8_confgen4.mol2 : confsearch ligand conformer 858
          25          24           1
SMALL
USER_CHARGES
 
@<TRIPOS>ATOM
       1    C1      22.785829   16.464982   22.334225 C.2        1 MOL1         0.6168
       2    O1      22.169028   15.422830   22.231569 O.co2      1 MOL1        -0.6703
       3    O2      23.365149   16.997904   21.408223 O.co2      1 MOL1        -0.6703
       4    C2      22.855314   17.132176   23.704981 C.3        1 MOL1        -0.1963
       5    H1      23.896611   17.431850   23.871936 H          1 MOL1         0.0750
       6    H2      22.613480   16.385032   24.470532 H          1 MOL1         0.0750
       7    C3      21.930543   18.368542   23.850494 C.3        1 MOL1        -0.1860
       8    H3      22.138777   18.858563   24.811102 H          1 MOL1         0.0752
       9    H4      22.179824   19.092386   23.063578 H          1 MOL1         0.0752
      10    C4      20.429918   17.996253   23.781358 C.3        1 MOL1        -0.1858
      11    H5      20.226274   17.203505   24.514108 H          1 MOL1         0.0752
      12    H6      20.194839   17.572724   22.795122 H          1 MOL1         0.0752
      13    C5      19.482914   19.185429   24.070717 C.3        1 MOL1        -0.1858
      14    H7      18.460380   18.793918   24.143715 H          1 MOL1         0.0752
      15    H8      19.722256   19.616420   25.052289 H          1 MOL1         0.0752
      16    C6      19.533313   20.291170   22.987509 C.3        1 MOL1        -0.1858
      17    H9      19.297426   19.858865   22.005597 H          1 MOL1         0.0752
      18    H10     20.554343   20.686788   22.916467 H          1 MOL1         0.0752
      19    C7      18.580700   21.475667   23.273749 C.3        1 MOL1        -0.1834
      20    H11     18.806213   21.903303   24.260440 H          1 MOL1         0.0752
      21    H12     18.777058   22.269466   22.539878 H          1 MOL1         0.0752
      22    C8      17.086134   21.093695   23.201107 C.3        1 MOL1        -0.2849
      23    H13     16.456534   21.985553   23.315543 H          1 MOL1         0.0764
      24    H14     16.845056   20.631934   22.234789 H          1 MOL1         0.0764
      25    H15     16.811899   20.390566   23.997230 H          1 MOL1         0.0764
@<TRIPOS>BOND
    1     1     2    1
    2     1     3    2
    3     1     4    1
    4     4     5    1
    5     4     6    1
    6     4     7    1
    7     7     8    1
    8     7     9    1
    9     7    10    1
   10    10    11    1
   11    10    12    1
   12    10    13    1
   13    13    14    1
   14    13    15    1
   15    13    16    1
   16    16    17    1
   17    16    18    1
   18    16    19    1
   19    19    20    1
   20    19    21    1
   21    19    22    1
   22    22    23    1
   23    22    24    1
   24    22    25    1
@<TRIPOS>SUBSTRUCTURE
       1 MOL1            1 RESIDUE      1      MOL     
@<SCITEGIC>MOL_PROPERTY
VConf Rank
SciTegic.value.IntegerValue
858

@<SCITEGIC>MOL_PROPERTY
Conf_Id
SciTegic.value.IntegerValue
87

@<SCITEGIC>MOL_PROPERTY
Delta U+W
SciTegic.value.DoubleValue
1.453

@<SCITEGIC>MOL_PROPERTY
U+W
SciTegic.value.DoubleValue
-50.176

@<SCITEGIC>MOL_PROPERTY
Grad RMS
SciTegic.value.DoubleValue
0.000000

@<SCITEGIC>MOL_PROPERTY
U
SciTegic.value.DoubleValue
9.763

@<SCITEGIC>MOL_PROPERTY
W
SciTegic.value.DoubleValue
-59.940

@<SCITEGIC>MOL_PROPERTY
W(PB)
SciTegic.value.DoubleValue
-62.392

@<SCITEGIC>MOL_PROPERTY
W(SA)
SciTegic.value.DoubleValue
2.452

@<SCITEGIC>MOL_PROPERTY
Valence
SciTegic.value.DoubleValue
8.883

@<SCITEGIC>MOL_PROPERTY
Coulomb
SciTegic.value.DoubleValue
-0.122

@<SCITEGIC>MOL_PROPERTY
VdW
SciTegic.value.DoubleValue
1.003

@<SCITEGIC>MOL_PROPERTY
VdW6
SciTegic.value.DoubleValue
-9.782

@<SCITEGIC>MOL_PROPERTY
VdW12
SciTegic.value.DoubleValue
10.785

@<SCITEGIC>MOL_PROPERTY
Bond
SciTegic.value.DoubleValue
0.212

@<SCITEGIC>MOL_PROPERTY
Angle
SciTegic.value.DoubleValue
2.940

@<SCITEGIC>MOL_PROPERTY
Pdih
SciTegic.value.DoubleValue
5.730

@<SCITEGIC>MOL_PROPERTY
Idih
SciTegic.value.DoubleValue
0.001

@<SCITEGIC>MOL_PROPERTY
Tether
SciTegic.value.DoubleValue
0.000

@<TRIPOS>MOLECULE
guest-8_confgen4.mol2 : confsearch ligand conformer 859
          25          24           1
SMALL
USER_CHARGES
 
@<TRIPOS>ATOM
       1    C1      17.688460   22.037370   22.149580 C.2        1 MOL1         0.6168
       2    O1      18.466796   22.774653   21.577487 O.co2      1 MOL1        -0.6703
       3    O2      16.523214   21.909319   21.829350 O.co2      1 MOL1        -0.6703
       4    C2      18.207171   21.213467   23.322735 C.3        1 MOL1        -0.1963
       5    H1      17.386757   21.087027   24.039265 H          1 MOL1         0.0750
       6    H2      18.991049   21.792477   23.825584 H          1 MOL1         0.0750
       7    C3      18.758178   19.832333   22.890522 C.3        1 MOL1        -0.1860
       8    H3      17.965196   19.267553   22.381263 H          1 MOL1         0.0752
       9    H4      19.563510   19.984273   22.159673 H          1 MOL1         0.0752
      10    C4      19.283675   19.021125   24.097345 C.3        1 MOL1        -0.1858
      11    H5      18.485594   18.939319   24.847676 H          1 MOL1         0.0752
      12    H6      20.103434   19.566455   24.583161 H          1 MOL1         0.0752
      13    C5      19.749953   17.591744   23.723458 C.3        1 MOL1        -0.1858
      14    H7      20.049765   17.065739   24.639324 H          1 MOL1         0.0752
      15    H8      18.892118   17.031841   23.327103 H          1 MOL1         0.0752
      16    C6      20.906559   17.520575   22.691461 C.3        1 MOL1        -0.1858
      17    H9      20.553277   17.898280   21.723061 H          1 MOL1         0.0752
      18    H10     21.160334   16.465265   22.522916 H          1 MOL1         0.0752
      19    C7      22.193199   18.285111   23.089170 C.3        1 MOL1        -0.1834
      20    H11     22.925710   18.184479   22.276639 H          1 MOL1         0.0752
      21    H12     21.982574   19.359260   23.176772 H          1 MOL1         0.0752
      22    C8      22.829105   17.769792   24.398410 C.3        1 MOL1        -0.2849
      23    H13     23.033181   16.692895   24.338564 H          1 MOL1         0.0764
      24    H14     23.778901   18.284359   24.592928 H          1 MOL1         0.0764
      25    H15     22.171297   17.948660   25.258201 H          1 MOL1         0.0764
@<TRIPOS>BOND
    1     1     2    1
    2     1     3    2
    3     1     4    1
    4     4     5    1
    5     4     6    1
    6     4     7    1
    7     7     8    1
    8     7     9    1
    9     7    10    1
   10    10    11    1
   11    10    12    1
   12    10    13    1
   13    13    14    1
   14    13    15    1
   15    13    16    1
   16    16    17    1
   17    16    18    1
   18    16    19    1
   19    19    20    1
   20    19    21    1
   21    19    22    1
   22    22    23    1
   23    22    24    1
   24    22    25    1
@<TRIPOS>SUBSTRUCTURE
       1 MOL1            1 RESIDUE      1      MOL     
@<SCITEGIC>MOL_PROPERTY
VConf Rank
SciTegic.value.IntegerValue
859

@<SCITEGIC>MOL_PROPERTY
Conf_Id
SciTegic.value.IntegerValue
29

@<SCITEGIC>MOL_PROPERTY
Delta U+W
SciTegic.value.DoubleValue
0.850

@<SCITEGIC>MOL_PROPERTY
U+W
SciTegic.value.DoubleValue
-50.780

@<SCITEGIC>MOL_PROPERTY
Grad RMS
SciTegic.value.DoubleValue
0.000000

@<SCITEGIC>MOL_PROPERTY
U
SciTegic.value.DoubleValue
8.646

@<SCITEGIC>MOL_PROPERTY
W
SciTegic.value.DoubleValue
-59.426

@<SCITEGIC>MOL_PROPERTY
W(PB)
SciTegic.value.DoubleValue
-61.868

@<SCITEGIC>MOL_PROPERTY
W(SA)
SciTegic.value.DoubleValue
2.442

@<SCITEGIC>MOL_PROPERTY
Valence
SciTegic.value.DoubleValue
8.924

@<SCITEGIC>MOL_PROPERTY
Coulomb
SciTegic.value.DoubleValue
-1.171

@<SCITEGIC>MOL_PROPERTY
VdW
SciTegic.value.DoubleValue
0.894

@<SCITEGIC>MOL_PROPERTY
VdW6
SciTegic.value.DoubleValue
-10.223

@<SCITEGIC>MOL_PROPERTY
VdW12
SciTegic.value.DoubleValue
11.117

@<SCITEGIC>MOL_PROPERTY
Bond
SciTegic.value.DoubleValue
0.231

@<SCITEGIC>MOL_PROPERTY
Angle
SciTegic.value.DoubleValue
3.232

@<SCITEGIC>MOL_PROPERTY
Pdih
SciTegic.value.DoubleValue
5.461

@<SCITEGIC>MOL_PROPERTY
Idih
SciTegic.value.DoubleValue
0.001

@<SCITEGIC>MOL_PROPERTY
Tether
SciTegic.value.DoubleValue
0.000

@<TRIPOS>MOLECULE
guest-8_confgen4.mol2 : confsearch ligand conformer 860
          25          24           1
SMALL
USER_CHARGES
 
@<TRIPOS>ATOM
       1    C1      17.549596   18.919567   26.443072 C.2        1 MOL1         0.6168
       2    O1      18.220091   18.291802   27.238706 O.co2      1 MOL1        -0.6703
       3    O2      16.338406   18.845853   26.377299 O.co2      1 MOL1        -0.6703
       4    C2      18.269288   19.836220   25.460238 C.3        1 MOL1        -0.1963
       5    H1      19.167158   20.227136   25.953784 H          1 MOL1         0.0750
       6    H2      17.615576   20.691376   25.250836 H          1 MOL1         0.0750
       7    C3      18.653842   19.120777   24.141824 C.3        1 MOL1        -0.1860
       8    H3      19.290793   18.258235   24.378682 H          1 MOL1         0.0752
       9    H4      17.746343   18.727588   23.663294 H          1 MOL1         0.0752
      10    C4      19.388114   20.070136   23.167044 C.3        1 MOL1        -0.1858
      11    H5      20.315867   20.432333   23.629099 H          1 MOL1         0.0752
      12    H6      18.765498   20.958967   22.996896 H          1 MOL1         0.0752
      13    C5      19.700372   19.423336   21.794279 C.3        1 MOL1        -0.1858
      14    H7      18.753884   19.154249   21.306197 H          1 MOL1         0.0752
      15    H8      20.165131   20.176796   21.144912 H          1 MOL1         0.0752
      16    C6      20.605947   18.164313   21.845437 C.3        1 MOL1        -0.1858
      17    H9      20.771270   17.810565   20.818782 H          1 MOL1         0.0752
      18    H10     20.071177   17.352530   22.355628 H          1 MOL1         0.0752
      19    C7      21.980149   18.367764   22.529768 C.3        1 MOL1        -0.1834
      20    H11     21.840487   18.636204   23.585358 H          1 MOL1         0.0752
      21    H12     22.517326   17.409462   22.528549 H          1 MOL1         0.0752
      22    C8      22.857418   19.430297   21.833019 C.3        1 MOL1        -0.2849
      23    H13     22.406623   20.428129   21.904159 H          1 MOL1         0.0764
      24    H14     23.848491   19.478287   22.302273 H          1 MOL1         0.0764
      25    H15     22.996571   19.189731   20.771087 H          1 MOL1         0.0764
@<TRIPOS>BOND
    1     1     2    1
    2     1     3    2
    3     1     4    1
    4     4     5    1
    5     4     6    1
    6     4     7    1
    7     7     8    1
    8     7     9    1
    9     7    10    1
   10    10    11    1
   11    10    12    1
   12    10    13    1
   13    13    14    1
   14    13    15    1
   15    13    16    1
   16    16    17    1
   17    16    18    1
   18    16    19    1
   19    19    20    1
   20    19    21    1
   21    19    22    1
   22    22    23    1
   23    22    24    1
   24    22    25    1
@<TRIPOS>SUBSTRUCTURE
       1 MOL1            1 RESIDUE      1      MOL     
@<SCITEGIC>MOL_PROPERTY
VConf Rank
SciTegic.value.IntegerValue
860

@<SCITEGIC>MOL_PROPERTY
Conf_Id
SciTegic.value.IntegerValue
30

@<SCITEGIC>MOL_PROPERTY
Delta U+W
SciTegic.value.DoubleValue
0.843

@<SCITEGIC>MOL_PROPERTY
U+W
SciTegic.value.DoubleValue
-50.787

@<SCITEGIC>MOL_PROPERTY
Grad RMS
SciTegic.value.DoubleValue
0.000000

@<SCITEGIC>MOL_PROPERTY
U
SciTegic.value.DoubleValue
8.647

@<SCITEGIC>MOL_PROPERTY
W
SciTegic.value.DoubleValue
-59.434

@<SCITEGIC>MOL_PROPERTY
W(PB)
SciTegic.value.DoubleValue
-61.861

@<SCITEGIC>MOL_PROPERTY
W(SA)
SciTegic.value.DoubleValue
2.428

@<SCITEGIC>MOL_PROPERTY
Valence
SciTegic.value.DoubleValue
8.924

@<SCITEGIC>MOL_PROPERTY
Coulomb
SciTegic.value.DoubleValue
-1.170

@<SCITEGIC>MOL_PROPERTY
VdW
SciTegic.value.DoubleValue
0.894

@<SCITEGIC>MOL_PROPERTY
VdW6
SciTegic.value.DoubleValue
-10.224

@<SCITEGIC>MOL_PROPERTY
VdW12
SciTegic.value.DoubleValue
11.118

@<SCITEGIC>MOL_PROPERTY
Bond
SciTegic.value.DoubleValue
0.231

@<SCITEGIC>MOL_PROPERTY
Angle
SciTegic.value.DoubleValue
3.232

@<SCITEGIC>MOL_PROPERTY
Pdih
SciTegic.value.DoubleValue
5.460

@<SCITEGIC>MOL_PROPERTY
Idih
SciTegic.value.DoubleValue
0.000

@<SCITEGIC>MOL_PROPERTY
Tether
SciTegic.value.DoubleValue
0.000

@<TRIPOS>MOLECULE
guest-8_confgen4.mol2 : confsearch ligand conformer 861
          25          24           1
SMALL
USER_CHARGES
 
@<TRIPOS>ATOM
       1    C1      20.771826   19.471092   27.770734 C.2        1 MOL1         0.6168
       2    O1      21.152574   18.320093   27.864720 O.co2      1 MOL1        -0.6703
       3    O2      20.695330   20.224624   28.720711 O.co2      1 MOL1        -0.6703
       4    C2      20.362566   20.025621   26.405303 C.3        1 MOL1        -0.1963
       5    H1      20.986974   20.905147   26.209202 H          1 MOL1         0.0750
       6    H2      19.328476   20.379082   26.492651 H          1 MOL1         0.0750
       7    C3      20.477483   19.026515   25.223356 C.3        1 MOL1        -0.1860
       8    H3      21.514537   18.671572   25.145645 H          1 MOL1         0.0752
       9    H4      19.854498   18.145051   25.429312 H          1 MOL1         0.0752
      10    C4      20.045889   19.666754   23.886020 C.3        1 MOL1        -0.1858
      11    H5      20.669986   20.547727   23.682242 H          1 MOL1         0.0752
      12    H6      19.008904   20.020857   23.966080 H          1 MOL1         0.0752
      13    C5      20.161011   18.671173   22.711689 C.3        1 MOL1        -0.1858
      14    H7      21.197909   18.316922   22.631365 H          1 MOL1         0.0752
      15    H8      19.536976   17.790105   22.915166 H          1 MOL1         0.0752
      16    C6      19.729634   19.310699   21.374216 C.3        1 MOL1        -0.1858
      17    H9      20.353583   20.191770   21.170513 H          1 MOL1         0.0752
      18    H10     18.692714   19.664933   21.454281 H          1 MOL1         0.0752
      19    C7      19.844703   18.315662   20.200325 C.3        1 MOL1        -0.1834
      20    H11     20.881162   17.960527   20.115942 H          1 MOL1         0.0752
      21    H12     19.220304   17.433696   20.399699 H          1 MOL1         0.0752
      22    C8      19.413090   18.958013   18.866646 C.3        1 MOL1        -0.2849
      23    H13     20.042300   19.825077   18.626455 H          1 MOL1         0.0764
      24    H14     19.501180   18.237017   18.043546 H          1 MOL1         0.0764
      25    H15     18.368941   19.294263   18.912336 H          1 MOL1         0.0764
@<TRIPOS>BOND
    1     1     2    1
    2     1     3    2
    3     1     4    1
    4     4     5    1
    5     4     6    1
    6     4     7    1
    7     7     8    1
    8     7     9    1
    9     7    10    1
   10    10    11    1
   11    10    12    1
   12    10    13    1
   13    13    14    1
   14    13    15    1
   15    13    16    1
   16    16    17    1
   17    16    18    1
   18    16    19    1
   19    19    20    1
   20    19    21    1
   21    19    22    1
   22    22    23    1
   23    22    24    1
   24    22    25    1
@<TRIPOS>SUBSTRUCTURE
       1 MOL1            1 RESIDUE      1      MOL     
@<SCITEGIC>MOL_PROPERTY
VConf Rank
SciTegic.value.IntegerValue
861

@<SCITEGIC>MOL_PROPERTY
Conf_Id
SciTegic.value.IntegerValue
0

@<SCITEGIC>MOL_PROPERTY
Delta U+W
SciTegic.value.DoubleValue
0.000

@<SCITEGIC>MOL_PROPERTY
U+W
SciTegic.value.DoubleValue
-51.629

@<SCITEGIC>MOL_PROPERTY
Grad RMS
SciTegic.value.DoubleValue
0.000000

@<SCITEGIC>MOL_PROPERTY
U
SciTegic.value.DoubleValue
6.586

@<SCITEGIC>MOL_PROPERTY
W
SciTegic.value.DoubleValue
-58.216

@<SCITEGIC>MOL_PROPERTY
W(PB)
SciTegic.value.DoubleValue
-60.757

@<SCITEGIC>MOL_PROPERTY
W(SA)
SciTegic.value.DoubleValue
2.541

@<SCITEGIC>MOL_PROPERTY
Valence
SciTegic.value.DoubleValue
8.027

@<SCITEGIC>MOL_PROPERTY
Coulomb
SciTegic.value.DoubleValue
-2.892

@<SCITEGIC>MOL_PROPERTY
VdW
SciTegic.value.DoubleValue
1.451

@<SCITEGIC>MOL_PROPERTY
VdW6
SciTegic.value.DoubleValue
-7.931

@<SCITEGIC>MOL_PROPERTY
VdW12
SciTegic.value.DoubleValue
9.383

@<SCITEGIC>MOL_PROPERTY
Bond
SciTegic.value.DoubleValue
0.149

@<SCITEGIC>MOL_PROPERTY
Angle
SciTegic.value.DoubleValue
2.726

@<SCITEGIC>MOL_PROPERTY
Pdih
SciTegic.value.DoubleValue
5.152

@<SCITEGIC>MOL_PROPERTY
Idih
SciTegic.value.DoubleValue
0.000

@<SCITEGIC>MOL_PROPERTY
Tether
SciTegic.value.DoubleValue
0.000

@<TRIPOS>MOLECULE
guest-8_confgen4.mol2 : confsearch ligand conformer 862
          25          24           1
SMALL
USER_CHARGES
 
@<TRIPOS>ATOM
       1    C1      20.312819   15.492667   20.235283 C.2        1 MOL1         0.6168
       2    O1      19.244233   14.946744   20.043681 O.co2      1 MOL1        -0.6703
       3    O2      21.194198   15.559157   19.401395 O.co2      1 MOL1        -0.6703
       4    C2      20.552146   16.150792   21.589417 C.3        1 MOL1        -0.1963
       5    H1      21.621625   16.076122   21.820162 H          1 MOL1         0.0750
       6    H2      20.015076   15.570912   22.349615 H          1 MOL1         0.0750
       7    C3      20.099031   17.631094   21.627024 C.3        1 MOL1        -0.1860
       8    H3      20.636133   18.194821   20.851571 H          1 MOL1         0.0752
       9    H4      19.029653   17.689623   21.380855 H          1 MOL1         0.0752
      10    C4      20.351478   18.274731   23.007612 C.3        1 MOL1        -0.1858
      11    H5      21.421111   18.213614   23.251191 H          1 MOL1         0.0752
      12    H6      19.814350   17.708105   23.780663 H          1 MOL1         0.0752
      13    C5      19.898615   19.750262   23.042137 C.3        1 MOL1        -0.1858
      14    H7      20.435657   20.317097   22.269227 H          1 MOL1         0.0752
      15    H8      18.829020   19.811599   22.798606 H          1 MOL1         0.0752
      16    C6      20.150698   20.394544   24.422439 C.3        1 MOL1        -0.1858
      17    H9      21.220246   20.333460   24.666226 H          1 MOL1         0.0752
      18    H10     19.613764   19.827929   25.195579 H          1 MOL1         0.0752
      19    C7      19.698020   21.869413   24.457158 C.3        1 MOL1        -0.1834
      20    H11     20.234469   22.439841   23.686235 H          1 MOL1         0.0752
      21    H12     18.628003   21.934314   24.215617 H          1 MOL1         0.0752
      22    C8      19.951425   22.509162   25.837052 C.3        1 MOL1        -0.2849
      23    H13     19.623935   23.556918   25.843784 H          1 MOL1         0.0764
      24    H14     19.400881   21.976961   26.623857 H          1 MOL1         0.0764
      25    H15     21.019435   22.486290   26.090484 H          1 MOL1         0.0764
@<TRIPOS>BOND
    1     1     2    1
    2     1     3    2
    3     1     4    1
    4     4     5    1
    5     4     6    1
    6     4     7    1
    7     7     8    1
    8     7     9    1
    9     7    10    1
   10    10    11    1
   11    10    12    1
   12    10    13    1
   13    13    14    1
   14    13    15    1
   15    13    16    1
   16    16    17    1
   17    16    18    1
   18    16    19    1
   19    19    20    1
   20    19    21    1
   21    19    22    1
   22    22    23    1
   23    22    24    1
   24    22    25    1
@<TRIPOS>SUBSTRUCTURE
       1 MOL1            1 RESIDUE      1      MOL     
@<SCITEGIC>MOL_PROPERTY
VConf Rank
SciTegic.value.IntegerValue
862

@<SCITEGIC>MOL_PROPERTY
Conf_Id
SciTegic.value.IntegerValue
27

@<SCITEGIC>MOL_PROPERTY
Delta U+W
SciTegic.value.DoubleValue
-1.297

@<SCITEGIC>MOL_PROPERTY
U+W
SciTegic.value.DoubleValue
-52.926

@<SCITEGIC>MOL_PROPERTY
Grad RMS
SciTegic.value.DoubleValue
0.000000

@<SCITEGIC>MOL_PROPERTY
U
SciTegic.value.DoubleValue
5.617

@<SCITEGIC>MOL_PROPERTY
W
SciTegic.value.DoubleValue
-58.543

@<SCITEGIC>MOL_PROPERTY
W(PB)
SciTegic.value.DoubleValue
-61.065

@<SCITEGIC>MOL_PROPERTY
W(SA)
SciTegic.value.DoubleValue
2.522

@<SCITEGIC>MOL_PROPERTY
Valence
SciTegic.value.DoubleValue
7.531

@<SCITEGIC>MOL_PROPERTY
Coulomb
SciTegic.value.DoubleValue
-2.818

@<SCITEGIC>MOL_PROPERTY
VdW
SciTegic.value.DoubleValue
0.904

@<SCITEGIC>MOL_PROPERTY
VdW6
SciTegic.value.DoubleValue
-7.640

@<SCITEGIC>MOL_PROPERTY
VdW12
SciTegic.value.DoubleValue
8.544

@<SCITEGIC>MOL_PROPERTY
Bond
SciTegic.value.DoubleValue
0.115

@<SCITEGIC>MOL_PROPERTY
Angle
SciTegic.value.DoubleValue
2.271

@<SCITEGIC>MOL_PROPERTY
Pdih
SciTegic.value.DoubleValue
5.144

@<SCITEGIC>MOL_PROPERTY
Idih
SciTegic.value.DoubleValue
0.001

@<SCITEGIC>MOL_PROPERTY
Tether
SciTegic.value.DoubleValue
0.000

@<TRIPOS>MOLECULE
guest-8_confgen4.mol2 : confsearch ligand conformer 863
          25          24           1
SMALL
USER_CHARGES
 
@<TRIPOS>ATOM
       1    C1      21.131870   22.252743   25.665587 C.2        1 MOL1         0.6168
       2    O1      20.191538   22.996682   25.864096 O.co2      1 MOL1        -0.6703
       3    O2      21.659171   21.587999   26.535664 O.co2      1 MOL1        -0.6703
       4    C2      21.690317   22.162766   24.248193 C.3        1 MOL1        -0.1963
       5    H1      22.704336   21.747776   24.297131 H          1 MOL1         0.0750
       6    H2      21.784317   23.186499   23.867249 H          1 MOL1         0.0750
       7    C3      20.815610   21.327022   23.277953 C.3        1 MOL1        -0.1860
       8    H3      19.796536   21.737964   23.261015 H          1 MOL1         0.0752
       9    H4      21.214849   21.429814   22.259822 H          1 MOL1         0.0752
      10    C4      20.770043   19.830094   23.658608 C.3        1 MOL1        -0.1858
      11    H5      20.355157   19.717687   24.669873 H          1 MOL1         0.0752
      12    H6      21.791837   19.427436   23.687359 H          1 MOL1         0.0752
      13    C5      19.920604   19.012281   22.661980 C.3        1 MOL1        -0.1858
      14    H7      18.899038   19.415648   22.633939 H          1 MOL1         0.0752
      15    H8      20.335435   19.120754   21.650453 H          1 MOL1         0.0752
      16    C6      19.873926   17.516579   23.042190 C.3        1 MOL1        -0.1858
      17    H9      19.459164   17.407945   24.053773 H          1 MOL1         0.0752
      18    H10     20.895431   17.113095   23.070639 H          1 MOL1         0.0752
      19    C7      19.024559   16.698807   22.046603 C.3        1 MOL1        -0.1834
      20    H11     18.001424   17.098553   22.016934 H          1 MOL1         0.0752
      21    H12     19.437741   16.803612   21.033797 H          1 MOL1         0.0752
      22    C8      18.980373   15.205920   22.429932 C.3        1 MOL1        -0.2849
      23    H13     18.541752   15.069231   23.427091 H          1 MOL1         0.0764
      24    H14     18.372725   14.639908   21.711966 H          1 MOL1         0.0764
      25    H15     19.988893   14.772058   22.436605 H          1 MOL1         0.0764
@<TRIPOS>BOND
    1     1     2    1
    2     1     3    2
    3     1     4    1
    4     4     5    1
    5     4     6    1
    6     4     7    1
    7     7     8    1
    8     7     9    1
    9     7    10    1
   10    10    11    1
   11    10    12    1
   12    10    13    1
   13    13    14    1
   14    13    15    1
   15    13    16    1
   16    16    17    1
   17    16    18    1
   18    16    19    1
   19    19    20    1
   20    19    21    1
   21    19    22    1
   22    22    23    1
   23    22    24    1
   24    22    25    1
@<TRIPOS>SUBSTRUCTURE
       1 MOL1            1 RESIDUE      1      MOL     
@<SCITEGIC>MOL_PROPERTY
VConf Rank
SciTegic.value.IntegerValue
863

@<SCITEGIC>MOL_PROPERTY
Conf_Id
SciTegic.value.IntegerValue
37

@<SCITEGIC>MOL_PROPERTY
Delta U+W
SciTegic.value.DoubleValue
-0.230

@<SCITEGIC>MOL_PROPERTY
U+W
SciTegic.value.DoubleValue
-51.860

@<SCITEGIC>MOL_PROPERTY
Grad RMS
SciTegic.value.DoubleValue
0.000000

@<SCITEGIC>MOL_PROPERTY
U
SciTegic.value.DoubleValue
7.816

@<SCITEGIC>MOL_PROPERTY
W
SciTegic.value.DoubleValue
-59.675

@<SCITEGIC>MOL_PROPERTY
W(PB)
SciTegic.value.DoubleValue
-62.180

@<SCITEGIC>MOL_PROPERTY
W(SA)
SciTegic.value.DoubleValue
2.505

@<SCITEGIC>MOL_PROPERTY
Valence
SciTegic.value.DoubleValue
7.785

@<SCITEGIC>MOL_PROPERTY
Coulomb
SciTegic.value.DoubleValue
-0.713

@<SCITEGIC>MOL_PROPERTY
VdW
SciTegic.value.DoubleValue
0.744

@<SCITEGIC>MOL_PROPERTY
VdW6
SciTegic.value.DoubleValue
-8.514

@<SCITEGIC>MOL_PROPERTY
VdW12
SciTegic.value.DoubleValue
9.259

@<SCITEGIC>MOL_PROPERTY
Bond
SciTegic.value.DoubleValue
0.136

@<SCITEGIC>MOL_PROPERTY
Angle
SciTegic.value.DoubleValue
2.433

@<SCITEGIC>MOL_PROPERTY
Pdih
SciTegic.value.DoubleValue
5.216

@<SCITEGIC>MOL_PROPERTY
Idih
SciTegic.value.DoubleValue
0.000

@<SCITEGIC>MOL_PROPERTY
Tether
SciTegic.value.DoubleValue
0.000

@<TRIPOS>MOLECULE
guest-8_confgen4.mol2 : confsearch ligand conformer 864
          25          24           1
SMALL
USER_CHARGES
 
@<TRIPOS>ATOM
       1    C1      17.855665   16.054067   22.384872 C.2        1 MOL1         0.6168
       2    O1      18.439847   15.012133   22.608878 O.co2      1 MOL1        -0.6703
       3    O2      17.572496   16.439874   21.267764 O.co2      1 MOL1        -0.6703
       4    C2      17.441513   16.915865   23.574305 C.3        1 MOL1        -0.1963
       5    H1      16.991171   16.250469   24.320243 H          1 MOL1         0.0750
       6    H2      16.654477   17.606845   23.248780 H          1 MOL1         0.0750
       7    C3      18.611421   17.702419   24.220518 C.3        1 MOL1        -0.1860
       8    H3      18.253241   18.180591   25.142260 H          1 MOL1         0.0752
       9    H4      19.403123   16.999792   24.515807 H          1 MOL1         0.0752
      10    C4      19.193362   18.781384   23.279802 C.3        1 MOL1        -0.1858
      11    H5      18.395494   19.473254   22.976906 H          1 MOL1         0.0752
      12    H6      19.569839   18.308513   22.362152 H          1 MOL1         0.0752
      13    C5      20.334602   19.572771   23.954270 C.3        1 MOL1        -0.1858
      14    H7      19.959693   20.048941   24.870644 H          1 MOL1         0.0752
      15    H8      21.131999   18.880102   24.256685 H          1 MOL1         0.0752
      16    C6      20.917046   20.650595   23.014637 C.3        1 MOL1        -0.1858
      17    H9      20.119742   21.343210   22.711865 H          1 MOL1         0.0752
      18    H10     21.291898   20.174579   22.098110 H          1 MOL1         0.0752
      19    C7      22.058214   21.441477   23.688141 C.3        1 MOL1        -0.1834
      20    H11     21.686348   21.920553   24.604482 H          1 MOL1         0.0752
      21    H12     22.858529   20.751919   23.990610 H          1 MOL1         0.0752
      22    C8      22.637043   22.516654   22.746570 C.3        1 MOL1        -0.2849
      23    H13     21.864138   23.239054   22.453054 H          1 MOL1         0.0764
      24    H14     23.446678   23.068850   23.241194 H          1 MOL1         0.0764
      25    H15     23.045078   22.061605   21.834520 H          1 MOL1         0.0764
@<TRIPOS>BOND
    1     1     2    1
    2     1     3    2
    3     1     4    1
    4     4     5    1
    5     4     6    1
    6     4     7    1
    7     7     8    1
    8     7     9    1
    9     7    10    1
   10    10    11    1
   11    10    12    1
   12    10    13    1
   13    13    14    1
   14    13    15    1
   15    13    16    1
   16    16    17    1
   17    16    18    1
   18    16    19    1
   19    19    20    1
   20    19    21    1
   21    19    22    1
   22    22    23    1
   23    22    24    1
   24    22    25    1
@<TRIPOS>SUBSTRUCTURE
       1 MOL1            1 RESIDUE      1      MOL     
@<SCITEGIC>MOL_PROPERTY
VConf Rank
SciTegic.value.IntegerValue
864

@<SCITEGIC>MOL_PROPERTY
Conf_Id
SciTegic.value.IntegerValue
54

@<SCITEGIC>MOL_PROPERTY
Delta U+W
SciTegic.value.DoubleValue
-0.224

@<SCITEGIC>MOL_PROPERTY
U+W
SciTegic.value.DoubleValue
-51.854

@<SCITEGIC>MOL_PROPERTY
Grad RMS
SciTegic.value.DoubleValue
0.000000

@<SCITEGIC>MOL_PROPERTY
U
SciTegic.value.DoubleValue
7.816

@<SCITEGIC>MOL_PROPERTY
W
SciTegic.value.DoubleValue
-59.670

@<SCITEGIC>MOL_PROPERTY
W(PB)
SciTegic.value.DoubleValue
-62.157

@<SCITEGIC>MOL_PROPERTY
W(SA)
SciTegic.value.DoubleValue
2.487

@<SCITEGIC>MOL_PROPERTY
Valence
SciTegic.value.DoubleValue
7.785

@<SCITEGIC>MOL_PROPERTY
Coulomb
SciTegic.value.DoubleValue
-0.713

@<SCITEGIC>MOL_PROPERTY
VdW
SciTegic.value.DoubleValue
0.744

@<SCITEGIC>MOL_PROPERTY
VdW6
SciTegic.value.DoubleValue
-8.515

@<SCITEGIC>MOL_PROPERTY
VdW12
SciTegic.value.DoubleValue
9.259

@<SCITEGIC>MOL_PROPERTY
Bond
SciTegic.value.DoubleValue
0.136

@<SCITEGIC>MOL_PROPERTY
Angle
SciTegic.value.DoubleValue
2.433

@<SCITEGIC>MOL_PROPERTY
Pdih
SciTegic.value.DoubleValue
5.215

@<SCITEGIC>MOL_PROPERTY
Idih
SciTegic.value.DoubleValue
0.000

@<SCITEGIC>MOL_PROPERTY
Tether
SciTegic.value.DoubleValue
0.000

@<TRIPOS>MOLECULE
guest-8_confgen4.mol2 : confsearch ligand conformer 865
          25          24           1
SMALL
USER_CHARGES
 
@<TRIPOS>ATOM
       1    C1      21.518728   16.548015   20.502026 C.2        1 MOL1         0.6168
       2    O1      21.762290   17.244221   19.536094 O.co2      1 MOL1        -0.6703
       3    O2      22.303482   15.745102   20.967429 O.co2      1 MOL1        -0.6703
       4    C2      20.145898   16.673989   21.156741 C.3        1 MOL1        -0.1963
       5    H1      19.768258   15.658093   21.322012 H          1 MOL1         0.0750
       6    H2      19.461982   17.155389   20.447274 H          1 MOL1         0.0750
       7    C3      20.154887   17.447791   22.500919 C.3        1 MOL1        -0.1860
       8    H3      19.165205   17.348983   22.964136 H          1 MOL1         0.0752
       9    H4      20.874561   16.978438   23.185883 H          1 MOL1         0.0752
      10    C4      20.501241   18.945708   22.321383 C.3        1 MOL1        -0.1858
      11    H5      19.754846   19.424426   21.672923 H          1 MOL1         0.0752
      12    H6      21.464001   19.031479   21.799162 H          1 MOL1         0.0752
      13    C5      20.603536   19.722503   23.655955 C.3        1 MOL1        -0.1858
      14    H7      21.336234   19.232452   24.311379 H          1 MOL1         0.0752
      15    H8      21.001986   20.721030   23.436063 H          1 MOL1         0.0752
      16    C6      19.250108   19.862043   24.395949 C.3        1 MOL1        -0.1858
      17    H9      18.853090   18.864822   24.623550 H          1 MOL1         0.0752
      18    H10     18.516405   20.347562   23.738251 H          1 MOL1         0.0752
      19    C7      19.354307   20.648482   25.723783 C.3        1 MOL1        -0.1834
      20    H11     18.390716   20.582366   26.247582 H          1 MOL1         0.0752
      21    H12     20.096626   20.172919   26.379606 H          1 MOL1         0.0752
      22    C8      19.710111   22.138621   25.529291 C.3        1 MOL1        -0.2849
      23    H13     20.720369   22.260442   25.119483 H          1 MOL1         0.0764
      24    H14     19.000445   22.626521   24.848529 H          1 MOL1         0.0764
      25    H15     19.676057   22.669339   26.489543 H          1 MOL1         0.0764
@<TRIPOS>BOND
    1     1     2    1
    2     1     3    2
    3     1     4    1
    4     4     5    1
    5     4     6    1
    6     4     7    1
    7     7     8    1
    8     7     9    1
    9     7    10    1
   10    10    11    1
   11    10    12    1
   12    10    13    1
   13    13    14    1
   14    13    15    1
   15    13    16    1
   16    16    17    1
   17    16    18    1
   18    16    19    1
   19    19    20    1
   20    19    21    1
   21    19    22    1
   22    22    23    1
   23    22    24    1
   24    22    25    1
@<TRIPOS>SUBSTRUCTURE
       1 MOL1            1 RESIDUE      1      MOL     
@<SCITEGIC>MOL_PROPERTY
VConf Rank
SciTegic.value.IntegerValue
865

@<SCITEGIC>MOL_PROPERTY
Conf_Id
SciTegic.value.IntegerValue
101

@<SCITEGIC>MOL_PROPERTY
Delta U+W
SciTegic.value.DoubleValue
1.534

@<SCITEGIC>MOL_PROPERTY
U+W
SciTegic.value.DoubleValue
-50.095

@<SCITEGIC>MOL_PROPERTY
Grad RMS
SciTegic.value.DoubleValue
0.000000

@<SCITEGIC>MOL_PROPERTY
U
SciTegic.value.DoubleValue
9.416

@<SCITEGIC>MOL_PROPERTY
W
SciTegic.value.DoubleValue
-59.512

@<SCITEGIC>MOL_PROPERTY
W(PB)
SciTegic.value.DoubleValue
-61.988

@<SCITEGIC>MOL_PROPERTY
W(SA)
SciTegic.value.DoubleValue
2.476

@<SCITEGIC>MOL_PROPERTY
Valence
SciTegic.value.DoubleValue
8.939

@<SCITEGIC>MOL_PROPERTY
Coulomb
SciTegic.value.DoubleValue
-0.615

@<SCITEGIC>MOL_PROPERTY
VdW
SciTegic.value.DoubleValue
1.092

@<SCITEGIC>MOL_PROPERTY
VdW6
SciTegic.value.DoubleValue
-9.710

@<SCITEGIC>MOL_PROPERTY
VdW12
SciTegic.value.DoubleValue
10.802

@<SCITEGIC>MOL_PROPERTY
Bond
SciTegic.value.DoubleValue
0.216

@<SCITEGIC>MOL_PROPERTY
Angle
SciTegic.value.DoubleValue
2.979

@<SCITEGIC>MOL_PROPERTY
Pdih
SciTegic.value.DoubleValue
5.743

@<SCITEGIC>MOL_PROPERTY
Idih
SciTegic.value.DoubleValue
0.000

@<SCITEGIC>MOL_PROPERTY
Tether
SciTegic.value.DoubleValue
0.000

@<TRIPOS>MOLECULE
guest-8_confgen4.mol2 : confsearch ligand conformer 866
          25          24           1
SMALL
USER_CHARGES
 
@<TRIPOS>ATOM
       1    C1      20.950140   15.849453   20.898120 C.2        1 MOL1         0.6168
       2    O1      19.929135   15.196908   20.806085 O.co2      1 MOL1        -0.6703
       3    O2      21.878787   15.759610   20.119454 O.co2      1 MOL1        -0.6703
       4    C2      21.063203   16.852611   22.040511 C.3        1 MOL1        -0.1963
       5    H1      22.119202   16.923682   22.327137 H          1 MOL1         0.0750
       6    H2      20.519693   16.441723   22.898490 H          1 MOL1         0.0750
       7    C3      20.515421   18.253878   21.663759 C.3        1 MOL1        -0.1860
       8    H3      21.014031   18.589882   20.744022 H          1 MOL1         0.0752
       9    H4      19.445295   18.178768   21.426087 H          1 MOL1         0.0752
      10    C4      20.733459   19.322010   22.762059 C.3        1 MOL1        -0.1858
      11    H5      20.446046   20.296846   22.347839 H          1 MOL1         0.0752
      12    H6      21.802653   19.388423   23.004916 H          1 MOL1         0.0752
      13    C5      19.919397   19.053911   24.051759 C.3        1 MOL1        -0.1858
      14    H7      18.850805   18.988311   23.809220 H          1 MOL1         0.0752
      15    H8      20.198713   18.075983   24.463291 H          1 MOL1         0.0752
      16    C6      20.146728   20.114937   25.158511 C.3        1 MOL1        -0.1858
      17    H9      21.206152   20.104362   25.448661 H          1 MOL1         0.0752
      18    H10     19.585237   19.813621   26.053277 H          1 MOL1         0.0752
      19    C7      19.746553   21.564109   24.785387 C.3        1 MOL1        -0.1834
      20    H11     19.957823   22.216278   25.643923 H          1 MOL1         0.0752
      21    H12     20.375640   21.932647   23.964552 H          1 MOL1         0.0752
      22    C8      18.256921   21.710101   24.406408 C.3        1 MOL1        -0.2849
      23    H13     17.608843   21.324832   25.204243 H          1 MOL1         0.0764
      24    H14     18.003360   22.765598   24.243937 H          1 MOL1         0.0764
      25    H15     18.026065   21.166638   23.481512 H          1 MOL1         0.0764
@<TRIPOS>BOND
    1     1     2    1
    2     1     3    2
    3     1     4    1
    4     4     5    1
    5     4     6    1
    6     4     7    1
    7     7     8    1
    8     7     9    1
    9     7    10    1
   10    10    11    1
   11    10    12    1
   12    10    13    1
   13    13    14    1
   14    13    15    1
   15    13    16    1
   16    16    17    1
   17    16    18    1
   18    16    19    1
   19    19    20    1
   20    19    21    1
   21    19    22    1
   22    22    23    1
   23    22    24    1
   24    22    25    1
@<TRIPOS>SUBSTRUCTURE
       1 MOL1            1 RESIDUE      1      MOL     
@<SCITEGIC>MOL_PROPERTY
VConf Rank
SciTegic.value.IntegerValue
866

@<SCITEGIC>MOL_PROPERTY
Conf_Id
SciTegic.value.IntegerValue
75

@<SCITEGIC>MOL_PROPERTY
Delta U+W
SciTegic.value.DoubleValue
1.014

@<SCITEGIC>MOL_PROPERTY
U+W
SciTegic.value.DoubleValue
-50.615

@<SCITEGIC>MOL_PROPERTY
Grad RMS
SciTegic.value.DoubleValue
0.000000

@<SCITEGIC>MOL_PROPERTY
U
SciTegic.value.DoubleValue
8.474

@<SCITEGIC>MOL_PROPERTY
W
SciTegic.value.DoubleValue
-59.089

@<SCITEGIC>MOL_PROPERTY
W(PB)
SciTegic.value.DoubleValue
-61.530

@<SCITEGIC>MOL_PROPERTY
W(SA)
SciTegic.value.DoubleValue
2.441

@<SCITEGIC>MOL_PROPERTY
Valence
SciTegic.value.DoubleValue
9.080

@<SCITEGIC>MOL_PROPERTY
Coulomb
SciTegic.value.DoubleValue
-1.772

@<SCITEGIC>MOL_PROPERTY
VdW
SciTegic.value.DoubleValue
1.165

@<SCITEGIC>MOL_PROPERTY
VdW6
SciTegic.value.DoubleValue
-9.830

@<SCITEGIC>MOL_PROPERTY
VdW12
SciTegic.value.DoubleValue
10.996

@<SCITEGIC>MOL_PROPERTY
Bond
SciTegic.value.DoubleValue
0.240

@<SCITEGIC>MOL_PROPERTY
Angle
SciTegic.value.DoubleValue
3.225

@<SCITEGIC>MOL_PROPERTY
Pdih
SciTegic.value.DoubleValue
5.615

@<SCITEGIC>MOL_PROPERTY
Idih
SciTegic.value.DoubleValue
0.001

@<SCITEGIC>MOL_PROPERTY
Tether
SciTegic.value.DoubleValue
0.000

@<TRIPOS>MOLECULE
guest-8_confgen4.mol2 : confsearch ligand conformer 867
          25          24           1
SMALL
USER_CHARGES
 
@<TRIPOS>ATOM
       1    C1      18.688722   19.651564   19.313864 C.2        1 MOL1         0.6168
       2    O1      17.651761   19.028415   19.199626 O.co2      1 MOL1        -0.6703
       3    O2      18.975444   20.613172   18.628465 O.co2      1 MOL1        -0.6703
       4    C2      19.675363   19.215811   20.391239 C.3        1 MOL1        -0.1963
       5    H1      20.688877   19.432123   20.032689 H          1 MOL1         0.0750
       6    H2      19.596869   18.127932   20.505099 H          1 MOL1         0.0750
       7    C3      19.428719   19.914694   21.750949 C.3        1 MOL1        -0.1860
       8    H3      19.497876   21.003232   21.617543 H          1 MOL1         0.0752
       9    H4      18.405744   19.698941   22.089341 H          1 MOL1         0.0752
      10    C4      20.438824   19.455803   22.824847 C.3        1 MOL1        -0.1858
      11    H5      21.459718   19.672968   22.482170 H          1 MOL1         0.0752
      12    H6      20.371941   18.367899   22.944036 H          1 MOL1         0.0752
      13    C5      20.192065   20.161093   24.179252 C.3        1 MOL1        -0.1858
      14    H7      20.298655   21.243627   24.025381 H          1 MOL1         0.0752
      15    H8      19.157593   19.999609   24.511832 H          1 MOL1         0.0752
      16    C6      21.181334   19.723127   25.289188 C.3        1 MOL1        -0.1858
      17    H9      21.404482   20.599649   25.912711 H          1 MOL1         0.0752
      18    H10     22.140206   19.419749   24.847190 H          1 MOL1         0.0752
      19    C7      20.650953   18.609018   26.225330 C.3        1 MOL1        -0.1834
      20    H11     21.393299   18.436125   27.016660 H          1 MOL1         0.0752
      21    H12     19.738923   18.955896   26.730420 H          1 MOL1         0.0752
      22    C8      20.364661   17.269477   25.515374 C.3        1 MOL1        -0.2849
      23    H13     21.239662   16.930189   24.945973 H          1 MOL1         0.0764
      24    H14     20.115298   16.491941   26.248866 H          1 MOL1         0.0764
      25    H15     19.514190   17.359998   24.828255 H          1 MOL1         0.0764
@<TRIPOS>BOND
    1     1     2    1
    2     1     3    2
    3     1     4    1
    4     4     5    1
    5     4     6    1
    6     4     7    1
    7     7     8    1
    8     7     9    1
    9     7    10    1
   10    10    11    1
   11    10    12    1
   12    10    13    1
   13    13    14    1
   14    13    15    1
   15    13    16    1
   16    16    17    1
   17    16    18    1
   18    16    19    1
   19    19    20    1
   20    19    21    1
   21    19    22    1
   22    22    23    1
   23    22    24    1
   24    22    25    1
@<TRIPOS>SUBSTRUCTURE
       1 MOL1            1 RESIDUE      1      MOL     
@<SCITEGIC>MOL_PROPERTY
VConf Rank
SciTegic.value.IntegerValue
867

@<SCITEGIC>MOL_PROPERTY
Conf_Id
SciTegic.value.IntegerValue
125

@<SCITEGIC>MOL_PROPERTY
Delta U+W
SciTegic.value.DoubleValue
2.314

@<SCITEGIC>MOL_PROPERTY
U+W
SciTegic.value.DoubleValue
-49.315

@<SCITEGIC>MOL_PROPERTY
Grad RMS
SciTegic.value.DoubleValue
0.000000

@<SCITEGIC>MOL_PROPERTY
U
SciTegic.value.DoubleValue
9.740

@<SCITEGIC>MOL_PROPERTY
W
SciTegic.value.DoubleValue
-59.054

@<SCITEGIC>MOL_PROPERTY
W(PB)
SciTegic.value.DoubleValue
-61.488

@<SCITEGIC>MOL_PROPERTY
W(SA)
SciTegic.value.DoubleValue
2.433

@<SCITEGIC>MOL_PROPERTY
Valence
SciTegic.value.DoubleValue
10.506

@<SCITEGIC>MOL_PROPERTY
Coulomb
SciTegic.value.DoubleValue
-1.761

@<SCITEGIC>MOL_PROPERTY
VdW
SciTegic.value.DoubleValue
0.994

@<SCITEGIC>MOL_PROPERTY
VdW6
SciTegic.value.DoubleValue
-9.209

@<SCITEGIC>MOL_PROPERTY
VdW12
SciTegic.value.DoubleValue
10.203

@<SCITEGIC>MOL_PROPERTY
Bond
SciTegic.value.DoubleValue
0.193

@<SCITEGIC>MOL_PROPERTY
Angle
SciTegic.value.DoubleValue
2.979

@<SCITEGIC>MOL_PROPERTY
Pdih
SciTegic.value.DoubleValue
7.334

@<SCITEGIC>MOL_PROPERTY
Idih
SciTegic.value.DoubleValue
0.001

@<SCITEGIC>MOL_PROPERTY
Tether
SciTegic.value.DoubleValue
0.000

@<TRIPOS>MOLECULE
guest-8_confgen4.mol2 : confsearch ligand conformer 868
          25          24           1
SMALL
USER_CHARGES
 
@<TRIPOS>ATOM
       1    C1      20.237335   22.118033   20.500116 C.2        1 MOL1         0.6168
       2    O1      20.782875   21.625863   19.532207 O.co2      1 MOL1        -0.6703
       3    O2      19.961057   23.298045   20.589463 O.co2      1 MOL1        -0.6703
       4    C2      19.902712   21.209445   21.677619 C.3        1 MOL1        -0.1963
       5    H1      19.659518   20.219547   21.275525 H          1 MOL1         0.0750
       6    H2      18.997232   21.596945   22.159600 H          1 MOL1         0.0750
       7    C3      21.058052   21.113044   22.707734 C.3        1 MOL1        -0.1860
       8    H3      21.944950   20.680000   22.224813 H          1 MOL1         0.0752
       9    H4      21.339112   22.128944   23.018215 H          1 MOL1         0.0752
      10    C4      20.695763   20.292124   23.968286 C.3        1 MOL1        -0.1858
      11    H5      19.814640   20.733231   24.454103 H          1 MOL1         0.0752
      12    H6      21.521940   20.376210   24.687502 H          1 MOL1         0.0752
      13    C5      20.434142   18.796692   23.674291 C.3        1 MOL1        -0.1858
      14    H7      19.567091   18.699138   23.009962 H          1 MOL1         0.0752
      15    H8      21.296718   18.370518   23.144290 H          1 MOL1         0.0752
      16    C6      20.180027   17.997015   24.973193 C.3        1 MOL1        -0.1858
      17    H9      19.289597   18.391038   25.481887 H          1 MOL1         0.0752
      18    H10     21.024017   18.151153   25.659317 H          1 MOL1         0.0752
      19    C7      20.011272   16.477890   24.737398 C.3        1 MOL1        -0.1834
      20    H11     20.902645   16.079356   24.233483 H          1 MOL1         0.0752
      21    H12     19.954991   15.974244   25.712283 H          1 MOL1         0.0752
      22    C8      18.749997   16.121672   23.920771 C.3        1 MOL1        -0.2849
      23    H13     18.814487   16.506366   22.895325 H          1 MOL1         0.0764
      24    H14     18.627496   15.032577   23.859448 H          1 MOL1         0.0764
      25    H15     17.848286   16.537321   24.389023 H          1 MOL1         0.0764
@<TRIPOS>BOND
    1     1     2    1
    2     1     3    2
    3     1     4    1
    4     4     5    1
    5     4     6    1
    6     4     7    1
    7     7     8    1
    8     7     9    1
    9     7    10    1
   10    10    11    1
   11    10    12    1
   12    10    13    1
   13    13    14    1
   14    13    15    1
   15    13    16    1
   16    16    17    1
   17    16    18    1
   18    16    19    1
   19    19    20    1
   20    19    21    1
   21    19    22    1
   22    22    23    1
   23    22    24    1
   24    22    25    1
@<TRIPOS>SUBSTRUCTURE
       1 MOL1            1 RESIDUE      1      MOL     
@<SCITEGIC>MOL_PROPERTY
VConf Rank
SciTegic.value.IntegerValue
868

@<SCITEGIC>MOL_PROPERTY
Conf_Id
SciTegic.value.IntegerValue
4

@<SCITEGIC>MOL_PROPERTY
Delta U+W
SciTegic.value.DoubleValue
0.189

@<SCITEGIC>MOL_PROPERTY
U+W
SciTegic.value.DoubleValue
-51.441

@<SCITEGIC>MOL_PROPERTY
Grad RMS
SciTegic.value.DoubleValue
0.000000

@<SCITEGIC>MOL_PROPERTY
U
SciTegic.value.DoubleValue
7.701

@<SCITEGIC>MOL_PROPERTY
W
SciTegic.value.DoubleValue
-59.141

@<SCITEGIC>MOL_PROPERTY
W(PB)
SciTegic.value.DoubleValue
-61.609

@<SCITEGIC>MOL_PROPERTY
W(SA)
SciTegic.value.DoubleValue
2.467

@<SCITEGIC>MOL_PROPERTY
Valence
SciTegic.value.DoubleValue
8.550

@<SCITEGIC>MOL_PROPERTY
Coulomb
SciTegic.value.DoubleValue
-1.988

@<SCITEGIC>MOL_PROPERTY
VdW
SciTegic.value.DoubleValue
1.139

@<SCITEGIC>MOL_PROPERTY
VdW6
SciTegic.value.DoubleValue
-8.988

@<SCITEGIC>MOL_PROPERTY
VdW12
SciTegic.value.DoubleValue
10.127

@<SCITEGIC>MOL_PROPERTY
Bond
SciTegic.value.DoubleValue
0.191

@<SCITEGIC>MOL_PROPERTY
Angle
SciTegic.value.DoubleValue
2.738

@<SCITEGIC>MOL_PROPERTY
Pdih
SciTegic.value.DoubleValue
5.621

@<SCITEGIC>MOL_PROPERTY
Idih
SciTegic.value.DoubleValue
0.001

@<SCITEGIC>MOL_PROPERTY
Tether
SciTegic.value.DoubleValue
0.000

@<TRIPOS>MOLECULE
guest-8_confgen4.mol2 : confsearch ligand conformer 869
          25          24           1
SMALL
USER_CHARGES
 
@<TRIPOS>ATOM
       1    C1      23.167121   19.924953   25.828234 C.2        1 MOL1         0.6168
       2    O1      24.128402   19.392881   25.309070 O.co2      1 MOL1        -0.6703
       3    O2      23.239857   20.631781   26.814055 O.co2      1 MOL1        -0.6703
       4    C2      21.797079   19.713208   25.194065 C.3        1 MOL1        -0.1963
       5    H1      21.045220   19.740276   25.991769 H          1 MOL1         0.0750
       6    H2      21.781046   18.704888   24.765398 H          1 MOL1         0.0750
       7    C3      21.467272   20.773519   24.111380 C.3        1 MOL1        -0.1860
       8    H3      21.585049   21.773948   24.550375 H          1 MOL1         0.0752
       9    H4      22.199977   20.704846   23.295440 H          1 MOL1         0.0752
      10    C4      20.034849   20.648809   23.539742 C.3        1 MOL1        -0.1858
      11    H5      19.850326   21.503107   22.874132 H          1 MOL1         0.0752
      12    H6      19.304422   20.727759   24.356575 H          1 MOL1         0.0752
      13    C5      19.797892   19.337995   22.754369 C.3        1 MOL1        -0.1858
      14    H7      20.560164   19.237277   21.969920 H          1 MOL1         0.0752
      15    H8      19.913031   18.480281   23.427940 H          1 MOL1         0.0752
      16    C6      18.390797   19.304385   22.113935 C.3        1 MOL1        -0.1858
      17    H9      18.259751   20.199497   21.490680 H          1 MOL1         0.0752
      18    H10     17.625260   19.357874   22.900051 H          1 MOL1         0.0752
      19    C7      18.144129   18.055409   21.235851 C.3        1 MOL1        -0.1834
      20    H11     17.176395   18.167592   20.727782 H          1 MOL1         0.0752
      21    H12     18.905119   18.001617   20.445086 H          1 MOL1         0.0752
      22    C8      18.134055   16.735780   22.037763 C.3        1 MOL1        -0.2849
      23    H13     17.402102   16.778004   22.854814 H          1 MOL1         0.0764
      24    H14     17.865900   15.893402   21.387081 H          1 MOL1         0.0764
      25    H15     19.119846   16.521096   22.468824 H          1 MOL1         0.0764
@<TRIPOS>BOND
    1     1     2    1
    2     1     3    2
    3     1     4    1
    4     4     5    1
    5     4     6    1
    6     4     7    1
    7     7     8    1
    8     7     9    1
    9     7    10    1
   10    10    11    1
   11    10    12    1
   12    10    13    1
   13    13    14    1
   14    13    15    1
   15    13    16    1
   16    16    17    1
   17    16    18    1
   18    16    19    1
   19    19    20    1
   20    19    21    1
   21    19    22    1
   22    22    23    1
   23    22    24    1
   24    22    25    1
@<TRIPOS>SUBSTRUCTURE
       1 MOL1            1 RESIDUE      1      MOL     
@<SCITEGIC>MOL_PROPERTY
VConf Rank
SciTegic.value.IntegerValue
869

@<SCITEGIC>MOL_PROPERTY
Conf_Id
SciTegic.value.IntegerValue
17

@<SCITEGIC>MOL_PROPERTY
Delta U+W
SciTegic.value.DoubleValue
0.219

@<SCITEGIC>MOL_PROPERTY
U+W
SciTegic.value.DoubleValue
-51.411

@<SCITEGIC>MOL_PROPERTY
Grad RMS
SciTegic.value.DoubleValue
0.000000

@<SCITEGIC>MOL_PROPERTY
U
SciTegic.value.DoubleValue
7.701

@<SCITEGIC>MOL_PROPERTY
W
SciTegic.value.DoubleValue
-59.111

@<SCITEGIC>MOL_PROPERTY
W(PB)
SciTegic.value.DoubleValue
-61.599

@<SCITEGIC>MOL_PROPERTY
W(SA)
SciTegic.value.DoubleValue
2.488

@<SCITEGIC>MOL_PROPERTY
Valence
SciTegic.value.DoubleValue
8.550

@<SCITEGIC>MOL_PROPERTY
Coulomb
SciTegic.value.DoubleValue
-1.988

@<SCITEGIC>MOL_PROPERTY
VdW
SciTegic.value.DoubleValue
1.139

@<SCITEGIC>MOL_PROPERTY
VdW6
SciTegic.value.DoubleValue
-8.988

@<SCITEGIC>MOL_PROPERTY
VdW12
SciTegic.value.DoubleValue
10.127

@<SCITEGIC>MOL_PROPERTY
Bond
SciTegic.value.DoubleValue
0.191

@<SCITEGIC>MOL_PROPERTY
Angle
SciTegic.value.DoubleValue
2.738

@<SCITEGIC>MOL_PROPERTY
Pdih
SciTegic.value.DoubleValue
5.621

@<SCITEGIC>MOL_PROPERTY
Idih
SciTegic.value.DoubleValue
0.001

@<SCITEGIC>MOL_PROPERTY
Tether
SciTegic.value.DoubleValue
0.000

@<TRIPOS>MOLECULE
guest-8_confgen4.mol2 : confsearch ligand conformer 870
          25          24           1
SMALL
USER_CHARGES
 
@<TRIPOS>ATOM
       1    C1      21.640490   21.683231   20.938759 C.2        1 MOL1         0.6168
       2    O1      22.663114   22.138646   21.411939 O.co2      1 MOL1        -0.6703
       3    O2      20.669854   22.358715   20.658286 O.co2      1 MOL1        -0.6703
       4    C2      21.576597   20.183674   20.662761 C.3        1 MOL1        -0.1963
       5    H1      22.599953   19.791474   20.621585 H          1 MOL1         0.0750
       6    H2      21.145840   20.051798   19.663241 H          1 MOL1         0.0750
       7    C3      20.738326   19.388781   21.697336 C.3        1 MOL1        -0.1860
       8    H3      19.725624   19.811556   21.734267 H          1 MOL1         0.0752
       9    H4      20.637288   18.350812   21.352841 H          1 MOL1         0.0752
      10    C4      21.374404   19.399363   23.108025 C.3        1 MOL1        -0.1858
      11    H5      21.415089   20.428300   23.491371 H          1 MOL1         0.0752
      12    H6      22.415322   19.056315   23.032816 H          1 MOL1         0.0752
      13    C5      20.632823   18.499632   24.125012 C.3        1 MOL1        -0.1858
      14    H7      20.598622   17.468391   23.747890 H          1 MOL1         0.0752
      15    H8      21.217286   18.471170   25.054771 H          1 MOL1         0.0752
      16    C6      19.200441   18.985093   24.446948 C.3        1 MOL1        -0.1858
      17    H9      18.579934   18.948054   23.542223 H          1 MOL1         0.0752
      18    H10     19.232721   20.034203   24.771325 H          1 MOL1         0.0752
      19    C7      18.540744   18.126092   25.546340 C.3        1 MOL1        -0.1834
      20    H11     18.508576   17.075578   25.225648 H          1 MOL1         0.0752
      21    H12     19.149229   18.162417   26.460588 H          1 MOL1         0.0752
      22    C8      17.111140   18.609100   25.863610 C.3        1 MOL1        -0.2849
      23    H13     16.470914   18.552886   24.973479 H          1 MOL1         0.0764
      24    H14     16.657740   17.987914   26.646944 H          1 MOL1         0.0764
      25    H15     17.117132   19.648737   26.216454 H          1 MOL1         0.0764
@<TRIPOS>BOND
    1     1     2    1
    2     1     3    2
    3     1     4    1
    4     4     5    1
    5     4     6    1
    6     4     7    1
    7     7     8    1
    8     7     9    1
    9     7    10    1
   10    10    11    1
   11    10    12    1
   12    10    13    1
   13    13    14    1
   14    13    15    1
   15    13    16    1
   16    16    17    1
   17    16    18    1
   18    16    19    1
   19    19    20    1
   20    19    21    1
   21    19    22    1
   22    22    23    1
   23    22    24    1
   24    22    25    1
@<TRIPOS>SUBSTRUCTURE
       1 MOL1            1 RESIDUE      1      MOL     
@<SCITEGIC>MOL_PROPERTY
VConf Rank
SciTegic.value.IntegerValue
870

@<SCITEGIC>MOL_PROPERTY
Conf_Id
SciTegic.value.IntegerValue
142

@<SCITEGIC>MOL_PROPERTY
Delta U+W
SciTegic.value.DoubleValue
0.593

@<SCITEGIC>MOL_PROPERTY
U+W
SciTegic.value.DoubleValue
-51.037

@<SCITEGIC>MOL_PROPERTY
Grad RMS
SciTegic.value.DoubleValue
0.000000

@<SCITEGIC>MOL_PROPERTY
U
SciTegic.value.DoubleValue
8.903

@<SCITEGIC>MOL_PROPERTY
W
SciTegic.value.DoubleValue
-59.940

@<SCITEGIC>MOL_PROPERTY
W(PB)
SciTegic.value.DoubleValue
-62.418

@<SCITEGIC>MOL_PROPERTY
W(SA)
SciTegic.value.DoubleValue
2.478

@<SCITEGIC>MOL_PROPERTY
Valence
SciTegic.value.DoubleValue
8.305

@<SCITEGIC>MOL_PROPERTY
Coulomb
SciTegic.value.DoubleValue
-0.223

@<SCITEGIC>MOL_PROPERTY
VdW
SciTegic.value.DoubleValue
0.821

@<SCITEGIC>MOL_PROPERTY
VdW6
SciTegic.value.DoubleValue
-9.236

@<SCITEGIC>MOL_PROPERTY
VdW12
SciTegic.value.DoubleValue
10.057

@<SCITEGIC>MOL_PROPERTY
Bond
SciTegic.value.DoubleValue
0.173

@<SCITEGIC>MOL_PROPERTY
Angle
SciTegic.value.DoubleValue
2.663

@<SCITEGIC>MOL_PROPERTY
Pdih
SciTegic.value.DoubleValue
5.469

@<SCITEGIC>MOL_PROPERTY
Idih
SciTegic.value.DoubleValue
0.001

@<SCITEGIC>MOL_PROPERTY
Tether
SciTegic.value.DoubleValue
0.000

@<TRIPOS>MOLECULE
guest-8_confgen4.mol2 : confsearch ligand conformer 871
          25          24           1
SMALL
USER_CHARGES
 
@<TRIPOS>ATOM
       1    C1      17.124306   19.572110   24.992585 C.2        1 MOL1         0.6168
       2    O1      15.944787   19.607763   24.701002 O.co2      1 MOL1        -0.6703
       3    O2      17.560140   18.976373   25.958091 O.co2      1 MOL1        -0.6703
       4    C2      18.105542   20.340973   24.112264 C.3        1 MOL1        -0.1963
       5    H1      19.055497   20.441447   24.649654 H          1 MOL1         0.0750
       6    H2      17.708833   21.355525   23.990506 H          1 MOL1         0.0750
       7    C3      18.333481   19.706435   22.713144 C.3        1 MOL1        -0.1860
       8    H3      17.374977   19.684110   22.176535 H          1 MOL1         0.0752
       9    H4      18.992426   20.357175   22.123927 H          1 MOL1         0.0752
      10    C4      18.914904   18.269305   22.748467 C.3        1 MOL1        -0.1858
      11    H5      19.031769   17.910773   21.716772 H          1 MOL1         0.0752
      12    H6      18.182751   17.598942   23.219266 H          1 MOL1         0.0752
      13    C5      20.268438   18.120796   23.487532 C.3        1 MOL1        -0.1858
      14    H7      20.142927   18.368822   24.550022 H          1 MOL1         0.0752
      15    H8      20.564131   17.063374   23.456562 H          1 MOL1         0.0752
      16    C6      21.402415   18.977776   22.878969 C.3        1 MOL1        -0.1858
      17    H9      21.153937   20.043318   22.968319 H          1 MOL1         0.0752
      18    H10     21.494027   18.757506   21.806699 H          1 MOL1         0.0752
      19    C7      22.753318   18.714992   23.577140 C.3        1 MOL1        -0.1834
      20    H11     22.663082   18.932230   24.650518 H          1 MOL1         0.0752
      21    H12     23.016578   17.651967   23.487446 H          1 MOL1         0.0752
      22    C8      23.881890   19.574796   22.973190 C.3        1 MOL1        -0.2849
      23    H13     23.659492   20.644783   23.078227 H          1 MOL1         0.0764
      24    H14     24.834409   19.375150   23.481013 H          1 MOL1         0.0764
      25    H15     24.014285   19.355322   21.905644 H          1 MOL1         0.0764
@<TRIPOS>BOND
    1     1     2    1
    2     1     3    2
    3     1     4    1
    4     4     5    1
    5     4     6    1
    6     4     7    1
    7     7     8    1
    8     7     9    1
    9     7    10    1
   10    10    11    1
   11    10    12    1
   12    10    13    1
   13    13    14    1
   14    13    15    1
   15    13    16    1
   16    16    17    1
   17    16    18    1
   18    16    19    1
   19    19    20    1
   20    19    21    1
   21    19    22    1
   22    22    23    1
   23    22    24    1
   24    22    25    1
@<TRIPOS>SUBSTRUCTURE
       1 MOL1            1 RESIDUE      1      MOL     
@<SCITEGIC>MOL_PROPERTY
VConf Rank
SciTegic.value.IntegerValue
871

@<SCITEGIC>MOL_PROPERTY
Conf_Id
SciTegic.value.IntegerValue
135

@<SCITEGIC>MOL_PROPERTY
Delta U+W
SciTegic.value.DoubleValue
1.314

@<SCITEGIC>MOL_PROPERTY
U+W
SciTegic.value.DoubleValue
-50.316

@<SCITEGIC>MOL_PROPERTY
Grad RMS
SciTegic.value.DoubleValue
0.000000

@<SCITEGIC>MOL_PROPERTY
U
SciTegic.value.DoubleValue
9.773

@<SCITEGIC>MOL_PROPERTY
W
SciTegic.value.DoubleValue
-60.088

@<SCITEGIC>MOL_PROPERTY
W(PB)
SciTegic.value.DoubleValue
-62.535

@<SCITEGIC>MOL_PROPERTY
W(SA)
SciTegic.value.DoubleValue
2.447

@<SCITEGIC>MOL_PROPERTY
Valence
SciTegic.value.DoubleValue
8.741

@<SCITEGIC>MOL_PROPERTY
Coulomb
SciTegic.value.DoubleValue
0.479

@<SCITEGIC>MOL_PROPERTY
VdW
SciTegic.value.DoubleValue
0.552

@<SCITEGIC>MOL_PROPERTY
VdW6
SciTegic.value.DoubleValue
-10.627

@<SCITEGIC>MOL_PROPERTY
VdW12
SciTegic.value.DoubleValue
11.179

@<SCITEGIC>MOL_PROPERTY
Bond
SciTegic.value.DoubleValue
0.227

@<SCITEGIC>MOL_PROPERTY
Angle
SciTegic.value.DoubleValue
3.155

@<SCITEGIC>MOL_PROPERTY
Pdih
SciTegic.value.DoubleValue
5.358

@<SCITEGIC>MOL_PROPERTY
Idih
SciTegic.value.DoubleValue
0.001

@<SCITEGIC>MOL_PROPERTY
Tether
SciTegic.value.DoubleValue
0.000

@<TRIPOS>MOLECULE
guest-8_confgen4.mol2 : confsearch ligand conformer 872
          25          24           1
SMALL
USER_CHARGES
 
@<TRIPOS>ATOM
       1    C1      22.998864   20.767965   25.874707 C.2        1 MOL1         0.6168
       2    O1      22.876327   20.386562   27.021989 O.co2      1 MOL1        -0.6703
       3    O2      24.028164   21.233067   25.426385 O.co2      1 MOL1        -0.6703
       4    C2      21.802065   20.634674   24.939780 C.3        1 MOL1        -0.1963
       5    H1      21.845351   21.455050   24.213517 H          1 MOL1         0.0750
       6    H2      20.895650   20.777291   25.538314 H          1 MOL1         0.0750
       7    C3      21.766012   19.269840   24.203740 C.3        1 MOL1        -0.1860
       8    H3      22.728935   19.120663   23.695831 H          1 MOL1         0.0752
       9    H4      21.674175   18.457530   24.937906 H          1 MOL1         0.0752
      10    C4      20.633242   19.159005   23.155178 C.3        1 MOL1        -0.1858
      11    H5      20.788905   18.232346   22.588555 H          1 MOL1         0.0752
      12    H6      20.712011   19.986390   22.436981 H          1 MOL1         0.0752
      13    C5      19.216738   19.136403   23.777649 C.3        1 MOL1        -0.1858
      14    H7      19.127748   18.271790   24.449303 H          1 MOL1         0.0752
      15    H8      19.075678   20.027474   24.401803 H          1 MOL1         0.0752
      16    C6      18.067259   19.101104   22.738938 C.3        1 MOL1        -0.1858
      17    H9      18.090561   20.009359   22.121332 H          1 MOL1         0.0752
      18    H10     17.119957   19.142691   23.293703 H          1 MOL1         0.0752
      19    C7      18.043063   17.840399   21.838807 C.3        1 MOL1        -0.1834
      20    H11     18.516570   16.993918   22.355039 H          1 MOL1         0.0752
      21    H12     16.997237   17.548478   21.670486 H          1 MOL1         0.0752
      22    C8      18.703763   18.065394   20.460359 C.3        1 MOL1        -0.2849
      23    H13     19.757253   18.352449   20.554577 H          1 MOL1         0.0764
      24    H14     18.658234   17.148679   19.858388 H          1 MOL1         0.0764
      25    H15     18.185950   18.857856   19.904522 H          1 MOL1         0.0764
@<TRIPOS>BOND
    1     1     2    1
    2     1     3    2
    3     1     4    1
    4     4     5    1
    5     4     6    1
    6     4     7    1
    7     7     8    1
    8     7     9    1
    9     7    10    1
   10    10    11    1
   11    10    12    1
   12    10    13    1
   13    13    14    1
   14    13    15    1
   15    13    16    1
   16    16    17    1
   17    16    18    1
   18    16    19    1
   19    19    20    1
   20    19    21    1
   21    19    22    1
   22    22    23    1
   23    22    24    1
   24    22    25    1
@<TRIPOS>SUBSTRUCTURE
       1 MOL1            1 RESIDUE      1      MOL     
@<SCITEGIC>MOL_PROPERTY
VConf Rank
SciTegic.value.IntegerValue
872

@<SCITEGIC>MOL_PROPERTY
Conf_Id
SciTegic.value.IntegerValue
19

@<SCITEGIC>MOL_PROPERTY
Delta U+W
SciTegic.value.DoubleValue
3.222

@<SCITEGIC>MOL_PROPERTY
U+W
SciTegic.value.DoubleValue
-48.407

@<SCITEGIC>MOL_PROPERTY
Grad RMS
SciTegic.value.DoubleValue
0.000000

@<SCITEGIC>MOL_PROPERTY
U
SciTegic.value.DoubleValue
10.617

@<SCITEGIC>MOL_PROPERTY
W
SciTegic.value.DoubleValue
-59.025

@<SCITEGIC>MOL_PROPERTY
W(PB)
SciTegic.value.DoubleValue
-61.462

@<SCITEGIC>MOL_PROPERTY
W(SA)
SciTegic.value.DoubleValue
2.437

@<SCITEGIC>MOL_PROPERTY
Valence
SciTegic.value.DoubleValue
11.188

@<SCITEGIC>MOL_PROPERTY
Coulomb
SciTegic.value.DoubleValue
-1.778

@<SCITEGIC>MOL_PROPERTY
VdW
SciTegic.value.DoubleValue
1.208

@<SCITEGIC>MOL_PROPERTY
VdW6
SciTegic.value.DoubleValue
-9.786

@<SCITEGIC>MOL_PROPERTY
VdW12
SciTegic.value.DoubleValue
10.993

@<SCITEGIC>MOL_PROPERTY
Bond
SciTegic.value.DoubleValue
0.241

@<SCITEGIC>MOL_PROPERTY
Angle
SciTegic.value.DoubleValue
3.294

@<SCITEGIC>MOL_PROPERTY
Pdih
SciTegic.value.DoubleValue
7.653

@<SCITEGIC>MOL_PROPERTY
Idih
SciTegic.value.DoubleValue
0.001

@<SCITEGIC>MOL_PROPERTY
Tether
SciTegic.value.DoubleValue
0.000

@<TRIPOS>MOLECULE
guest-8_confgen4.mol2 : confsearch ligand conformer 873
          25          24           1
SMALL
USER_CHARGES
 
@<TRIPOS>ATOM
       1    C1      24.231366   19.915900   22.908432 C.2        1 MOL1         0.6168
       2    O1      24.900173   19.311365   23.723279 O.co2      1 MOL1        -0.6703
       3    O2      24.626153   20.895621   22.307549 O.co2      1 MOL1        -0.6703
       4    C2      22.810206   19.432524   22.642284 C.3        1 MOL1        -0.1963
       5    H1      22.804596   18.342348   22.750251 H          1 MOL1         0.0750
       6    H2      22.564889   19.657728   21.597559 H          1 MOL1         0.0750
       7    C3      21.768626   20.084306   23.588921 C.3        1 MOL1        -0.1860
       8    H3      21.995488   19.812955   24.629202 H          1 MOL1         0.0752
       9    H4      21.872127   21.176345   23.524232 H          1 MOL1         0.0752
      10    C4      20.305012   19.707314   23.256286 C.3        1 MOL1        -0.1858
      11    H5      20.088071   19.956284   22.208655 H          1 MOL1         0.0752
      12    H6      19.647955   20.333502   23.872852 H          1 MOL1         0.0752
      13    C5      19.976009   18.218773   23.521741 C.3        1 MOL1        -0.1858
      14    H7      20.672564   17.583140   22.961152 H          1 MOL1         0.0752
      15    H8      20.139399   17.993471   24.584350 H          1 MOL1         0.0752
      16    C6      18.536218   17.806070   23.124056 C.3        1 MOL1        -0.1858
      17    H9      18.440148   16.726973   23.306240 H          1 MOL1         0.0752
      18    H10     18.391873   17.939404   22.043180 H          1 MOL1         0.0752
      19    C7      17.412721   18.528690   23.908770 C.3        1 MOL1        -0.1834
      20    H11     16.601389   17.812974   24.100587 H          1 MOL1         0.0752
      21    H12     17.779237   18.845552   24.894923 H          1 MOL1         0.0752
      22    C8      16.816732   19.732871   23.145873 C.3        1 MOL1        -0.2849
      23    H13     16.377041   19.411607   22.192698 H          1 MOL1         0.0764
      24    H14     16.023953   20.208294   23.737719 H          1 MOL1         0.0764
      25    H15     17.574701   20.493963   22.928298 H          1 MOL1         0.0764
@<TRIPOS>BOND
    1     1     2    1
    2     1     3    2
    3     1     4    1
    4     4     5    1
    5     4     6    1
    6     4     7    1
    7     7     8    1
    8     7     9    1
    9     7    10    1
   10    10    11    1
   11    10    12    1
   12    10    13    1
   13    13    14    1
   14    13    15    1
   15    13    16    1
   16    16    17    1
   17    16    18    1
   18    16    19    1
   19    19    20    1
   20    19    21    1
   21    19    22    1
   22    22    23    1
   23    22    24    1
   24    22    25    1
@<TRIPOS>SUBSTRUCTURE
       1 MOL1            1 RESIDUE      1      MOL     
@<SCITEGIC>MOL_PROPERTY
VConf Rank
SciTegic.value.IntegerValue
873

@<SCITEGIC>MOL_PROPERTY
Conf_Id
SciTegic.value.IntegerValue
20

@<SCITEGIC>MOL_PROPERTY
Delta U+W
SciTegic.value.DoubleValue
3.224

@<SCITEGIC>MOL_PROPERTY
U+W
SciTegic.value.DoubleValue
-48.406

@<SCITEGIC>MOL_PROPERTY
Grad RMS
SciTegic.value.DoubleValue
0.000000

@<SCITEGIC>MOL_PROPERTY
U
SciTegic.value.DoubleValue
10.617

@<SCITEGIC>MOL_PROPERTY
W
SciTegic.value.DoubleValue
-59.023

@<SCITEGIC>MOL_PROPERTY
W(PB)
SciTegic.value.DoubleValue
-61.467

@<SCITEGIC>MOL_PROPERTY
W(SA)
SciTegic.value.DoubleValue
2.444

@<SCITEGIC>MOL_PROPERTY
Valence
SciTegic.value.DoubleValue
11.188

@<SCITEGIC>MOL_PROPERTY
Coulomb
SciTegic.value.DoubleValue
-1.778

@<SCITEGIC>MOL_PROPERTY
VdW
SciTegic.value.DoubleValue
1.208

@<SCITEGIC>MOL_PROPERTY
VdW6
SciTegic.value.DoubleValue
-9.786

@<SCITEGIC>MOL_PROPERTY
VdW12
SciTegic.value.DoubleValue
10.993

@<SCITEGIC>MOL_PROPERTY
Bond
SciTegic.value.DoubleValue
0.241

@<SCITEGIC>MOL_PROPERTY
Angle
SciTegic.value.DoubleValue
3.294

@<SCITEGIC>MOL_PROPERTY
Pdih
SciTegic.value.DoubleValue
7.653

@<SCITEGIC>MOL_PROPERTY
Idih
SciTegic.value.DoubleValue
0.001

@<SCITEGIC>MOL_PROPERTY
Tether
SciTegic.value.DoubleValue
0.000

@<TRIPOS>MOLECULE
guest-8_confgen4.mol2 : confsearch ligand conformer 874
          25          24           1
SMALL
USER_CHARGES
 
@<TRIPOS>ATOM
       1    C1      18.061641   17.307601   25.321301 C.2        1 MOL1         0.6168
       2    O1      17.486675   16.584250   24.531476 O.co2      1 MOL1        -0.6703
       3    O2      17.533427   18.254160   25.871058 O.co2      1 MOL1        -0.6703
       4    C2      19.504410   16.971905   25.694285 C.3        1 MOL1        -0.1963
       5    H1      19.476145   15.990489   26.181615 H          1 MOL1         0.0750
       6    H2      19.853155   17.687118   26.449028 H          1 MOL1         0.0750
       7    C3      20.501888   16.916655   24.503028 C.3        1 MOL1        -0.1860
       8    H3      21.374174   16.328275   24.818232 H          1 MOL1         0.0752
       9    H4      20.053503   16.366123   23.664303 H          1 MOL1         0.0752
      10    C4      21.013482   18.296365   24.019544 C.3        1 MOL1        -0.1858
      11    H5      21.815995   18.126482   23.288726 H          1 MOL1         0.0752
      12    H6      21.470756   18.836353   24.859870 H          1 MOL1         0.0752
      13    C5      19.925477   19.178317   23.366065 C.3        1 MOL1        -0.1858
      14    H7      19.397171   18.601448   22.594598 H          1 MOL1         0.0752
      15    H8      19.180260   19.468721   24.117277 H          1 MOL1         0.0752
      16    C6      20.526086   20.454586   22.737593 C.3        1 MOL1        -0.1858
      17    H9      21.268387   20.176028   21.977093 H          1 MOL1         0.0752
      18    H10     21.058016   21.027608   23.509427 H          1 MOL1         0.0752
      19    C7      19.439085   21.341505   22.094803 C.3        1 MOL1        -0.1834
      20    H11     18.905588   20.771387   21.321625 H          1 MOL1         0.0752
      21    H12     18.695448   21.623612   22.853108 H          1 MOL1         0.0752
      22    C8      20.041609   22.615291   21.468623 C.3        1 MOL1        -0.2849
      23    H13     20.766554   22.362111   20.683942 H          1 MOL1         0.0764
      24    H14     19.255076   23.233507   21.016697 H          1 MOL1         0.0764
      25    H15     20.554803   23.220826   22.227131 H          1 MOL1         0.0764
@<TRIPOS>BOND
    1     1     2    1
    2     1     3    2
    3     1     4    1
    4     4     5    1
    5     4     6    1
    6     4     7    1
    7     7     8    1
    8     7     9    1
    9     7    10    1
   10    10    11    1
   11    10    12    1
   12    10    13    1
   13    13    14    1
   14    13    15    1
   15    13    16    1
   16    16    17    1
   17    16    18    1
   18    16    19    1
   19    19    20    1
   20    19    21    1
   21    19    22    1
   22    22    23    1
   23    22    24    1
   24    22    25    1
@<TRIPOS>SUBSTRUCTURE
       1 MOL1            1 RESIDUE      1      MOL     
@<SCITEGIC>MOL_PROPERTY
VConf Rank
SciTegic.value.IntegerValue
874

@<SCITEGIC>MOL_PROPERTY
Conf_Id
SciTegic.value.IntegerValue
24

@<SCITEGIC>MOL_PROPERTY
Delta U+W
SciTegic.value.DoubleValue
1.784

@<SCITEGIC>MOL_PROPERTY
U+W
SciTegic.value.DoubleValue
-49.846

@<SCITEGIC>MOL_PROPERTY
Grad RMS
SciTegic.value.DoubleValue
0.000000

@<SCITEGIC>MOL_PROPERTY
U
SciTegic.value.DoubleValue
10.904

@<SCITEGIC>MOL_PROPERTY
W
SciTegic.value.DoubleValue
-60.749

@<SCITEGIC>MOL_PROPERTY
W(PB)
SciTegic.value.DoubleValue
-63.220

@<SCITEGIC>MOL_PROPERTY
W(SA)
SciTegic.value.DoubleValue
2.471

@<SCITEGIC>MOL_PROPERTY
Valence
SciTegic.value.DoubleValue
9.445

@<SCITEGIC>MOL_PROPERTY
Coulomb
SciTegic.value.DoubleValue
0.780

@<SCITEGIC>MOL_PROPERTY
VdW
SciTegic.value.DoubleValue
0.679

@<SCITEGIC>MOL_PROPERTY
VdW6
SciTegic.value.DoubleValue
-10.008

@<SCITEGIC>MOL_PROPERTY
VdW12
SciTegic.value.DoubleValue
10.687

@<SCITEGIC>MOL_PROPERTY
Bond
SciTegic.value.DoubleValue
0.201

@<SCITEGIC>MOL_PROPERTY
Angle
SciTegic.value.DoubleValue
3.198

@<SCITEGIC>MOL_PROPERTY
Pdih
SciTegic.value.DoubleValue
6.039

@<SCITEGIC>MOL_PROPERTY
Idih
SciTegic.value.DoubleValue
0.006

@<SCITEGIC>MOL_PROPERTY
Tether
SciTegic.value.DoubleValue
0.000

@<TRIPOS>MOLECULE
guest-8_confgen4.mol2 : confsearch ligand conformer 875
          25          24           1
SMALL
USER_CHARGES
 
@<TRIPOS>ATOM
       1    C1      17.580884   18.138341   25.281784 C.2        1 MOL1         0.6168
       2    O1      16.731763   18.979978   25.062048 O.co2      1 MOL1        -0.6703
       3    O2      17.580762   17.035988   24.769890 O.co2      1 MOL1        -0.6703
       4    C2      18.669157   18.456441   26.305437 C.3        1 MOL1        -0.1963
       5    H1      19.317432   17.579389   26.420783 H          1 MOL1         0.0750
       6    H2      18.157963   18.596963   27.264813 H          1 MOL1         0.0750
       7    C3      19.521554   19.719440   25.996640 C.3        1 MOL1        -0.1860
       8    H3      18.868169   20.543514   25.677915 H          1 MOL1         0.0752
       9    H4      19.989190   20.050323   26.933797 H          1 MOL1         0.0752
      10    C4      20.649514   19.503766   24.957277 C.3        1 MOL1        -0.1858
      11    H5      21.305635   18.687017   25.287825 H          1 MOL1         0.0752
      12    H6      21.271381   20.409172   24.934817 H          1 MOL1         0.0752
      13    C5      20.141374   19.214885   23.526554 C.3        1 MOL1        -0.1858
      14    H7      19.628550   18.245138   23.501899 H          1 MOL1         0.0752
      15    H8      19.404579   19.976295   23.235977 H          1 MOL1         0.0752
      16    C6      21.297293   19.195840   22.502807 C.3        1 MOL1        -0.1858
      17    H9      22.035372   18.437337   22.797668 H          1 MOL1         0.0752
      18    H10     21.813458   20.165606   22.512486 H          1 MOL1         0.0752
      19    C7      20.792385   18.896106   21.075712 C.3        1 MOL1        -0.1834
      20    H11     20.276912   17.925695   21.061719 H          1 MOL1         0.0752
      21    H12     20.054304   19.653563   20.777466 H          1 MOL1         0.0752
      22    C8      21.948707   18.877321   20.055793 C.3        1 MOL1        -0.2849
      23    H13     22.686665   18.106161   20.312899 H          1 MOL1         0.0764
      24    H14     21.571669   18.662806   19.047384 H          1 MOL1         0.0764
      25    H15     22.462334   19.847217   20.026425 H          1 MOL1         0.0764
@<TRIPOS>BOND
    1     1     2    1
    2     1     3    2
    3     1     4    1
    4     4     5    1
    5     4     6    1
    6     4     7    1
    7     7     8    1
    8     7     9    1
    9     7    10    1
   10    10    11    1
   11    10    12    1
   12    10    13    1
   13    13    14    1
   14    13    15    1
   15    13    16    1
   16    16    17    1
   17    16    18    1
   18    16    19    1
   19    19    20    1
   20    19    21    1
   21    19    22    1
   22    22    23    1
   23    22    24    1
   24    22    25    1
@<TRIPOS>SUBSTRUCTURE
       1 MOL1            1 RESIDUE      1      MOL     
@<SCITEGIC>MOL_PROPERTY
VConf Rank
SciTegic.value.IntegerValue
875

@<SCITEGIC>MOL_PROPERTY
Conf_Id
SciTegic.value.IntegerValue
9

@<SCITEGIC>MOL_PROPERTY
Delta U+W
SciTegic.value.DoubleValue
1.764

@<SCITEGIC>MOL_PROPERTY
U+W
SciTegic.value.DoubleValue
-49.865

@<SCITEGIC>MOL_PROPERTY
Grad RMS
SciTegic.value.DoubleValue
0.000000

@<SCITEGIC>MOL_PROPERTY
U
SciTegic.value.DoubleValue
10.902

@<SCITEGIC>MOL_PROPERTY
W
SciTegic.value.DoubleValue
-60.768

@<SCITEGIC>MOL_PROPERTY
W(PB)
SciTegic.value.DoubleValue
-63.223

@<SCITEGIC>MOL_PROPERTY
W(SA)
SciTegic.value.DoubleValue
2.456

@<SCITEGIC>MOL_PROPERTY
Valence
SciTegic.value.DoubleValue
9.445

@<SCITEGIC>MOL_PROPERTY
Coulomb
SciTegic.value.DoubleValue
0.778

@<SCITEGIC>MOL_PROPERTY
VdW
SciTegic.value.DoubleValue
0.679

@<SCITEGIC>MOL_PROPERTY
VdW6
SciTegic.value.DoubleValue
-10.007

@<SCITEGIC>MOL_PROPERTY
VdW12
SciTegic.value.DoubleValue
10.687

@<SCITEGIC>MOL_PROPERTY
Bond
SciTegic.value.DoubleValue
0.201

@<SCITEGIC>MOL_PROPERTY
Angle
SciTegic.value.DoubleValue
3.198

@<SCITEGIC>MOL_PROPERTY
Pdih
SciTegic.value.DoubleValue
6.040

@<SCITEGIC>MOL_PROPERTY
Idih
SciTegic.value.DoubleValue
0.006

@<SCITEGIC>MOL_PROPERTY
Tether
SciTegic.value.DoubleValue
0.000

@<TRIPOS>MOLECULE
guest-8_confgen4.mol2 : confsearch ligand conformer 876
          25          24           1
SMALL
USER_CHARGES
 
@<TRIPOS>ATOM
       1    C1      16.864447   17.708485   22.060902 C.2        1 MOL1         0.6168
       2    O1      17.323376   17.668962   20.936435 O.co2      1 MOL1        -0.6703
       3    O2      15.868703   17.101837   22.403421 O.co2      1 MOL1        -0.6703
       4    C2      17.589356   18.549402   23.105451 C.3        1 MOL1        -0.1963
       5    H1      16.838683   18.949843   23.797112 H          1 MOL1         0.0750
       6    H2      18.039078   19.405113   22.592643 H          1 MOL1         0.0750
       7    C3      18.657419   17.741692   23.889347 C.3        1 MOL1        -0.1860
       8    H3      18.149142   16.904009   24.386720 H          1 MOL1         0.0752
       9    H4      19.377929   17.291300   23.192621 H          1 MOL1         0.0752
      10    C4      19.399864   18.577844   24.962620 C.3        1 MOL1        -0.1858
      11    H5      19.610355   17.923406   25.819546 H          1 MOL1         0.0752
      12    H6      18.745524   19.371870   25.347589 H          1 MOL1         0.0752
      13    C5      20.749117   19.178864   24.494588 C.3        1 MOL1        -0.1858
      14    H7      21.222316   19.674144   25.353268 H          1 MOL1         0.0752
      15    H8      21.421423   18.362606   24.199370 H          1 MOL1         0.0752
      16    C6      20.623579   20.195777   23.335580 C.3        1 MOL1        -0.1858
      17    H9      19.835731   20.921689   23.577949 H          1 MOL1         0.0752
      18    H10     20.309368   19.678000   22.419923 H          1 MOL1         0.0752
      19    C7      21.934280   20.966454   23.053351 C.3        1 MOL1        -0.1834
      20    H11     21.736299   21.731902   22.290424 H          1 MOL1         0.0752
      21    H12     22.250768   21.504420   23.957597 H          1 MOL1         0.0752
      22    C8      23.081685   20.057659   22.561540 C.3        1 MOL1        -0.2849
      23    H13     22.779190   19.490147   21.671837 H          1 MOL1         0.0764
      24    H14     23.961163   20.658626   22.296573 H          1 MOL1         0.0764
      25    H15     23.387559   19.344557   23.337298 H          1 MOL1         0.0764
@<TRIPOS>BOND
    1     1     2    1
    2     1     3    2
    3     1     4    1
    4     4     5    1
    5     4     6    1
    6     4     7    1
    7     7     8    1
    8     7     9    1
    9     7    10    1
   10    10    11    1
   11    10    12    1
   12    10    13    1
   13    13    14    1
   14    13    15    1
   15    13    16    1
   16    16    17    1
   17    16    18    1
   18    16    19    1
   19    19    20    1
   20    19    21    1
   21    19    22    1
   22    22    23    1
   23    22    24    1
   24    22    25    1
@<TRIPOS>SUBSTRUCTURE
       1 MOL1            1 RESIDUE      1      MOL     
@<SCITEGIC>MOL_PROPERTY
VConf Rank
SciTegic.value.IntegerValue
876

@<SCITEGIC>MOL_PROPERTY
Conf_Id
SciTegic.value.IntegerValue
89

@<SCITEGIC>MOL_PROPERTY
Delta U+W
SciTegic.value.DoubleValue
2.903

@<SCITEGIC>MOL_PROPERTY
U+W
SciTegic.value.DoubleValue
-48.726

@<SCITEGIC>MOL_PROPERTY
Grad RMS
SciTegic.value.DoubleValue
0.000000

@<SCITEGIC>MOL_PROPERTY
U
SciTegic.value.DoubleValue
10.996

@<SCITEGIC>MOL_PROPERTY
W
SciTegic.value.DoubleValue
-59.723

@<SCITEGIC>MOL_PROPERTY
W(PB)
SciTegic.value.DoubleValue
-62.151

@<SCITEGIC>MOL_PROPERTY
W(SA)
SciTegic.value.DoubleValue
2.428

@<SCITEGIC>MOL_PROPERTY
Valence
SciTegic.value.DoubleValue
10.985

@<SCITEGIC>MOL_PROPERTY
Coulomb
SciTegic.value.DoubleValue
-0.995

@<SCITEGIC>MOL_PROPERTY
VdW
SciTegic.value.DoubleValue
1.006

@<SCITEGIC>MOL_PROPERTY
VdW6
SciTegic.value.DoubleValue
-10.062

@<SCITEGIC>MOL_PROPERTY
VdW12
SciTegic.value.DoubleValue
11.069

@<SCITEGIC>MOL_PROPERTY
Bond
SciTegic.value.DoubleValue
0.238

@<SCITEGIC>MOL_PROPERTY
Angle
SciTegic.value.DoubleValue
3.202

@<SCITEGIC>MOL_PROPERTY
Pdih
SciTegic.value.DoubleValue
7.544

@<SCITEGIC>MOL_PROPERTY
Idih
SciTegic.value.DoubleValue
0.001

@<SCITEGIC>MOL_PROPERTY
Tether
SciTegic.value.DoubleValue
0.000

@<TRIPOS>MOLECULE
guest-8_confgen4.mol2 : confsearch ligand conformer 877
          25          24           1
SMALL
USER_CHARGES
 
@<TRIPOS>ATOM
       1    C1      21.548892   21.789545   24.991209 C.2        1 MOL1         0.6168
       2    O1      20.558172   22.483010   25.113033 O.co2      1 MOL1        -0.6703
       3    O2      22.179200   21.349515   25.932853 O.co2      1 MOL1        -0.6703
       4    C2      22.063880   21.511524   23.580273 C.3        1 MOL1        -0.1963
       5    H1      23.046473   21.992436   23.511624 H          1 MOL1         0.0750
       6    H2      21.414923   22.019671   22.856801 H          1 MOL1         0.0750
       7    C3      22.210102   20.008274   23.210898 C.3        1 MOL1        -0.1860
       8    H3      22.920152   19.933310   22.376241 H          1 MOL1         0.0752
       9    H4      22.667444   19.459313   24.045796 H          1 MOL1         0.0752
      10    C4      20.896500   19.312907   22.774037 C.3        1 MOL1        -0.1858
      11    H5      21.159605   18.322938   22.381282 H          1 MOL1         0.0752
      12    H6      20.445418   19.866521   21.939417 H          1 MOL1         0.0752
      13    C5      19.859778   19.152659   23.912419 C.3        1 MOL1        -0.1858
      14    H7      20.324421   18.653300   24.773533 H          1 MOL1         0.0752
      15    H8      19.547330   20.145252   24.258789 H          1 MOL1         0.0752
      16    C6      18.588095   18.380308   23.486192 C.3        1 MOL1        -0.1858
      17    H9      18.142586   18.861841   22.605014 H          1 MOL1         0.0752
      18    H10     17.846836   18.463617   24.292726 H          1 MOL1         0.0752
      19    C7      18.839414   16.883345   23.193992 C.3        1 MOL1        -0.1834
      20    H11     19.514656   16.771389   22.335946 H          1 MOL1         0.0752
      21    H12     19.335553   16.415981   24.055738 H          1 MOL1         0.0752
      22    C8      17.523319   16.137353   22.894852 C.3        1 MOL1        -0.2849
      23    H13     17.018660   16.567511   22.019837 H          1 MOL1         0.0764
      24    H14     17.718304   15.077324   22.686598 H          1 MOL1         0.0764
      25    H15     16.836182   16.193746   23.749256 H          1 MOL1         0.0764
@<TRIPOS>BOND
    1     1     2    1
    2     1     3    2
    3     1     4    1
    4     4     5    1
    5     4     6    1
    6     4     7    1
    7     7     8    1
    8     7     9    1
    9     7    10    1
   10    10    11    1
   11    10    12    1
   12    10    13    1
   13    13    14    1
   14    13    15    1
   15    13    16    1
   16    16    17    1
   17    16    18    1
   18    16    19    1
   19    19    20    1
   20    19    21    1
   21    19    22    1
   22    22    23    1
   23    22    24    1
   24    22    25    1
@<TRIPOS>SUBSTRUCTURE
       1 MOL1            1 RESIDUE      1      MOL     
@<SCITEGIC>MOL_PROPERTY
VConf Rank
SciTegic.value.IntegerValue
877

@<SCITEGIC>MOL_PROPERTY
Conf_Id
SciTegic.value.IntegerValue
114

@<SCITEGIC>MOL_PROPERTY
Delta U+W
SciTegic.value.DoubleValue
2.758

@<SCITEGIC>MOL_PROPERTY
U+W
SciTegic.value.DoubleValue
-48.871

@<SCITEGIC>MOL_PROPERTY
Grad RMS
SciTegic.value.DoubleValue
0.000000

@<SCITEGIC>MOL_PROPERTY
U
SciTegic.value.DoubleValue
11.422

@<SCITEGIC>MOL_PROPERTY
W
SciTegic.value.DoubleValue
-60.293

@<SCITEGIC>MOL_PROPERTY
W(PB)
SciTegic.value.DoubleValue
-62.719

@<SCITEGIC>MOL_PROPERTY
W(SA)
SciTegic.value.DoubleValue
2.425

@<SCITEGIC>MOL_PROPERTY
Valence
SciTegic.value.DoubleValue
10.135

@<SCITEGIC>MOL_PROPERTY
Coulomb
SciTegic.value.DoubleValue
0.369

@<SCITEGIC>MOL_PROPERTY
VdW
SciTegic.value.DoubleValue
0.918

@<SCITEGIC>MOL_PROPERTY
VdW6
SciTegic.value.DoubleValue
-10.482

@<SCITEGIC>MOL_PROPERTY
VdW12
SciTegic.value.DoubleValue
11.400

@<SCITEGIC>MOL_PROPERTY
Bond
SciTegic.value.DoubleValue
0.245

@<SCITEGIC>MOL_PROPERTY
Angle
SciTegic.value.DoubleValue
3.539

@<SCITEGIC>MOL_PROPERTY
Pdih
SciTegic.value.DoubleValue
6.346

@<SCITEGIC>MOL_PROPERTY
Idih
SciTegic.value.DoubleValue
0.006

@<SCITEGIC>MOL_PROPERTY
Tether
SciTegic.value.DoubleValue
0.000

@<TRIPOS>MOLECULE
guest-8_confgen4.mol2 : confsearch ligand conformer 878
          25          24           1
SMALL
USER_CHARGES
 
@<TRIPOS>ATOM
       1    C1      20.921906   17.005913   26.523746 C.2        1 MOL1         0.6168
       2    O1      21.086034   17.810701   27.419536 O.co2      1 MOL1        -0.6703
       3    O2      20.034268   16.175746   26.519440 O.co2      1 MOL1        -0.6703
       4    C2      21.895267   17.023468   25.348497 C.3        1 MOL1        -0.1963
       5    H1      22.181938   15.985211   25.143995 H          1 MOL1         0.0750
       6    H2      22.806836   17.549506   25.656884 H          1 MOL1         0.0750
       7    C3      21.315330   17.664200   24.060820 C.3        1 MOL1        -0.1860
       8    H3      22.027817   17.518278   23.237826 H          1 MOL1         0.0752
       9    H4      20.395715   17.132534   23.783391 H          1 MOL1         0.0752
      10    C4      21.031146   19.176250   24.228749 C.3        1 MOL1        -0.1858
      11    H5      21.940759   19.670107   24.596924 H          1 MOL1         0.0752
      12    H6      20.263393   19.328995   24.999804 H          1 MOL1         0.0752
      13    C5      20.591830   19.873002   22.918703 C.3        1 MOL1        -0.1858
      14    H7      20.558547   20.953938   23.104860 H          1 MOL1         0.0752
      15    H8      21.353579   19.713730   22.143529 H          1 MOL1         0.0752
      16    C6      19.211505   19.398319   22.401092 C.3        1 MOL1        -0.1858
      17    H9      18.450815   19.554503   23.178034 H          1 MOL1         0.0752
      18    H10     19.244553   18.318253   22.210229 H          1 MOL1         0.0752
      19    C7      18.769870   20.100965   21.095839 C.3        1 MOL1        -0.1834
      20    H11     19.534079   19.956582   20.319677 H          1 MOL1         0.0752
      21    H12     17.857066   19.613688   20.726259 H          1 MOL1         0.0752
      22    C8      18.487837   21.608734   21.274713 C.3        1 MOL1        -0.2849
      23    H13     18.087097   22.036510   20.346641 H          1 MOL1         0.0764
      24    H14     17.751204   21.779023   22.070632 H          1 MOL1         0.0764
      25    H15     19.401424   22.161365   21.526438 H          1 MOL1         0.0764
@<TRIPOS>BOND
    1     1     2    1
    2     1     3    2
    3     1     4    1
    4     4     5    1
    5     4     6    1
    6     4     7    1
    7     7     8    1
    8     7     9    1
    9     7    10    1
   10    10    11    1
   11    10    12    1
   12    10    13    1
   13    13    14    1
   14    13    15    1
   15    13    16    1
   16    16    17    1
   17    16    18    1
   18    16    19    1
   19    19    20    1
   20    19    21    1
   21    19    22    1
   22    22    23    1
   23    22    24    1
   24    22    25    1
@<TRIPOS>SUBSTRUCTURE
       1 MOL1            1 RESIDUE      1      MOL     
@<SCITEGIC>MOL_PROPERTY
VConf Rank
SciTegic.value.IntegerValue
878

@<SCITEGIC>MOL_PROPERTY
Conf_Id
SciTegic.value.IntegerValue
87

@<SCITEGIC>MOL_PROPERTY
Delta U+W
SciTegic.value.DoubleValue
1.453

@<SCITEGIC>MOL_PROPERTY
U+W
SciTegic.value.DoubleValue
-50.176

@<SCITEGIC>MOL_PROPERTY
Grad RMS
SciTegic.value.DoubleValue
0.000000

@<SCITEGIC>MOL_PROPERTY
U
SciTegic.value.DoubleValue
9.763

@<SCITEGIC>MOL_PROPERTY
W
SciTegic.value.DoubleValue
-59.940

@<SCITEGIC>MOL_PROPERTY
W(PB)
SciTegic.value.DoubleValue
-62.392

@<SCITEGIC>MOL_PROPERTY
W(SA)
SciTegic.value.DoubleValue
2.452

@<SCITEGIC>MOL_PROPERTY
Valence
SciTegic.value.DoubleValue
8.883

@<SCITEGIC>MOL_PROPERTY
Coulomb
SciTegic.value.DoubleValue
-0.122

@<SCITEGIC>MOL_PROPERTY
VdW
SciTegic.value.DoubleValue
1.003

@<SCITEGIC>MOL_PROPERTY
VdW6
SciTegic.value.DoubleValue
-9.782

@<SCITEGIC>MOL_PROPERTY
VdW12
SciTegic.value.DoubleValue
10.785

@<SCITEGIC>MOL_PROPERTY
Bond
SciTegic.value.DoubleValue
0.212

@<SCITEGIC>MOL_PROPERTY
Angle
SciTegic.value.DoubleValue
2.940

@<SCITEGIC>MOL_PROPERTY
Pdih
SciTegic.value.DoubleValue
5.730

@<SCITEGIC>MOL_PROPERTY
Idih
SciTegic.value.DoubleValue
0.001

@<SCITEGIC>MOL_PROPERTY
Tether
SciTegic.value.DoubleValue
0.000

@<TRIPOS>MOLECULE
guest-8_confgen4.mol2 : confsearch ligand conformer 879
          25          24           1
SMALL
USER_CHARGES
 
@<TRIPOS>ATOM
       1    C1      23.709863   17.796834   24.181020 C.2        1 MOL1         0.6168
       2    O1      23.815781   16.846002   23.431764 O.co2      1 MOL1        -0.6703
       3    O2      24.644607   18.497289   24.516220 O.co2      1 MOL1        -0.6703
       4    C2      22.324356   18.141266   24.715718 C.3        1 MOL1        -0.1963
       5    H1      22.442421   18.562940   25.721071 H          1 MOL1         0.0750
       6    H2      21.757529   17.208254   24.819504 H          1 MOL1         0.0750
       7    C3      21.558075   19.132706   23.805879 C.3        1 MOL1        -0.1860
       8    H3      22.141232   20.058321   23.704349 H          1 MOL1         0.0752
       9    H4      21.469985   18.697502   22.801576 H          1 MOL1         0.0752
      10    C4      20.154819   19.459143   24.367071 C.3        1 MOL1        -0.1858
      11    H5      20.258571   19.827536   25.396704 H          1 MOL1         0.0752
      12    H6      19.557231   18.540358   24.431318 H          1 MOL1         0.0752
      13    C5      19.393611   20.526573   23.541544 C.3        1 MOL1        -0.1858
      14    H7      18.438182   20.743083   24.037182 H          1 MOL1         0.0752
      15    H8      19.961512   21.466373   23.568633 H          1 MOL1         0.0752
      16    C6      19.127069   20.152267   22.059426 C.3        1 MOL1        -0.1858
      17    H9      20.082338   20.096394   21.521276 H          1 MOL1         0.0752
      18    H10     18.568535   20.971559   21.586891 H          1 MOL1         0.0752
      19    C7      18.350833   18.829939   21.842551 C.3        1 MOL1        -0.1834
      20    H11     18.245389   18.658797   20.762505 H          1 MOL1         0.0752
      21    H12     18.932692   17.982565   22.228855 H          1 MOL1         0.0752
      22    C8      16.946627   18.834364   22.484598 C.3        1 MOL1        -0.2849
      23    H13     16.352676   19.684208   22.124150 H          1 MOL1         0.0764
      24    H14     16.406277   17.912565   22.233528 H          1 MOL1         0.0764
      25    H15     17.008796   18.896533   23.578314 H          1 MOL1         0.0764
@<TRIPOS>BOND
    1     1     2    1
    2     1     3    2
    3     1     4    1
    4     4     5    1
    5     4     6    1
    6     4     7    1
    7     7     8    1
    8     7     9    1
    9     7    10    1
   10    10    11    1
   11    10    12    1
   12    10    13    1
   13    13    14    1
   14    13    15    1
   15    13    16    1
   16    16    17    1
   17    16    18    1
   18    16    19    1
   19    19    20    1
   20    19    21    1
   21    19    22    1
   22    22    23    1
   23    22    24    1
   24    22    25    1
@<TRIPOS>SUBSTRUCTURE
       1 MOL1            1 RESIDUE      1      MOL     
@<SCITEGIC>MOL_PROPERTY
VConf Rank
SciTegic.value.IntegerValue
879

@<SCITEGIC>MOL_PROPERTY
Conf_Id
SciTegic.value.IntegerValue
29

@<SCITEGIC>MOL_PROPERTY
Delta U+W
SciTegic.value.DoubleValue
0.850

@<SCITEGIC>MOL_PROPERTY
U+W
SciTegic.value.DoubleValue
-50.780

@<SCITEGIC>MOL_PROPERTY
Grad RMS
SciTegic.value.DoubleValue
0.000000

@<SCITEGIC>MOL_PROPERTY
U
SciTegic.value.DoubleValue
8.646

@<SCITEGIC>MOL_PROPERTY
W
SciTegic.value.DoubleValue
-59.426

@<SCITEGIC>MOL_PROPERTY
W(PB)
SciTegic.value.DoubleValue
-61.868

@<SCITEGIC>MOL_PROPERTY
W(SA)
SciTegic.value.DoubleValue
2.442

@<SCITEGIC>MOL_PROPERTY
Valence
SciTegic.value.DoubleValue
8.924

@<SCITEGIC>MOL_PROPERTY
Coulomb
SciTegic.value.DoubleValue
-1.171

@<SCITEGIC>MOL_PROPERTY
VdW
SciTegic.value.DoubleValue
0.894

@<SCITEGIC>MOL_PROPERTY
VdW6
SciTegic.value.DoubleValue
-10.223

@<SCITEGIC>MOL_PROPERTY
VdW12
SciTegic.value.DoubleValue
11.117

@<SCITEGIC>MOL_PROPERTY
Bond
SciTegic.value.DoubleValue
0.231

@<SCITEGIC>MOL_PROPERTY
Angle
SciTegic.value.DoubleValue
3.232

@<SCITEGIC>MOL_PROPERTY
Pdih
SciTegic.value.DoubleValue
5.461

@<SCITEGIC>MOL_PROPERTY
Idih
SciTegic.value.DoubleValue
0.001

@<SCITEGIC>MOL_PROPERTY
Tether
SciTegic.value.DoubleValue
0.000

@<TRIPOS>MOLECULE
guest-8_confgen4.mol2 : confsearch ligand conformer 880
          25          24           1
SMALL
USER_CHARGES
 
@<TRIPOS>ATOM
       1    C1      22.356313   19.200558   20.158280 C.2        1 MOL1         0.6168
       2    O1      21.564029   19.397262   19.258125 O.co2      1 MOL1        -0.6703
       3    O2      23.367884   18.539052   20.032280 O.co2      1 MOL1        -0.6703
       4    C2      22.054967   19.801243   21.526688 C.3        1 MOL1        -0.1963
       5    H1      21.517214   20.744644   21.373746 H          1 MOL1         0.0750
       6    H2      23.009000   20.045859   22.008836 H          1 MOL1         0.0750
       7    C3      21.225955   18.854854   22.429484 C.3        1 MOL1        -0.1860
       8    H3      20.286147   18.608874   21.917585 H          1 MOL1         0.0752
       9    H4      21.772735   17.911828   22.566878 H          1 MOL1         0.0752
      10    C4      20.928490   19.490875   23.807028 C.3        1 MOL1        -0.1858
      11    H5      20.347353   20.412695   23.673102 H          1 MOL1         0.0752
      12    H6      21.876086   19.793300   24.273099 H          1 MOL1         0.0752
      13    C5      20.188988   18.537986   24.779383 C.3        1 MOL1        -0.1858
      14    H7      20.827974   17.666317   24.975246 H          1 MOL1         0.0752
      15    H8      20.069954   19.041905   25.747514 H          1 MOL1         0.0752
      16    C6      18.804254   18.036388   24.290777 C.3        1 MOL1        -0.1858
      17    H9      18.372754   17.389909   25.066897 H          1 MOL1         0.0752
      18    H10     18.940293   17.392987   23.411689 H          1 MOL1         0.0752
      19    C7      17.784143   19.149082   23.945211 C.3        1 MOL1        -0.1834
      20    H11     18.155831   19.755918   23.108890 H          1 MOL1         0.0752
      21    H12     16.857939   18.677055   23.589909 H          1 MOL1         0.0752
      22    C8      17.448381   20.062706   25.143791 C.3        1 MOL1        -0.2849
      23    H13     18.326354   20.636937   25.465299 H          1 MOL1         0.0764
      24    H14     16.662645   20.779461   24.872479 H          1 MOL1         0.0764
      25    H15     17.089738   19.473955   25.998005 H          1 MOL1         0.0764
@<TRIPOS>BOND
    1     1     2    1
    2     1     3    2
    3     1     4    1
    4     4     5    1
    5     4     6    1
    6     4     7    1
    7     7     8    1
    8     7     9    1
    9     7    10    1
   10    10    11    1
   11    10    12    1
   12    10    13    1
   13    13    14    1
   14    13    15    1
   15    13    16    1
   16    16    17    1
   17    16    18    1
   18    16    19    1
   19    19    20    1
   20    19    21    1
   21    19    22    1
   22    22    23    1
   23    22    24    1
   24    22    25    1
@<TRIPOS>SUBSTRUCTURE
       1 MOL1            1 RESIDUE      1      MOL     
@<SCITEGIC>MOL_PROPERTY
VConf Rank
SciTegic.value.IntegerValue
880

@<SCITEGIC>MOL_PROPERTY
Conf_Id
SciTegic.value.IntegerValue
30

@<SCITEGIC>MOL_PROPERTY
Delta U+W
SciTegic.value.DoubleValue
0.843

@<SCITEGIC>MOL_PROPERTY
U+W
SciTegic.value.DoubleValue
-50.787

@<SCITEGIC>MOL_PROPERTY
Grad RMS
SciTegic.value.DoubleValue
0.000000

@<SCITEGIC>MOL_PROPERTY
U
SciTegic.value.DoubleValue
8.647

@<SCITEGIC>MOL_PROPERTY
W
SciTegic.value.DoubleValue
-59.434

@<SCITEGIC>MOL_PROPERTY
W(PB)
SciTegic.value.DoubleValue
-61.861

@<SCITEGIC>MOL_PROPERTY
W(SA)
SciTegic.value.DoubleValue
2.428

@<SCITEGIC>MOL_PROPERTY
Valence
SciTegic.value.DoubleValue
8.924

@<SCITEGIC>MOL_PROPERTY
Coulomb
SciTegic.value.DoubleValue
-1.170

@<SCITEGIC>MOL_PROPERTY
VdW
SciTegic.value.DoubleValue
0.894

@<SCITEGIC>MOL_PROPERTY
VdW6
SciTegic.value.DoubleValue
-10.224

@<SCITEGIC>MOL_PROPERTY
VdW12
SciTegic.value.DoubleValue
11.118

@<SCITEGIC>MOL_PROPERTY
Bond
SciTegic.value.DoubleValue
0.231

@<SCITEGIC>MOL_PROPERTY
Angle
SciTegic.value.DoubleValue
3.232

@<SCITEGIC>MOL_PROPERTY
Pdih
SciTegic.value.DoubleValue
5.460

@<SCITEGIC>MOL_PROPERTY
Idih
SciTegic.value.DoubleValue
0.000

@<SCITEGIC>MOL_PROPERTY
Tether
SciTegic.value.DoubleValue
0.000

@<TRIPOS>MOLECULE
guest-8_confgen4.mol2 : confsearch ligand conformer 881
          25          24           1
SMALL
USER_CHARGES
 
@<TRIPOS>ATOM
       1    C1      24.635260   18.474113   24.031520 C.2        1 MOL1         0.6168
       2    O1      24.941898   19.622195   23.773673 O.co2      1 MOL1        -0.6703
       3    O2      25.440696   17.634567   24.381595 O.co2      1 MOL1        -0.6703
       4    C2      23.174305   18.035573   23.918876 C.3        1 MOL1        -0.1963
       5    H1      22.873822   17.645039   24.898213 H          1 MOL1         0.0750
       6    H2      23.138250   17.196727   23.213933 H          1 MOL1         0.0750
       7    C3      22.183609   19.142096   23.468822 C.3        1 MOL1        -0.1860
       8    H3      22.229576   19.982024   24.175867 H          1 MOL1         0.0752
       9    H4      22.494199   19.533275   22.490038 H          1 MOL1         0.0752
      10    C4      20.734730   18.615025   23.381690 C.3        1 MOL1        -0.1858
      11    H5      20.426434   18.224446   24.361249 H          1 MOL1         0.0752
      12    H6      20.691219   17.775432   22.674351 H          1 MOL1         0.0752
      13    C5      19.750960   19.717354   22.933859 C.3        1 MOL1        -0.1858
      14    H7      19.794231   20.557074   23.641039 H          1 MOL1         0.0752
      15    H8      20.058980   20.108098   21.954294 H          1 MOL1         0.0752
      16    C6      18.302077   19.191019   22.846545 C.3        1 MOL1        -0.1858
      17    H9      17.993828   18.800269   23.826029 H          1 MOL1         0.0752
      18    H10     18.258552   18.351349   22.139329 H          1 MOL1         0.0752
      19    C7      17.318646   20.292786   22.398961 C.3        1 MOL1        -0.1834
      20    H11     17.358041   21.133734   23.105180 H          1 MOL1         0.0752
      21    H12     17.622754   20.684815   21.418492 H          1 MOL1         0.0752
      22    C8      15.873015   19.763289   22.313010 C.3        1 MOL1        -0.2849
      23    H13     15.531497   19.393367   23.288674 H          1 MOL1         0.0764
      24    H14     15.187777   20.559239   21.993635 H          1 MOL1         0.0764
      25    H15     15.798194   18.941087   21.589281 H          1 MOL1         0.0764
@<TRIPOS>BOND
    1     1     2    1
    2     1     3    2
    3     1     4    1
    4     4     5    1
    5     4     6    1
    6     4     7    1
    7     7     8    1
    8     7     9    1
    9     7    10    1
   10    10    11    1
   11    10    12    1
   12    10    13    1
   13    13    14    1
   14    13    15    1
   15    13    16    1
   16    16    17    1
   17    16    18    1
   18    16    19    1
   19    19    20    1
   20    19    21    1
   21    19    22    1
   22    22    23    1
   23    22    24    1
   24    22    25    1
@<TRIPOS>SUBSTRUCTURE
       1 MOL1            1 RESIDUE      1      MOL     
@<SCITEGIC>MOL_PROPERTY
VConf Rank
SciTegic.value.IntegerValue
881

@<SCITEGIC>MOL_PROPERTY
Conf_Id
SciTegic.value.IntegerValue
0

@<SCITEGIC>MOL_PROPERTY
Delta U+W
SciTegic.value.DoubleValue
0.000

@<SCITEGIC>MOL_PROPERTY
U+W
SciTegic.value.DoubleValue
-51.629

@<SCITEGIC>MOL_PROPERTY
Grad RMS
SciTegic.value.DoubleValue
0.000000

@<SCITEGIC>MOL_PROPERTY
U
SciTegic.value.DoubleValue
6.586

@<SCITEGIC>MOL_PROPERTY
W
SciTegic.value.DoubleValue
-58.216

@<SCITEGIC>MOL_PROPERTY
W(PB)
SciTegic.value.DoubleValue
-60.757

@<SCITEGIC>MOL_PROPERTY
W(SA)
SciTegic.value.DoubleValue
2.541

@<SCITEGIC>MOL_PROPERTY
Valence
SciTegic.value.DoubleValue
8.027

@<SCITEGIC>MOL_PROPERTY
Coulomb
SciTegic.value.DoubleValue
-2.892

@<SCITEGIC>MOL_PROPERTY
VdW
SciTegic.value.DoubleValue
1.451

@<SCITEGIC>MOL_PROPERTY
VdW6
SciTegic.value.DoubleValue
-7.931

@<SCITEGIC>MOL_PROPERTY
VdW12
SciTegic.value.DoubleValue
9.383

@<SCITEGIC>MOL_PROPERTY
Bond
SciTegic.value.DoubleValue
0.149

@<SCITEGIC>MOL_PROPERTY
Angle
SciTegic.value.DoubleValue
2.726

@<SCITEGIC>MOL_PROPERTY
Pdih
SciTegic.value.DoubleValue
5.152

@<SCITEGIC>MOL_PROPERTY
Idih
SciTegic.value.DoubleValue
0.000

@<SCITEGIC>MOL_PROPERTY
Tether
SciTegic.value.DoubleValue
0.000

@<TRIPOS>MOLECULE
guest-8_confgen4.mol2 : confsearch ligand conformer 882
          25          24           1
SMALL
USER_CHARGES
 
@<TRIPOS>ATOM
       1    C1      21.535702   23.085161   25.222009 C.2        1 MOL1         0.6168
       2    O1      21.079972   24.101765   24.736779 O.co2      1 MOL1        -0.6703
       3    O2      21.801627   22.962280   26.401333 O.co2      1 MOL1        -0.6703
       4    C2      21.765049   21.889704   24.304205 C.3        1 MOL1        -0.1963
       5    H1      22.628755   21.330167   24.683065 H          1 MOL1         0.0750
       6    H2      22.034708   22.269349   23.311350 H          1 MOL1         0.0750
       7    C3      20.528950   20.962264   24.204524 C.3        1 MOL1        -0.1860
       8    H3      20.264122   20.601440   25.208151 H          1 MOL1         0.0752
       9    H4      19.670054   21.540653   23.836616 H          1 MOL1         0.0752
      10    C4      20.785912   19.760252   23.270094 C.3        1 MOL1        -0.1858
      11    H5      21.645702   19.184820   23.639986 H          1 MOL1         0.0752
      12    H6      21.051706   20.124326   22.268104 H          1 MOL1         0.0752
      13    C5      19.551913   18.837647   23.172542 C.3        1 MOL1        -0.1858
      14    H7      19.285978   18.473396   24.174392 H          1 MOL1         0.0752
      15    H8      18.692026   19.412873   22.802658 H          1 MOL1         0.0752
      16    C6      19.808113   17.635441   22.238229 C.3        1 MOL1        -0.1858
      17    H9      20.667898   17.059937   22.607906 H          1 MOL1         0.0752
      18    H10     20.074064   17.999374   21.236272 H          1 MOL1         0.0752
      19    C7      18.574730   16.713171   22.140537 C.3        1 MOL1        -0.1834
      20    H11     18.306818   16.345615   23.140844 H          1 MOL1         0.0752
      21    H12     17.713003   17.285030   21.769196 H          1 MOL1         0.0752
      22    C8      18.834566   15.513960   21.206737 C.3        1 MOL1        -0.2849
      23    H13     17.947923   14.869271   21.149052 H          1 MOL1         0.0764
      24    H14     19.074224   15.852377   20.190158 H          1 MOL1         0.0764
      25    H15     19.672506   14.905898   21.572133 H          1 MOL1         0.0764
@<TRIPOS>BOND
    1     1     2    1
    2     1     3    2
    3     1     4    1
    4     4     5    1
    5     4     6    1
    6     4     7    1
    7     7     8    1
    8     7     9    1
    9     7    10    1
   10    10    11    1
   11    10    12    1
   12    10    13    1
   13    13    14    1
   14    13    15    1
   15    13    16    1
   16    16    17    1
   17    16    18    1
   18    16    19    1
   19    19    20    1
   20    19    21    1
   21    19    22    1
   22    22    23    1
   23    22    24    1
   24    22    25    1
@<TRIPOS>SUBSTRUCTURE
       1 MOL1            1 RESIDUE      1      MOL     
@<SCITEGIC>MOL_PROPERTY
VConf Rank
SciTegic.value.IntegerValue
882

@<SCITEGIC>MOL_PROPERTY
Conf_Id
SciTegic.value.IntegerValue
27

@<SCITEGIC>MOL_PROPERTY
Delta U+W
SciTegic.value.DoubleValue
-1.297

@<SCITEGIC>MOL_PROPERTY
U+W
SciTegic.value.DoubleValue
-52.926

@<SCITEGIC>MOL_PROPERTY
Grad RMS
SciTegic.value.DoubleValue
0.000000

@<SCITEGIC>MOL_PROPERTY
U
SciTegic.value.DoubleValue
5.617

@<SCITEGIC>MOL_PROPERTY
W
SciTegic.value.DoubleValue
-58.543

@<SCITEGIC>MOL_PROPERTY
W(PB)
SciTegic.value.DoubleValue
-61.065

@<SCITEGIC>MOL_PROPERTY
W(SA)
SciTegic.value.DoubleValue
2.522

@<SCITEGIC>MOL_PROPERTY
Valence
SciTegic.value.DoubleValue
7.531

@<SCITEGIC>MOL_PROPERTY
Coulomb
SciTegic.value.DoubleValue
-2.818

@<SCITEGIC>MOL_PROPERTY
VdW
SciTegic.value.DoubleValue
0.904

@<SCITEGIC>MOL_PROPERTY
VdW6
SciTegic.value.DoubleValue
-7.640

@<SCITEGIC>MOL_PROPERTY
VdW12
SciTegic.value.DoubleValue
8.544

@<SCITEGIC>MOL_PROPERTY
Bond
SciTegic.value.DoubleValue
0.115

@<SCITEGIC>MOL_PROPERTY
Angle
SciTegic.value.DoubleValue
2.271

@<SCITEGIC>MOL_PROPERTY
Pdih
SciTegic.value.DoubleValue
5.144

@<SCITEGIC>MOL_PROPERTY
Idih
SciTegic.value.DoubleValue
0.001

@<SCITEGIC>MOL_PROPERTY
Tether
SciTegic.value.DoubleValue
0.000

@<TRIPOS>MOLECULE
guest-8_confgen4.mol2 : confsearch ligand conformer 883
          25          24           1
SMALL
USER_CHARGES
 
@<TRIPOS>ATOM
       1    C1      23.113049   21.640818   22.163447 C.2        1 MOL1         0.6168
       2    O1      23.087827   21.889633   20.974107 O.co2      1 MOL1        -0.6703
       3    O2      22.878309   22.462293   23.027762 O.co2      1 MOL1        -0.6703
       4    C2      23.476214   20.222281   22.593362 C.3        1 MOL1        -0.1963
       5    H1      23.788600   20.244187   23.644448 H          1 MOL1         0.0750
       6    H2      24.351522   19.916365   22.008353 H          1 MOL1         0.0750
       7    C3      22.334423   19.191768   22.395117 C.3        1 MOL1        -0.1860
       8    H3      22.013868   19.201472   21.344012 H          1 MOL1         0.0752
       9    H4      22.723977   18.184873   22.597497 H          1 MOL1         0.0752
      10    C4      21.122472   19.463444   23.314430 C.3        1 MOL1        -0.1858
      11    H5      20.716024   20.462753   23.105610 H          1 MOL1         0.0752
      12    H6      21.450478   19.466128   24.362966 H          1 MOL1         0.0752
      13    C5      20.011995   18.407980   23.123467 C.3        1 MOL1        -0.1858
      14    H7      19.684641   18.406056   22.074694 H          1 MOL1         0.0752
      15    H8      20.415372   17.408127   23.334698 H          1 MOL1         0.0752
      16    C6      18.800324   18.679297   24.041127 C.3        1 MOL1        -0.1858
      17    H9      18.396862   19.679195   23.830052 H          1 MOL1         0.0752
      18    H10     19.127525   18.681619   25.089944 H          1 MOL1         0.0752
      19    C7      17.689864   17.624873   23.850240 C.3        1 MOL1        -0.1834
      20    H11     17.358809   17.621062   22.802446 H          1 MOL1         0.0752
      21    H12     18.089433   16.623475   24.062433 H          1 MOL1         0.0752
      22    C8      16.481761   17.899513   24.768208 C.3        1 MOL1        -0.2849
      23    H13     16.042379   18.882932   24.555540 H          1 MOL1         0.0764
      24    H14     15.702420   17.140841   24.619468 H          1 MOL1         0.0764
      25    H15     16.778498   17.877888   25.825031 H          1 MOL1         0.0764
@<TRIPOS>BOND
    1     1     2    1
    2     1     3    2
    3     1     4    1
    4     4     5    1
    5     4     6    1
    6     4     7    1
    7     7     8    1
    8     7     9    1
    9     7    10    1
   10    10    11    1
   11    10    12    1
   12    10    13    1
   13    13    14    1
   14    13    15    1
   15    13    16    1
   16    16    17    1
   17    16    18    1
   18    16    19    1
   19    19    20    1
   20    19    21    1
   21    19    22    1
   22    22    23    1
   23    22    24    1
   24    22    25    1
@<TRIPOS>SUBSTRUCTURE
       1 MOL1            1 RESIDUE      1      MOL     
@<SCITEGIC>MOL_PROPERTY
VConf Rank
SciTegic.value.IntegerValue
883

@<SCITEGIC>MOL_PROPERTY
Conf_Id
SciTegic.value.IntegerValue
37

@<SCITEGIC>MOL_PROPERTY
Delta U+W
SciTegic.value.DoubleValue
-0.230

@<SCITEGIC>MOL_PROPERTY
U+W
SciTegic.value.DoubleValue
-51.860

@<SCITEGIC>MOL_PROPERTY
Grad RMS
SciTegic.value.DoubleValue
0.000000

@<SCITEGIC>MOL_PROPERTY
U
SciTegic.value.DoubleValue
7.816

@<SCITEGIC>MOL_PROPERTY
W
SciTegic.value.DoubleValue
-59.675

@<SCITEGIC>MOL_PROPERTY
W(PB)
SciTegic.value.DoubleValue
-62.180

@<SCITEGIC>MOL_PROPERTY
W(SA)
SciTegic.value.DoubleValue
2.505

@<SCITEGIC>MOL_PROPERTY
Valence
SciTegic.value.DoubleValue
7.785

@<SCITEGIC>MOL_PROPERTY
Coulomb
SciTegic.value.DoubleValue
-0.713

@<SCITEGIC>MOL_PROPERTY
VdW
SciTegic.value.DoubleValue
0.744

@<SCITEGIC>MOL_PROPERTY
VdW6
SciTegic.value.DoubleValue
-8.514

@<SCITEGIC>MOL_PROPERTY
VdW12
SciTegic.value.DoubleValue
9.259

@<SCITEGIC>MOL_PROPERTY
Bond
SciTegic.value.DoubleValue
0.136

@<SCITEGIC>MOL_PROPERTY
Angle
SciTegic.value.DoubleValue
2.433

@<SCITEGIC>MOL_PROPERTY
Pdih
SciTegic.value.DoubleValue
5.216

@<SCITEGIC>MOL_PROPERTY
Idih
SciTegic.value.DoubleValue
0.000

@<SCITEGIC>MOL_PROPERTY
Tether
SciTegic.value.DoubleValue
0.000

@<TRIPOS>MOLECULE
guest-8_confgen4.mol2 : confsearch ligand conformer 884
          25          24           1
SMALL
USER_CHARGES
 
@<TRIPOS>ATOM
       1    C1      16.957631   21.064174   21.323162 C.2        1 MOL1         0.6168
       2    O1      16.281842   21.808149   22.006451 O.co2      1 MOL1        -0.6703
       3    O2      16.544762   20.022705   20.852156 O.co2      1 MOL1        -0.6703
       4    C2      18.398855   21.470185   21.028212 C.3        1 MOL1        -0.1963
       5    H1      18.389146   22.528159   20.740843 H          1 MOL1         0.0750
       6    H2      18.749433   20.907081   20.154796 H          1 MOL1         0.0750
       7    C3      19.368012   21.266157   22.221548 C.3        1 MOL1        -0.1860
       8    H3      20.341479   21.708299   21.969716 H          1 MOL1         0.0752
       9    H4      18.988876   21.813288   23.095949 H          1 MOL1         0.0752
      10    C4      19.562922   19.775935   22.580737 C.3        1 MOL1        -0.1858
      11    H5      19.929192   19.230964   21.699898 H          1 MOL1         0.0752
      12    H6      18.595390   19.330574   22.850845 H          1 MOL1         0.0752
      13    C5      20.555136   19.594555   23.749600 C.3        1 MOL1        -0.1858
      14    H7      21.524303   20.036595   23.480617 H          1 MOL1         0.0752
      15    H8      20.187964   20.139752   24.629960 H          1 MOL1         0.0752
      16    C6      20.749851   18.105799   24.109525 C.3        1 MOL1        -0.1858
      17    H9      21.116747   17.560354   23.229208 H          1 MOL1         0.0752
      18    H10     19.780705   17.663555   24.378419 H          1 MOL1         0.0752
      19    C7      21.741061   17.924030   25.278212 C.3        1 MOL1        -0.1834
      20    H11     22.712302   18.363701   25.012019 H          1 MOL1         0.0752
      21    H12     21.376182   18.466812   26.161238 H          1 MOL1         0.0752
      22    C8      21.932654   16.436088   25.634473 C.3        1 MOL1        -0.2849
      23    H13     22.327269   15.874638   24.777474 H          1 MOL1         0.0764
      24    H14     22.639891   16.325451   26.466734 H          1 MOL1         0.0764
      25    H15     20.981053   15.978516   25.935274 H          1 MOL1         0.0764
@<TRIPOS>BOND
    1     1     2    1
    2     1     3    2
    3     1     4    1
    4     4     5    1
    5     4     6    1
    6     4     7    1
    7     7     8    1
    8     7     9    1
    9     7    10    1
   10    10    11    1
   11    10    12    1
   12    10    13    1
   13    13    14    1
   14    13    15    1
   15    13    16    1
   16    16    17    1
   17    16    18    1
   18    16    19    1
   19    19    20    1
   20    19    21    1
   21    19    22    1
   22    22    23    1
   23    22    24    1
   24    22    25    1
@<TRIPOS>SUBSTRUCTURE
       1 MOL1            1 RESIDUE      1      MOL     
@<SCITEGIC>MOL_PROPERTY
VConf Rank
SciTegic.value.IntegerValue
884

@<SCITEGIC>MOL_PROPERTY
Conf_Id
SciTegic.value.IntegerValue
54

@<SCITEGIC>MOL_PROPERTY
Delta U+W
SciTegic.value.DoubleValue
-0.224

@<SCITEGIC>MOL_PROPERTY
U+W
SciTegic.value.DoubleValue
-51.854

@<SCITEGIC>MOL_PROPERTY
Grad RMS
SciTegic.value.DoubleValue
0.000000

@<SCITEGIC>MOL_PROPERTY
U
SciTegic.value.DoubleValue
7.816

@<SCITEGIC>MOL_PROPERTY
W
SciTegic.value.DoubleValue
-59.670

@<SCITEGIC>MOL_PROPERTY
W(PB)
SciTegic.value.DoubleValue
-62.157

@<SCITEGIC>MOL_PROPERTY
W(SA)
SciTegic.value.DoubleValue
2.487

@<SCITEGIC>MOL_PROPERTY
Valence
SciTegic.value.DoubleValue
7.785

@<SCITEGIC>MOL_PROPERTY
Coulomb
SciTegic.value.DoubleValue
-0.713

@<SCITEGIC>MOL_PROPERTY
VdW
SciTegic.value.DoubleValue
0.744

@<SCITEGIC>MOL_PROPERTY
VdW6
SciTegic.value.DoubleValue
-8.515

@<SCITEGIC>MOL_PROPERTY
VdW12
SciTegic.value.DoubleValue
9.259

@<SCITEGIC>MOL_PROPERTY
Bond
SciTegic.value.DoubleValue
0.136

@<SCITEGIC>MOL_PROPERTY
Angle
SciTegic.value.DoubleValue
2.433

@<SCITEGIC>MOL_PROPERTY
Pdih
SciTegic.value.DoubleValue
5.215

@<SCITEGIC>MOL_PROPERTY
Idih
SciTegic.value.DoubleValue
0.000

@<SCITEGIC>MOL_PROPERTY
Tether
SciTegic.value.DoubleValue
0.000

@<TRIPOS>MOLECULE
guest-8_confgen4.mol2 : confsearch ligand conformer 885
          25          24           1
SMALL
USER_CHARGES
 
@<TRIPOS>ATOM
       1    C1      17.006086   18.993424   20.737659 C.2        1 MOL1         0.6168
       2    O1      17.462665   19.366729   19.675007 O.co2      1 MOL1        -0.6703
       3    O2      16.350887   17.978216   20.868720 O.co2      1 MOL1        -0.6703
       4    C2      17.252072   19.854861   21.973216 C.3        1 MOL1        -0.1963
       5    H1      16.294986   19.953101   22.498863 H          1 MOL1         0.0750
       6    H2      17.539902   20.861630   21.647026 H          1 MOL1         0.0750
       7    C3      18.318225   19.280732   22.942421 C.3        1 MOL1        -0.1860
       8    H3      18.309169   19.879764   23.861596 H          1 MOL1         0.0752
       9    H4      18.037151   18.257393   23.227330 H          1 MOL1         0.0752
      10    C4      19.739913   19.283423   22.330255 C.3        1 MOL1        -0.1858
      11    H5      20.038040   20.312575   22.087886 H          1 MOL1         0.0752
      12    H6      19.721950   18.735157   21.378383 H          1 MOL1         0.0752
      13    C5      20.808724   18.634855   23.242373 C.3        1 MOL1        -0.1858
      14    H7      20.500911   17.612330   23.499805 H          1 MOL1         0.0752
      15    H8      21.736621   18.543820   22.663677 H          1 MOL1         0.0752
      16    C6      21.088214   19.438843   24.536327 C.3        1 MOL1        -0.1858
      17    H9      20.163417   19.524970   25.120455 H          1 MOL1         0.0752
      18    H10     21.391069   20.462737   24.278379 H          1 MOL1         0.0752
      19    C7      22.164868   18.793370   25.440024 C.3        1 MOL1        -0.1834
      20    H11     22.202289   19.344290   26.389935 H          1 MOL1         0.0752
      21    H12     21.871439   17.764446   25.690052 H          1 MOL1         0.0752
      22    C8      23.575705   18.794411   24.811950 C.3        1 MOL1        -0.2849
      23    H13     23.620038   18.154226   23.922230 H          1 MOL1         0.0764
      24    H14     23.876004   19.809677   24.521839 H          1 MOL1         0.0764
      25    H15     24.315024   18.415757   25.529540 H          1 MOL1         0.0764
@<TRIPOS>BOND
    1     1     2    1
    2     1     3    2
    3     1     4    1
    4     4     5    1
    5     4     6    1
    6     4     7    1
    7     7     8    1
    8     7     9    1
    9     7    10    1
   10    10    11    1
   11    10    12    1
   12    10    13    1
   13    13    14    1
   14    13    15    1
   15    13    16    1
   16    16    17    1
   17    16    18    1
   18    16    19    1
   19    19    20    1
   20    19    21    1
   21    19    22    1
   22    22    23    1
   23    22    24    1
   24    22    25    1
@<TRIPOS>SUBSTRUCTURE
       1 MOL1            1 RESIDUE      1      MOL     
@<SCITEGIC>MOL_PROPERTY
VConf Rank
SciTegic.value.IntegerValue
885

@<SCITEGIC>MOL_PROPERTY
Conf_Id
SciTegic.value.IntegerValue
101

@<SCITEGIC>MOL_PROPERTY
Delta U+W
SciTegic.value.DoubleValue
1.534

@<SCITEGIC>MOL_PROPERTY
U+W
SciTegic.value.DoubleValue
-50.095

@<SCITEGIC>MOL_PROPERTY
Grad RMS
SciTegic.value.DoubleValue
0.000000

@<SCITEGIC>MOL_PROPERTY
U
SciTegic.value.DoubleValue
9.416

@<SCITEGIC>MOL_PROPERTY
W
SciTegic.value.DoubleValue
-59.512

@<SCITEGIC>MOL_PROPERTY
W(PB)
SciTegic.value.DoubleValue
-61.988

@<SCITEGIC>MOL_PROPERTY
W(SA)
SciTegic.value.DoubleValue
2.476

@<SCITEGIC>MOL_PROPERTY
Valence
SciTegic.value.DoubleValue
8.939

@<SCITEGIC>MOL_PROPERTY
Coulomb
SciTegic.value.DoubleValue
-0.615

@<SCITEGIC>MOL_PROPERTY
VdW
SciTegic.value.DoubleValue
1.092

@<SCITEGIC>MOL_PROPERTY
VdW6
SciTegic.value.DoubleValue
-9.710

@<SCITEGIC>MOL_PROPERTY
VdW12
SciTegic.value.DoubleValue
10.802

@<SCITEGIC>MOL_PROPERTY
Bond
SciTegic.value.DoubleValue
0.216

@<SCITEGIC>MOL_PROPERTY
Angle
SciTegic.value.DoubleValue
2.979

@<SCITEGIC>MOL_PROPERTY
Pdih
SciTegic.value.DoubleValue
5.743

@<SCITEGIC>MOL_PROPERTY
Idih
SciTegic.value.DoubleValue
0.000

@<SCITEGIC>MOL_PROPERTY
Tether
SciTegic.value.DoubleValue
0.000

@<TRIPOS>MOLECULE
guest-8_confgen4.mol2 : confsearch ligand conformer 886
          25          24           1
SMALL
USER_CHARGES
 
@<TRIPOS>ATOM
       1    C1      19.905942   23.029633   24.950113 C.2        1 MOL1         0.6168
       2    O1      18.826634   23.504130   24.655694 O.co2      1 MOL1        -0.6703
       3    O2      20.583576   23.423580   25.878764 O.co2      1 MOL1        -0.6703
       4    C2      20.428596   21.860671   24.122751 C.3        1 MOL1        -0.1963
       5    H1      21.523570   21.916991   24.108643 H          1 MOL1         0.0750
       6    H2      20.081858   22.001175   23.092997 H          1 MOL1         0.0750
       7    C3      19.970497   20.484913   24.673198 C.3        1 MOL1        -0.1860
       8    H3      20.249370   20.420962   25.734125 H          1 MOL1         0.0752
       9    H4      18.874205   20.420727   24.636819 H          1 MOL1         0.0752
      10    C4      20.589980   19.279457   23.926321 C.3        1 MOL1        -0.1858
      11    H5      20.321617   18.367418   24.474642 H          1 MOL1         0.0752
      12    H6      21.685701   19.350899   23.955599 H          1 MOL1         0.0752
      13    C5      20.112672   19.153277   22.458616 C.3        1 MOL1        -0.1858
      14    H7      19.017706   19.081091   22.429359 H          1 MOL1         0.0752
      15    H8      20.372212   20.067441   21.910289 H          1 MOL1         0.0752
      16    C6      20.742420   17.954656   21.704242 C.3        1 MOL1        -0.1858
      17    H9      21.831993   18.089808   21.669004 H          1 MOL1         0.0752
      18    H10     20.400869   17.979143   20.660492 H          1 MOL1         0.0752
      19    C7      20.432388   16.557036   22.295849 C.3        1 MOL1        -0.1834
      20    H11     20.934286   15.798378   21.679748 H          1 MOL1         0.0752
      21    H12     20.865815   16.464940   23.300339 H          1 MOL1         0.0752
      22    C8      18.923299   16.234707   22.347786 C.3        1 MOL1        -0.2849
      23    H13     18.463733   16.344142   21.356927 H          1 MOL1         0.0764
      24    H14     18.762174   15.202307   22.683873 H          1 MOL1         0.0764
      25    H15     18.398190   16.897641   23.046970 H          1 MOL1         0.0764
@<TRIPOS>BOND
    1     1     2    1
    2     1     3    2
    3     1     4    1
    4     4     5    1
    5     4     6    1
    6     4     7    1
    7     7     8    1
    8     7     9    1
    9     7    10    1
   10    10    11    1
   11    10    12    1
   12    10    13    1
   13    13    14    1
   14    13    15    1
   15    13    16    1
   16    16    17    1
   17    16    18    1
   18    16    19    1
   19    19    20    1
   20    19    21    1
   21    19    22    1
   22    22    23    1
   23    22    24    1
   24    22    25    1
@<TRIPOS>SUBSTRUCTURE
       1 MOL1            1 RESIDUE      1      MOL     
@<SCITEGIC>MOL_PROPERTY
VConf Rank
SciTegic.value.IntegerValue
886

@<SCITEGIC>MOL_PROPERTY
Conf_Id
SciTegic.value.IntegerValue
75

@<SCITEGIC>MOL_PROPERTY
Delta U+W
SciTegic.value.DoubleValue
1.014

@<SCITEGIC>MOL_PROPERTY
U+W
SciTegic.value.DoubleValue
-50.615

@<SCITEGIC>MOL_PROPERTY
Grad RMS
SciTegic.value.DoubleValue
0.000000

@<SCITEGIC>MOL_PROPERTY
U
SciTegic.value.DoubleValue
8.474

@<SCITEGIC>MOL_PROPERTY
W
SciTegic.value.DoubleValue
-59.089

@<SCITEGIC>MOL_PROPERTY
W(PB)
SciTegic.value.DoubleValue
-61.530

@<SCITEGIC>MOL_PROPERTY
W(SA)
SciTegic.value.DoubleValue
2.441

@<SCITEGIC>MOL_PROPERTY
Valence
SciTegic.value.DoubleValue
9.080

@<SCITEGIC>MOL_PROPERTY
Coulomb
SciTegic.value.DoubleValue
-1.772

@<SCITEGIC>MOL_PROPERTY
VdW
SciTegic.value.DoubleValue
1.165

@<SCITEGIC>MOL_PROPERTY
VdW6
SciTegic.value.DoubleValue
-9.830

@<SCITEGIC>MOL_PROPERTY
VdW12
SciTegic.value.DoubleValue
10.996

@<SCITEGIC>MOL_PROPERTY
Bond
SciTegic.value.DoubleValue
0.240

@<SCITEGIC>MOL_PROPERTY
Angle
SciTegic.value.DoubleValue
3.225

@<SCITEGIC>MOL_PROPERTY
Pdih
SciTegic.value.DoubleValue
5.615

@<SCITEGIC>MOL_PROPERTY
Idih
SciTegic.value.DoubleValue
0.001

@<SCITEGIC>MOL_PROPERTY
Tether
SciTegic.value.DoubleValue
0.000

@<TRIPOS>MOLECULE
guest-8_confgen4.mol2 : confsearch ligand conformer 887
          25          24           1
SMALL
USER_CHARGES
 
@<TRIPOS>ATOM
       1    C1      20.703548   23.223493   24.367374 C.2        1 MOL1         0.6168
       2    O1      19.829278   23.891803   23.851946 O.co2      1 MOL1        -0.6703
       3    O2      21.291093   23.548816   25.380105 O.co2      1 MOL1        -0.6703
       4    C2      21.068776   21.892780   23.719384 C.3        1 MOL1        -0.1963
       5    H1      22.135950   21.710392   23.893840 H          1 MOL1         0.0750
       6    H2      20.929470   21.991805   22.636151 H          1 MOL1         0.0750
       7    C3      20.228722   20.709671   24.260349 C.3        1 MOL1        -0.1860
       8    H3      20.368868   20.631951   25.347462 H          1 MOL1         0.0752
       9    H4      19.162562   20.913972   24.089762 H          1 MOL1         0.0752
      10    C4      20.615975   19.374722   23.587969 C.3        1 MOL1        -0.1858
      11    H5      21.682309   19.174917   23.760663 H          1 MOL1         0.0752
      12    H6      20.484467   19.463762   22.503077 H          1 MOL1         0.0752
      13    C5      19.778388   18.195354   24.135943 C.3        1 MOL1        -0.1858
      14    H7      19.961091   18.119322   25.216570 H          1 MOL1         0.0752
      15    H8      18.705597   18.401890   24.020692 H          1 MOL1         0.0752
      16    C6      20.130758   16.835238   23.481464 C.3        1 MOL1        -0.1858
      17    H9      20.051752   16.055461   24.251253 H          1 MOL1         0.0752
      18    H10     21.180339   16.828790   23.157159 H          1 MOL1         0.0752
      19    C7      19.208543   16.424622   22.306808 C.3        1 MOL1        -0.1834
      20    H11     19.494713   15.417099   21.974882 H          1 MOL1         0.0752
      21    H12     18.171741   16.347820   22.662308 H          1 MOL1         0.0752
      22    C8      19.264699   17.378365   21.095366 C.3        1 MOL1        -0.2849
      23    H13     20.298768   17.527344   20.758513 H          1 MOL1         0.0764
      24    H14     18.690697   16.966235   20.255470 H          1 MOL1         0.0764
      25    H15     18.833073   18.356425   21.341789 H          1 MOL1         0.0764
@<TRIPOS>BOND
    1     1     2    1
    2     1     3    2
    3     1     4    1
    4     4     5    1
    5     4     6    1
    6     4     7    1
    7     7     8    1
    8     7     9    1
    9     7    10    1
   10    10    11    1
   11    10    12    1
   12    10    13    1
   13    13    14    1
   14    13    15    1
   15    13    16    1
   16    16    17    1
   17    16    18    1
   18    16    19    1
   19    19    20    1
   20    19    21    1
   21    19    22    1
   22    22    23    1
   23    22    24    1
   24    22    25    1
@<TRIPOS>SUBSTRUCTURE
       1 MOL1            1 RESIDUE      1      MOL     
@<SCITEGIC>MOL_PROPERTY
VConf Rank
SciTegic.value.IntegerValue
887

@<SCITEGIC>MOL_PROPERTY
Conf_Id
SciTegic.value.IntegerValue
125

@<SCITEGIC>MOL_PROPERTY
Delta U+W
SciTegic.value.DoubleValue
2.314

@<SCITEGIC>MOL_PROPERTY
U+W
SciTegic.value.DoubleValue
-49.315

@<SCITEGIC>MOL_PROPERTY
Grad RMS
SciTegic.value.DoubleValue
0.000000

@<SCITEGIC>MOL_PROPERTY
U
SciTegic.value.DoubleValue
9.740

@<SCITEGIC>MOL_PROPERTY
W
SciTegic.value.DoubleValue
-59.054

@<SCITEGIC>MOL_PROPERTY
W(PB)
SciTegic.value.DoubleValue
-61.488

@<SCITEGIC>MOL_PROPERTY
W(SA)
SciTegic.value.DoubleValue
2.433

@<SCITEGIC>MOL_PROPERTY
Valence
SciTegic.value.DoubleValue
10.506

@<SCITEGIC>MOL_PROPERTY
Coulomb
SciTegic.value.DoubleValue
-1.761

@<SCITEGIC>MOL_PROPERTY
VdW
SciTegic.value.DoubleValue
0.994

@<SCITEGIC>MOL_PROPERTY
VdW6
SciTegic.value.DoubleValue
-9.209

@<SCITEGIC>MOL_PROPERTY
VdW12
SciTegic.value.DoubleValue
10.203

@<SCITEGIC>MOL_PROPERTY
Bond
SciTegic.value.DoubleValue
0.193

@<SCITEGIC>MOL_PROPERTY
Angle
SciTegic.value.DoubleValue
2.979

@<SCITEGIC>MOL_PROPERTY
Pdih
SciTegic.value.DoubleValue
7.334

@<SCITEGIC>MOL_PROPERTY
Idih
SciTegic.value.DoubleValue
0.001

@<SCITEGIC>MOL_PROPERTY
Tether
SciTegic.value.DoubleValue
0.000

@<TRIPOS>MOLECULE
guest-8_confgen4.mol2 : confsearch ligand conformer 888
          25          24           1
SMALL
USER_CHARGES
 
@<TRIPOS>ATOM
       1    C1      22.311512   15.789964   22.514537 C.2        1 MOL1         0.6168
       2    O1      21.640768   14.860691   22.918578 O.co2      1 MOL1        -0.6703
       3    O2      23.453609   15.672672   22.116291 O.co2      1 MOL1        -0.6703
       4    C2      21.694606   17.183946   22.530664 C.3        1 MOL1        -0.1963
       5    H1      20.621223   17.075073   22.339050 H          1 MOL1         0.0750
       6    H2      22.118796   17.753259   21.695021 H          1 MOL1         0.0750
       7    C3      21.938910   17.932241   23.866931 C.3        1 MOL1        -0.1860
       8    H3      21.469057   17.376216   24.689976 H          1 MOL1         0.0752
       9    H4      23.017964   17.940016   24.074362 H          1 MOL1         0.0752
      10    C4      21.424930   19.391675   23.861366 C.3        1 MOL1        -0.1858
      11    H5      21.903718   19.947398   23.043501 H          1 MOL1         0.0752
      12    H6      21.743359   19.876196   24.794508 H          1 MOL1         0.0752
      13    C5      19.887648   19.501981   23.735698 C.3        1 MOL1        -0.1858
      14    H7      19.566498   19.081528   22.775120 H          1 MOL1         0.0752
      15    H8      19.411148   18.904996   24.525077 H          1 MOL1         0.0752
      16    C6      19.411662   20.969538   23.840196 C.3        1 MOL1        -0.1858
      17    H9      19.849795   21.559501   23.023575 H          1 MOL1         0.0752
      18    H10     19.791106   21.403147   24.775530 H          1 MOL1         0.0752
      19    C7      17.872608   21.120162   23.819142 C.3        1 MOL1        -0.1834
      20    H11     17.431347   20.535536   24.638171 H          1 MOL1         0.0752
      21    H12     17.618801   22.170830   24.016383 H          1 MOL1         0.0752
      22    C8      17.234679   20.698507   22.477561 C.3        1 MOL1        -0.2849
      23    H13     17.361762   19.624459   22.293282 H          1 MOL1         0.0764
      24    H14     16.157419   20.909187   22.481915 H          1 MOL1         0.0764
      25    H15     17.683028   21.247692   21.639417 H          1 MOL1         0.0764
@<TRIPOS>BOND
    1     1     2    1
    2     1     3    2
    3     1     4    1
    4     4     5    1
    5     4     6    1
    6     4     7    1
    7     7     8    1
    8     7     9    1
    9     7    10    1
   10    10    11    1
   11    10    12    1
   12    10    13    1
   13    13    14    1
   14    13    15    1
   15    13    16    1
   16    16    17    1
   17    16    18    1
   18    16    19    1
   19    19    20    1
   20    19    21    1
   21    19    22    1
   22    22    23    1
   23    22    24    1
   24    22    25    1
@<TRIPOS>SUBSTRUCTURE
       1 MOL1            1 RESIDUE      1      MOL     
@<SCITEGIC>MOL_PROPERTY
VConf Rank
SciTegic.value.IntegerValue
888

@<SCITEGIC>MOL_PROPERTY
Conf_Id
SciTegic.value.IntegerValue
4

@<SCITEGIC>MOL_PROPERTY
Delta U+W
SciTegic.value.DoubleValue
0.189

@<SCITEGIC>MOL_PROPERTY
U+W
SciTegic.value.DoubleValue
-51.441

@<SCITEGIC>MOL_PROPERTY
Grad RMS
SciTegic.value.DoubleValue
0.000000

@<SCITEGIC>MOL_PROPERTY
U
SciTegic.value.DoubleValue
7.701

@<SCITEGIC>MOL_PROPERTY
W
SciTegic.value.DoubleValue
-59.141

@<SCITEGIC>MOL_PROPERTY
W(PB)
SciTegic.value.DoubleValue
-61.609

@<SCITEGIC>MOL_PROPERTY
W(SA)
SciTegic.value.DoubleValue
2.467

@<SCITEGIC>MOL_PROPERTY
Valence
SciTegic.value.DoubleValue
8.550

@<SCITEGIC>MOL_PROPERTY
Coulomb
SciTegic.value.DoubleValue
-1.988

@<SCITEGIC>MOL_PROPERTY
VdW
SciTegic.value.DoubleValue
1.139

@<SCITEGIC>MOL_PROPERTY
VdW6
SciTegic.value.DoubleValue
-8.988

@<SCITEGIC>MOL_PROPERTY
VdW12
SciTegic.value.DoubleValue
10.127

@<SCITEGIC>MOL_PROPERTY
Bond
SciTegic.value.DoubleValue
0.191

@<SCITEGIC>MOL_PROPERTY
Angle
SciTegic.value.DoubleValue
2.738

@<SCITEGIC>MOL_PROPERTY
Pdih
SciTegic.value.DoubleValue
5.621

@<SCITEGIC>MOL_PROPERTY
Idih
SciTegic.value.DoubleValue
0.001

@<SCITEGIC>MOL_PROPERTY
Tether
SciTegic.value.DoubleValue
0.000

@<TRIPOS>MOLECULE
guest-8_confgen4.mol2 : confsearch ligand conformer 889
          25          24           1
SMALL
USER_CHARGES
 
@<TRIPOS>ATOM
       1    C1      18.103166   20.037426   19.790585 C.2        1 MOL1         0.6168
       2    O1      16.947990   19.707868   19.974042 O.co2      1 MOL1        -0.6703
       3    O2      18.486190   20.624149   18.797716 O.co2      1 MOL1        -0.6703
       4    C2      19.124285   19.718064   20.876562 C.3        1 MOL1        -0.1963
       5    H1      20.093070   19.546242   20.392527 H          1 MOL1         0.0750
       6    H2      18.824336   18.775787   21.348649 H          1 MOL1         0.0750
       7    C3      19.246882   20.845508   21.934427 C.3        1 MOL1        -0.1860
       8    H3      19.454665   21.792691   21.417592 H          1 MOL1         0.0752
       9    H4      18.282675   20.975990   22.444925 H          1 MOL1         0.0752
      10    C4      20.361543   20.595705   22.978115 C.3        1 MOL1        -0.1858
      11    H5      20.454367   21.490392   23.608852 H          1 MOL1         0.0752
      12    H6      21.325683   20.475533   22.465312 H          1 MOL1         0.0752
      13    C5      20.095417   19.368577   23.880627 C.3        1 MOL1        -0.1858
      14    H7      19.108929   19.467810   24.353445 H          1 MOL1         0.0752
      15    H8      20.068983   18.460095   23.266960 H          1 MOL1         0.0752
      16    C6      21.179001   19.220068   24.973785 C.3        1 MOL1        -0.1858
      17    H9      21.243391   20.157116   25.543557 H          1 MOL1         0.0752
      18    H10     22.161060   19.073748   24.503638 H          1 MOL1         0.0752
      19    C7      20.901288   18.063543   25.962289 C.3        1 MOL1        -0.1834
      20    H11     21.646819   18.102559   26.768446 H          1 MOL1         0.0752
      21    H12     19.921833   18.209502   26.438390 H          1 MOL1         0.0752
      22    C8      20.955536   16.668338   25.302707 C.3        1 MOL1        -0.2849
      23    H13     21.914931   16.511820   24.792635 H          1 MOL1         0.0764
      24    H14     20.842963   15.881416   26.059659 H          1 MOL1         0.0764
      25    H15     20.150061   16.540237   24.568890 H          1 MOL1         0.0764
@<TRIPOS>BOND
    1     1     2    1
    2     1     3    2
    3     1     4    1
    4     4     5    1
    5     4     6    1
    6     4     7    1
    7     7     8    1
    8     7     9    1
    9     7    10    1
   10    10    11    1
   11    10    12    1
   12    10    13    1
   13    13    14    1
   14    13    15    1
   15    13    16    1
   16    16    17    1
   17    16    18    1
   18    16    19    1
   19    19    20    1
   20    19    21    1
   21    19    22    1
   22    22    23    1
   23    22    24    1
   24    22    25    1
@<TRIPOS>SUBSTRUCTURE
       1 MOL1            1 RESIDUE      1      MOL     
@<SCITEGIC>MOL_PROPERTY
VConf Rank
SciTegic.value.IntegerValue
889

@<SCITEGIC>MOL_PROPERTY
Conf_Id
SciTegic.value.IntegerValue
17

@<SCITEGIC>MOL_PROPERTY
Delta U+W
SciTegic.value.DoubleValue
0.219

@<SCITEGIC>MOL_PROPERTY
U+W
SciTegic.value.DoubleValue
-51.411

@<SCITEGIC>MOL_PROPERTY
Grad RMS
SciTegic.value.DoubleValue
0.000000

@<SCITEGIC>MOL_PROPERTY
U
SciTegic.value.DoubleValue
7.701

@<SCITEGIC>MOL_PROPERTY
W
SciTegic.value.DoubleValue
-59.111

@<SCITEGIC>MOL_PROPERTY
W(PB)
SciTegic.value.DoubleValue
-61.599

@<SCITEGIC>MOL_PROPERTY
W(SA)
SciTegic.value.DoubleValue
2.488

@<SCITEGIC>MOL_PROPERTY
Valence
SciTegic.value.DoubleValue
8.550

@<SCITEGIC>MOL_PROPERTY
Coulomb
SciTegic.value.DoubleValue
-1.988

@<SCITEGIC>MOL_PROPERTY
VdW
SciTegic.value.DoubleValue
1.139

@<SCITEGIC>MOL_PROPERTY
VdW6
SciTegic.value.DoubleValue
-8.988

@<SCITEGIC>MOL_PROPERTY
VdW12
SciTegic.value.DoubleValue
10.127

@<SCITEGIC>MOL_PROPERTY
Bond
SciTegic.value.DoubleValue
0.191

@<SCITEGIC>MOL_PROPERTY
Angle
SciTegic.value.DoubleValue
2.738

@<SCITEGIC>MOL_PROPERTY
Pdih
SciTegic.value.DoubleValue
5.621

@<SCITEGIC>MOL_PROPERTY
Idih
SciTegic.value.DoubleValue
0.001

@<SCITEGIC>MOL_PROPERTY
Tether
SciTegic.value.DoubleValue
0.000

@<TRIPOS>MOLECULE
guest-8_confgen4.mol2 : confsearch ligand conformer 890
          25          24           1
SMALL
USER_CHARGES
 
@<TRIPOS>ATOM
       1    C1      20.774721   22.954281   24.156364 C.2        1 MOL1         0.6168
       2    O1      20.728904   23.155934   25.353986 O.co2      1 MOL1        -0.6703
       3    O2      20.018713   23.471487   23.357599 O.co2      1 MOL1        -0.6703
       4    C2      21.852464   22.015284   23.621867 C.3        1 MOL1        -0.1963
       5    H1      22.644122   21.926082   24.375587 H          1 MOL1         0.0750
       6    H2      22.301840   22.496390   22.745179 H          1 MOL1         0.0750
       7    C3      21.324805   20.611004   23.228838 C.3        1 MOL1        -0.1860
       8    H3      20.521693   20.727378   22.489152 H          1 MOL1         0.0752
       9    H4      22.131714   20.051454   22.736836 H          1 MOL1         0.0752
      10    C4      20.815909   19.807046   24.449259 C.3        1 MOL1        -0.1858
      11    H5      19.961358   20.324343   24.906934 H          1 MOL1         0.0752
      12    H6      21.605289   19.779335   25.212777 H          1 MOL1         0.0752
      13    C5      20.413945   18.353181   24.105134 C.3        1 MOL1        -0.1858
      14    H7      21.269605   17.831224   23.655405 H          1 MOL1         0.0752
      15    H8      20.184832   17.825178   25.040858 H          1 MOL1         0.0752
      16    C6      19.191461   18.258788   23.162981 C.3        1 MOL1        -0.1858
      17    H9      19.429079   18.715946   22.193716 H          1 MOL1         0.0752
      18    H10     18.354369   18.828014   23.589776 H          1 MOL1         0.0752
      19    C7      18.757094   16.795195   22.937219 C.3        1 MOL1        -0.1834
      20    H11     19.592976   16.222548   22.511970 H          1 MOL1         0.0752
      21    H12     18.508256   16.329259   23.900757 H          1 MOL1         0.0752
      22    C8      17.540301   16.702504   21.994593 C.3        1 MOL1        -0.2849
      23    H13     17.771506   17.132628   21.011272 H          1 MOL1         0.0764
      24    H14     17.245035   15.655747   21.845678 H          1 MOL1         0.0764
      25    H15     16.679210   17.241705   22.410724 H          1 MOL1         0.0764
@<TRIPOS>BOND
    1     1     2    1
    2     1     3    2
    3     1     4    1
    4     4     5    1
    5     4     6    1
    6     4     7    1
    7     7     8    1
    8     7     9    1
    9     7    10    1
   10    10    11    1
   11    10    12    1
   12    10    13    1
   13    13    14    1
   14    13    15    1
   15    13    16    1
   16    16    17    1
   17    16    18    1
   18    16    19    1
   19    19    20    1
   20    19    21    1
   21    19    22    1
   22    22    23    1
   23    22    24    1
   24    22    25    1
@<TRIPOS>SUBSTRUCTURE
       1 MOL1            1 RESIDUE      1      MOL     
@<SCITEGIC>MOL_PROPERTY
VConf Rank
SciTegic.value.IntegerValue
890

@<SCITEGIC>MOL_PROPERTY
Conf_Id
SciTegic.value.IntegerValue
142

@<SCITEGIC>MOL_PROPERTY
Delta U+W
SciTegic.value.DoubleValue
0.593

@<SCITEGIC>MOL_PROPERTY
U+W
SciTegic.value.DoubleValue
-51.037

@<SCITEGIC>MOL_PROPERTY
Grad RMS
SciTegic.value.DoubleValue
0.000000

@<SCITEGIC>MOL_PROPERTY
U
SciTegic.value.DoubleValue
8.903

@<SCITEGIC>MOL_PROPERTY
W
SciTegic.value.DoubleValue
-59.940

@<SCITEGIC>MOL_PROPERTY
W(PB)
SciTegic.value.DoubleValue
-62.418

@<SCITEGIC>MOL_PROPERTY
W(SA)
SciTegic.value.DoubleValue
2.478

@<SCITEGIC>MOL_PROPERTY
Valence
SciTegic.value.DoubleValue
8.305

@<SCITEGIC>MOL_PROPERTY
Coulomb
SciTegic.value.DoubleValue
-0.223

@<SCITEGIC>MOL_PROPERTY
VdW
SciTegic.value.DoubleValue
0.821

@<SCITEGIC>MOL_PROPERTY
VdW6
SciTegic.value.DoubleValue
-9.236

@<SCITEGIC>MOL_PROPERTY
VdW12
SciTegic.value.DoubleValue
10.057

@<SCITEGIC>MOL_PROPERTY
Bond
SciTegic.value.DoubleValue
0.173

@<SCITEGIC>MOL_PROPERTY
Angle
SciTegic.value.DoubleValue
2.663

@<SCITEGIC>MOL_PROPERTY
Pdih
SciTegic.value.DoubleValue
5.469

@<SCITEGIC>MOL_PROPERTY
Idih
SciTegic.value.DoubleValue
0.001

@<SCITEGIC>MOL_PROPERTY
Tether
SciTegic.value.DoubleValue
0.000

@<TRIPOS>MOLECULE
guest-8_confgen4.mol2 : confsearch ligand conformer 891
          25          24           1
SMALL
USER_CHARGES
 
@<TRIPOS>ATOM
       1    C1      21.929537   16.700059   21.563314 C.2        1 MOL1         0.6168
       2    O1      22.776038   16.617387   20.694890 O.co2      1 MOL1        -0.6703
       3    O2      21.895174   15.976629   22.539287 O.co2      1 MOL1        -0.6703
       4    C2      20.835859   17.752202   21.402684 C.3        1 MOL1        -0.1963
       5    H1      20.019211   17.518804   22.095438 H          1 MOL1         0.0750
       6    H2      20.425785   17.644907   20.391820 H          1 MOL1         0.0750
       7    C3      21.325516   19.211882   21.606895 C.3        1 MOL1        -0.1860
       8    H3      22.093618   19.434016   20.853336 H          1 MOL1         0.0752
       9    H4      20.497150   19.902919   21.404102 H          1 MOL1         0.0752
      10    C4      21.913080   19.499766   23.012788 C.3        1 MOL1        -0.1858
      11    H5      22.233923   20.549560   23.052640 H          1 MOL1         0.0752
      12    H6      22.824087   18.900929   23.148971 H          1 MOL1         0.0752
      13    C5      20.956590   19.222117   24.199534 C.3        1 MOL1        -0.1858
      14    H7      20.714212   18.151759   24.241259 H          1 MOL1         0.0752
      15    H8      21.490112   19.448124   25.132705 H          1 MOL1         0.0752
      16    C6      19.653966   20.053689   24.151316 C.3        1 MOL1        -0.1858
      17    H9      19.072975   19.785738   23.259265 H          1 MOL1         0.0752
      18    H10     19.902260   21.120281   24.065252 H          1 MOL1         0.0752
      19    C7      18.784988   19.825639   25.406030 C.3        1 MOL1        -0.1834
      20    H11     18.537675   18.758720   25.495448 H          1 MOL1         0.0752
      21    H12     19.353900   20.098115   26.305736 H          1 MOL1         0.0752
      22    C8      17.483506   20.650921   25.353618 C.3        1 MOL1        -0.2849
      23    H13     16.878782   20.375506   24.479649 H          1 MOL1         0.0764
      24    H14     16.878485   20.476846   26.252885 H          1 MOL1         0.0764
      25    H15     17.701915   21.725245   25.294632 H          1 MOL1         0.0764
@<TRIPOS>BOND
    1     1     2    1
    2     1     3    2
    3     1     4    1
    4     4     5    1
    5     4     6    1
    6     4     7    1
    7     7     8    1
    8     7     9    1
    9     7    10    1
   10    10    11    1
   11    10    12    1
   12    10    13    1
   13    13    14    1
   14    13    15    1
   15    13    16    1
   16    16    17    1
   17    16    18    1
   18    16    19    1
   19    19    20    1
   20    19    21    1
   21    19    22    1
   22    22    23    1
   23    22    24    1
   24    22    25    1
@<TRIPOS>SUBSTRUCTURE
       1 MOL1            1 RESIDUE      1      MOL     
@<SCITEGIC>MOL_PROPERTY
VConf Rank
SciTegic.value.IntegerValue
891

@<SCITEGIC>MOL_PROPERTY
Conf_Id
SciTegic.value.IntegerValue
135

@<SCITEGIC>MOL_PROPERTY
Delta U+W
SciTegic.value.DoubleValue
1.314

@<SCITEGIC>MOL_PROPERTY
U+W
SciTegic.value.DoubleValue
-50.316

@<SCITEGIC>MOL_PROPERTY
Grad RMS
SciTegic.value.DoubleValue
0.000000

@<SCITEGIC>MOL_PROPERTY
U
SciTegic.value.DoubleValue
9.773

@<SCITEGIC>MOL_PROPERTY
W
SciTegic.value.DoubleValue
-60.088

@<SCITEGIC>MOL_PROPERTY
W(PB)
SciTegic.value.DoubleValue
-62.535

@<SCITEGIC>MOL_PROPERTY
W(SA)
SciTegic.value.DoubleValue
2.447

@<SCITEGIC>MOL_PROPERTY
Valence
SciTegic.value.DoubleValue
8.741

@<SCITEGIC>MOL_PROPERTY
Coulomb
SciTegic.value.DoubleValue
0.479

@<SCITEGIC>MOL_PROPERTY
VdW
SciTegic.value.DoubleValue
0.552

@<SCITEGIC>MOL_PROPERTY
VdW6
SciTegic.value.DoubleValue
-10.627

@<SCITEGIC>MOL_PROPERTY
VdW12
SciTegic.value.DoubleValue
11.179

@<SCITEGIC>MOL_PROPERTY
Bond
SciTegic.value.DoubleValue
0.227

@<SCITEGIC>MOL_PROPERTY
Angle
SciTegic.value.DoubleValue
3.155

@<SCITEGIC>MOL_PROPERTY
Pdih
SciTegic.value.DoubleValue
5.358

@<SCITEGIC>MOL_PROPERTY
Idih
SciTegic.value.DoubleValue
0.001

@<SCITEGIC>MOL_PROPERTY
Tether
SciTegic.value.DoubleValue
0.000

@<TRIPOS>MOLECULE
guest-8_confgen4.mol2 : confsearch ligand conformer 892
          25          24           1
SMALL
USER_CHARGES
 
@<TRIPOS>ATOM
       1    C1      22.346383   22.604322   24.296709 C.2        1 MOL1         0.6168
       2    O1      23.540579   22.470138   24.116071 O.co2      1 MOL1        -0.6703
       3    O2      21.798374   23.684095   24.399411 O.co2      1 MOL1        -0.6703
       4    C2      21.484565   21.349280   24.376216 C.3        1 MOL1        -0.1963
       5    H1      20.645710   21.555480   25.051607 H          1 MOL1         0.0750
       6    H2      22.088343   20.560621   24.838429 H          1 MOL1         0.0750
       7    C3      20.956462   20.896462   22.989893 C.3        1 MOL1        -0.1860
       8    H3      20.441201   21.744405   22.517723 H          1 MOL1         0.0752
       9    H4      21.803711   20.646339   22.336526 H          1 MOL1         0.0752
      10    C4      19.976716   19.700498   23.058468 C.3        1 MOL1        -0.1858
      11    H5      19.545525   19.561208   22.059137 H          1 MOL1         0.0752
      12    H6      19.143536   19.943262   23.731858 H          1 MOL1         0.0752
      13    C5      20.646582   18.379408   23.506200 C.3        1 MOL1        -0.1858
      14    H7      21.439522   18.113450   22.794085 H          1 MOL1         0.0752
      15    H8      21.139301   18.527523   24.475098 H          1 MOL1         0.0752
      16    C6      19.666202   17.188238   23.652612 C.3        1 MOL1        -0.1858
      17    H9      18.922730   17.406706   24.431346 H          1 MOL1         0.0752
      18    H10     20.242862   16.330128   24.024074 H          1 MOL1         0.0752
      19    C7      18.960298   16.762369   22.340920 C.3        1 MOL1        -0.1834
      20    H11     19.576630   17.030270   21.471668 H          1 MOL1         0.0752
      21    H12     18.874046   15.667068   22.327577 H          1 MOL1         0.0752
      22    C8      17.540846   17.354914   22.194928 C.3        1 MOL1        -0.2849
      23    H13     17.554261   18.450783   22.191898 H          1 MOL1         0.0764
      24    H14     17.080523   17.022301   21.255632 H          1 MOL1         0.0764
      25    H15     16.894806   17.027107   23.019704 H          1 MOL1         0.0764
@<TRIPOS>BOND
    1     1     2    1
    2     1     3    2
    3     1     4    1
    4     4     5    1
    5     4     6    1
    6     4     7    1
    7     7     8    1
    8     7     9    1
    9     7    10    1
   10    10    11    1
   11    10    12    1
   12    10    13    1
   13    13    14    1
   14    13    15    1
   15    13    16    1
   16    16    17    1
   17    16    18    1
   18    16    19    1
   19    19    20    1
   20    19    21    1
   21    19    22    1
   22    22    23    1
   23    22    24    1
   24    22    25    1
@<TRIPOS>SUBSTRUCTURE
       1 MOL1            1 RESIDUE      1      MOL     
@<SCITEGIC>MOL_PROPERTY
VConf Rank
SciTegic.value.IntegerValue
892

@<SCITEGIC>MOL_PROPERTY
Conf_Id
SciTegic.value.IntegerValue
19

@<SCITEGIC>MOL_PROPERTY
Delta U+W
SciTegic.value.DoubleValue
3.222

@<SCITEGIC>MOL_PROPERTY
U+W
SciTegic.value.DoubleValue
-48.407

@<SCITEGIC>MOL_PROPERTY
Grad RMS
SciTegic.value.DoubleValue
0.000000

@<SCITEGIC>MOL_PROPERTY
U
SciTegic.value.DoubleValue
10.617

@<SCITEGIC>MOL_PROPERTY
W
SciTegic.value.DoubleValue
-59.025

@<SCITEGIC>MOL_PROPERTY
W(PB)
SciTegic.value.DoubleValue
-61.462

@<SCITEGIC>MOL_PROPERTY
W(SA)
SciTegic.value.DoubleValue
2.437

@<SCITEGIC>MOL_PROPERTY
Valence
SciTegic.value.DoubleValue
11.188

@<SCITEGIC>MOL_PROPERTY
Coulomb
SciTegic.value.DoubleValue
-1.778

@<SCITEGIC>MOL_PROPERTY
VdW
SciTegic.value.DoubleValue
1.208

@<SCITEGIC>MOL_PROPERTY
VdW6
SciTegic.value.DoubleValue
-9.786

@<SCITEGIC>MOL_PROPERTY
VdW12
SciTegic.value.DoubleValue
10.993

@<SCITEGIC>MOL_PROPERTY
Bond
SciTegic.value.DoubleValue
0.241

@<SCITEGIC>MOL_PROPERTY
Angle
SciTegic.value.DoubleValue
3.294

@<SCITEGIC>MOL_PROPERTY
Pdih
SciTegic.value.DoubleValue
7.653

@<SCITEGIC>MOL_PROPERTY
Idih
SciTegic.value.DoubleValue
0.001

@<SCITEGIC>MOL_PROPERTY
Tether
SciTegic.value.DoubleValue
0.000

@<TRIPOS>MOLECULE
guest-8_confgen4.mol2 : confsearch ligand conformer 893
          25          24           1
SMALL
USER_CHARGES
 
@<TRIPOS>ATOM
       1    C1      17.728904   19.101223   26.744129 C.2        1 MOL1         0.6168
       2    O1      18.087757   18.267389   27.552018 O.co2      1 MOL1        -0.6703
       3    O2      16.619026   19.596063   26.735504 O.co2      1 MOL1        -0.6703
       4    C2      18.718063   19.533394   25.667571 C.3        1 MOL1        -0.1963
       5    H1      19.721695   19.498084   26.105346 H          1 MOL1         0.0750
       6    H2      18.509431   20.579817   25.414948 H          1 MOL1         0.0750
       7    C3      18.641864   18.650270   24.394734 C.3        1 MOL1        -0.1860
       8    H3      18.899474   17.613051   24.649873 H          1 MOL1         0.0752
       9    H4      17.601130   18.633094   24.042561 H          1 MOL1         0.0752
      10    C4      19.544980   19.145580   23.239751 C.3        1 MOL1        -0.1858
      11    H5      19.302958   20.190615   23.003302 H          1 MOL1         0.0752
      12    H6      19.303435   18.555130   22.346995 H          1 MOL1         0.0752
      13    C5      21.057343   19.010919   23.538230 C.3        1 MOL1        -0.1858
      14    H7      21.296999   19.542603   24.467399 H          1 MOL1         0.0752
      15    H8      21.301055   17.954588   23.715336 H          1 MOL1         0.0752
      16    C6      21.976808   19.570895   22.423562 C.3        1 MOL1        -0.1858
      17    H9      23.014403   19.469811   22.770044 H          1 MOL1         0.0752
      18    H10     21.807139   20.649566   22.302788 H          1 MOL1         0.0752
      19    C7      21.853420   18.851810   21.056853 C.3        1 MOL1        -0.1834
      20    H11     22.851785   18.785894   20.602734 H          1 MOL1         0.0752
      21    H12     21.514520   17.816453   21.199741 H          1 MOL1         0.0752
      22    C8      20.925273   19.587800   20.064822 C.3        1 MOL1        -0.2849
      23    H13     21.301110   20.597702   19.855232 H          1 MOL1         0.0764
      24    H14     20.873315   19.044781   19.112332 H          1 MOL1         0.0764
      25    H15     19.904759   19.681441   20.453284 H          1 MOL1         0.0764
@<TRIPOS>BOND
    1     1     2    1
    2     1     3    2
    3     1     4    1
    4     4     5    1
    5     4     6    1
    6     4     7    1
    7     7     8    1
    8     7     9    1
    9     7    10    1
   10    10    11    1
   11    10    12    1
   12    10    13    1
   13    13    14    1
   14    13    15    1
   15    13    16    1
   16    16    17    1
   17    16    18    1
   18    16    19    1
   19    19    20    1
   20    19    21    1
   21    19    22    1
   22    22    23    1
   23    22    24    1
   24    22    25    1
@<TRIPOS>SUBSTRUCTURE
       1 MOL1            1 RESIDUE      1      MOL     
@<SCITEGIC>MOL_PROPERTY
VConf Rank
SciTegic.value.IntegerValue
893

@<SCITEGIC>MOL_PROPERTY
Conf_Id
SciTegic.value.IntegerValue
20

@<SCITEGIC>MOL_PROPERTY
Delta U+W
SciTegic.value.DoubleValue
3.224

@<SCITEGIC>MOL_PROPERTY
U+W
SciTegic.value.DoubleValue
-48.406

@<SCITEGIC>MOL_PROPERTY
Grad RMS
SciTegic.value.DoubleValue
0.000000

@<SCITEGIC>MOL_PROPERTY
U
SciTegic.value.DoubleValue
10.617

@<SCITEGIC>MOL_PROPERTY
W
SciTegic.value.DoubleValue
-59.023

@<SCITEGIC>MOL_PROPERTY
W(PB)
SciTegic.value.DoubleValue
-61.467

@<SCITEGIC>MOL_PROPERTY
W(SA)
SciTegic.value.DoubleValue
2.444

@<SCITEGIC>MOL_PROPERTY
Valence
SciTegic.value.DoubleValue
11.188

@<SCITEGIC>MOL_PROPERTY
Coulomb
SciTegic.value.DoubleValue
-1.778

@<SCITEGIC>MOL_PROPERTY
VdW
SciTegic.value.DoubleValue
1.208

@<SCITEGIC>MOL_PROPERTY
VdW6
SciTegic.value.DoubleValue
-9.786

@<SCITEGIC>MOL_PROPERTY
VdW12
SciTegic.value.DoubleValue
10.993

@<SCITEGIC>MOL_PROPERTY
Bond
SciTegic.value.DoubleValue
0.241

@<SCITEGIC>MOL_PROPERTY
Angle
SciTegic.value.DoubleValue
3.294

@<SCITEGIC>MOL_PROPERTY
Pdih
SciTegic.value.DoubleValue
7.653

@<SCITEGIC>MOL_PROPERTY
Idih
SciTegic.value.DoubleValue
0.001

@<SCITEGIC>MOL_PROPERTY
Tether
SciTegic.value.DoubleValue
0.000

@<TRIPOS>MOLECULE
guest-8_confgen4.mol2 : confsearch ligand conformer 894
          25          24           1
SMALL
USER_CHARGES
 
@<TRIPOS>ATOM
       1    C1      19.712216   21.953875   21.828475 C.2        1 MOL1         0.6168
       2    O1      20.762189   22.540177   22.005823 O.co2      1 MOL1        -0.6703
       3    O2      18.670444   22.264735   22.371885 O.co2      1 MOL1        -0.6703
       4    C2      19.683571   20.807137   20.819732 C.3        1 MOL1        -0.1963
       5    H1      19.927216   21.247411   19.845944 H          1 MOL1         0.0750
       6    H2      18.658476   20.424809   20.743619 H          1 MOL1         0.0750
       7    C3      20.672409   19.643145   21.110304 C.3        1 MOL1        -0.1860
       8    H3      20.829769   19.090331   20.174321 H          1 MOL1         0.0752
       9    H4      21.654912   20.047579   21.390863 H          1 MOL1         0.0752
      10    C4      20.189414   18.632045   22.179639 C.3        1 MOL1        -0.1858
      11    H5      20.888395   17.784508   22.189150 H          1 MOL1         0.0752
      12    H6      19.212640   18.223053   21.887283 H          1 MOL1         0.0752
      13    C5      20.100694   19.218395   23.606858 C.3        1 MOL1        -0.1858
      14    H7      21.045247   19.719606   23.859154 H          1 MOL1         0.0752
      15    H8      19.311505   19.979601   23.648666 H          1 MOL1         0.0752
      16    C6      19.798231   18.125909   24.655457 C.3        1 MOL1        -0.1858
      17    H9      20.587006   17.361656   24.628670 H          1 MOL1         0.0752
      18    H10     18.855948   17.622636   24.398840 H          1 MOL1         0.0752
      19    C7      19.698132   18.712101   26.079442 C.3        1 MOL1        -0.1834
      20    H11     20.639564   19.215617   26.339511 H          1 MOL1         0.0752
      21    H12     18.908764   19.475996   26.110556 H          1 MOL1         0.0752
      22    C8      19.395531   17.619123   27.124191 C.3        1 MOL1        -0.2849
      23    H13     20.186369   16.857678   27.136363 H          1 MOL1         0.0764
      24    H14     19.327813   18.053541   28.130054 H          1 MOL1         0.0764
      25    H15     18.442354   17.120059   26.905645 H          1 MOL1         0.0764
@<TRIPOS>BOND
    1     1     2    1
    2     1     3    2
    3     1     4    1
    4     4     5    1
    5     4     6    1
    6     4     7    1
    7     7     8    1
    8     7     9    1
    9     7    10    1
   10    10    11    1
   11    10    12    1
   12    10    13    1
   13    13    14    1
   14    13    15    1
   15    13    16    1
   16    16    17    1
   17    16    18    1
   18    16    19    1
   19    19    20    1
   20    19    21    1
   21    19    22    1
   22    22    23    1
   23    22    24    1
   24    22    25    1
@<TRIPOS>SUBSTRUCTURE
       1 MOL1            1 RESIDUE      1      MOL     
@<SCITEGIC>MOL_PROPERTY
VConf Rank
SciTegic.value.IntegerValue
894

@<SCITEGIC>MOL_PROPERTY
Conf_Id
SciTegic.value.IntegerValue
24

@<SCITEGIC>MOL_PROPERTY
Delta U+W
SciTegic.value.DoubleValue
1.784

@<SCITEGIC>MOL_PROPERTY
U+W
SciTegic.value.DoubleValue
-49.846

@<SCITEGIC>MOL_PROPERTY
Grad RMS
SciTegic.value.DoubleValue
0.000000

@<SCITEGIC>MOL_PROPERTY
U
SciTegic.value.DoubleValue
10.904

@<SCITEGIC>MOL_PROPERTY
W
SciTegic.value.DoubleValue
-60.749

@<SCITEGIC>MOL_PROPERTY
W(PB)
SciTegic.value.DoubleValue
-63.220

@<SCITEGIC>MOL_PROPERTY
W(SA)
SciTegic.value.DoubleValue
2.471

@<SCITEGIC>MOL_PROPERTY
Valence
SciTegic.value.DoubleValue
9.445

@<SCITEGIC>MOL_PROPERTY
Coulomb
SciTegic.value.DoubleValue
0.780

@<SCITEGIC>MOL_PROPERTY
VdW
SciTegic.value.DoubleValue
0.679

@<SCITEGIC>MOL_PROPERTY
VdW6
SciTegic.value.DoubleValue
-10.008

@<SCITEGIC>MOL_PROPERTY
VdW12
SciTegic.value.DoubleValue
10.687

@<SCITEGIC>MOL_PROPERTY
Bond
SciTegic.value.DoubleValue
0.201

@<SCITEGIC>MOL_PROPERTY
Angle
SciTegic.value.DoubleValue
3.198

@<SCITEGIC>MOL_PROPERTY
Pdih
SciTegic.value.DoubleValue
6.039

@<SCITEGIC>MOL_PROPERTY
Idih
SciTegic.value.DoubleValue
0.006

@<SCITEGIC>MOL_PROPERTY
Tether
SciTegic.value.DoubleValue
0.000

@<TRIPOS>MOLECULE
guest-8_confgen4.mol2 : confsearch ligand conformer 895
          25          24           1
SMALL
USER_CHARGES
 
@<TRIPOS>ATOM
       1    C1      17.672980   17.621372   22.079749 C.2        1 MOL1         0.6168
       2    O1      17.336692   18.392127   21.201973 O.co2      1 MOL1        -0.6703
       3    O2      18.324954   16.616080   21.875949 O.co2      1 MOL1        -0.6703
       4    C2      17.195754   17.893089   23.505167 C.3        1 MOL1        -0.1963
       5    H1      17.541593   17.082200   24.157578 H          1 MOL1         0.0750
       6    H2      16.101671   17.831022   23.480745 H          1 MOL1         0.0750
       7    C3      17.611287   19.271329   24.092441 C.3        1 MOL1        -0.1860
       8    H3      17.451559   20.060593   23.344681 H          1 MOL1         0.0752
       9    H4      16.933771   19.503175   24.925297 H          1 MOL1         0.0752
      10    C4      19.061635   19.336926   24.632138 C.3        1 MOL1        -0.1858
      11    H5      19.210841   18.553348   25.387505 H          1 MOL1         0.0752
      12    H6      19.189579   20.295792   25.152896 H          1 MOL1         0.0752
      13    C5      20.147086   19.217244   23.538475 C.3        1 MOL1        -0.1858
      14    H7      20.120466   18.213853   23.095185 H          1 MOL1         0.0752
      15    H8      19.937327   19.931825   22.730750 H          1 MOL1         0.0752
      16    C6      21.559953   19.476637   24.105123 C.3        1 MOL1        -0.1858
      17    H9      21.765982   18.764395   24.915860 H          1 MOL1         0.0752
      18    H10     21.601199   20.482680   24.544603 H          1 MOL1         0.0752
      19    C7      22.645637   19.346079   23.016262 C.3        1 MOL1        -0.1834
      20    H11     22.608604   18.340133   22.575460 H          1 MOL1         0.0752
      21    H12     22.442772   20.057809   22.204017 H          1 MOL1         0.0752
      22    C8      24.055272   19.605189   23.584997 C.3        1 MOL1        -0.2849
      23    H13     24.296734   18.886246   24.378843 H          1 MOL1         0.0764
      24    H14     24.813991   19.508121   22.797604 H          1 MOL1         0.0764
      25    H15     24.129671   20.617037   24.004520 H          1 MOL1         0.0764
@<TRIPOS>BOND
    1     1     2    1
    2     1     3    2
    3     1     4    1
    4     4     5    1
    5     4     6    1
    6     4     7    1
    7     7     8    1
    8     7     9    1
    9     7    10    1
   10    10    11    1
   11    10    12    1
   12    10    13    1
   13    13    14    1
   14    13    15    1
   15    13    16    1
   16    16    17    1
   17    16    18    1
   18    16    19    1
   19    19    20    1
   20    19    21    1
   21    19    22    1
   22    22    23    1
   23    22    24    1
   24    22    25    1
@<TRIPOS>SUBSTRUCTURE
       1 MOL1            1 RESIDUE      1      MOL     
@<SCITEGIC>MOL_PROPERTY
VConf Rank
SciTegic.value.IntegerValue
895

@<SCITEGIC>MOL_PROPERTY
Conf_Id
SciTegic.value.IntegerValue
9

@<SCITEGIC>MOL_PROPERTY
Delta U+W
SciTegic.value.DoubleValue
1.764

@<SCITEGIC>MOL_PROPERTY
U+W
SciTegic.value.DoubleValue
-49.865

@<SCITEGIC>MOL_PROPERTY
Grad RMS
SciTegic.value.DoubleValue
0.000000

@<SCITEGIC>MOL_PROPERTY
U
SciTegic.value.DoubleValue
10.902

@<SCITEGIC>MOL_PROPERTY
W
SciTegic.value.DoubleValue
-60.768

@<SCITEGIC>MOL_PROPERTY
W(PB)
SciTegic.value.DoubleValue
-63.223

@<SCITEGIC>MOL_PROPERTY
W(SA)
SciTegic.value.DoubleValue
2.456

@<SCITEGIC>MOL_PROPERTY
Valence
SciTegic.value.DoubleValue
9.445

@<SCITEGIC>MOL_PROPERTY
Coulomb
SciTegic.value.DoubleValue
0.778

@<SCITEGIC>MOL_PROPERTY
VdW
SciTegic.value.DoubleValue
0.679

@<SCITEGIC>MOL_PROPERTY
VdW6
SciTegic.value.DoubleValue
-10.007

@<SCITEGIC>MOL_PROPERTY
VdW12
SciTegic.value.DoubleValue
10.687

@<SCITEGIC>MOL_PROPERTY
Bond
SciTegic.value.DoubleValue
0.201

@<SCITEGIC>MOL_PROPERTY
Angle
SciTegic.value.DoubleValue
3.198

@<SCITEGIC>MOL_PROPERTY
Pdih
SciTegic.value.DoubleValue
6.040

@<SCITEGIC>MOL_PROPERTY
Idih
SciTegic.value.DoubleValue
0.006

@<SCITEGIC>MOL_PROPERTY
Tether
SciTegic.value.DoubleValue
0.000

@<TRIPOS>MOLECULE
guest-8_confgen4.mol2 : confsearch ligand conformer 896
          25          24           1
SMALL
USER_CHARGES
 
@<TRIPOS>ATOM
       1    C1      16.518527   19.063043   22.133418 C.2        1 MOL1         0.6168
       2    O1      16.731981   18.033904   21.523569 O.co2      1 MOL1        -0.6703
       3    O2      15.404445   19.489427   22.365504 O.co2      1 MOL1        -0.6703
       4    C2      17.713911   19.852761   22.654111 C.3        1 MOL1        -0.1963
       5    H1      17.451162   20.917065   22.632271 H          1 MOL1         0.0750
       6    H2      18.539409   19.713595   21.949378 H          1 MOL1         0.0750
       7    C3      18.127653   19.436589   24.090518 C.3        1 MOL1        -0.1860
       8    H3      17.266130   19.604019   24.751716 H          1 MOL1         0.0752
       9    H4      18.335465   18.358211   24.127000 H          1 MOL1         0.0752
      10    C4      19.336771   20.234816   24.641114 C.3        1 MOL1        -0.1858
      11    H5      19.186001   20.381919   25.719329 H          1 MOL1         0.0752
      12    H6      19.360229   21.242070   24.203246 H          1 MOL1         0.0752
      13    C5      20.709094   19.540095   24.454425 C.3        1 MOL1        -0.1858
      14    H7      21.474912   20.150000   24.952510 H          1 MOL1         0.0752
      15    H8      20.695352   18.574255   24.976334 H          1 MOL1         0.0752
      16    C6      21.118440   19.328795   22.977618 C.3        1 MOL1        -0.1858
      17    H9      20.980745   20.269842   22.428192 H          1 MOL1         0.0752
      18    H10     20.456344   18.587521   22.511368 H          1 MOL1         0.0752
      19    C7      22.585521   18.869615   22.809209 C.3        1 MOL1        -0.1834
      20    H11     22.824730   18.838506   21.737306 H          1 MOL1         0.0752
      21    H12     23.260683   19.612295   23.256216 H          1 MOL1         0.0752
      22    C8      22.863262   17.479935   23.422376 C.3        1 MOL1        -0.2849
      23    H13     22.182228   16.724949   23.008450 H          1 MOL1         0.0764
      24    H14     23.891589   17.162963   23.205756 H          1 MOL1         0.0764
      25    H15     22.741769   17.492419   24.512768 H          1 MOL1         0.0764
@<TRIPOS>BOND
    1     1     2    1
    2     1     3    2
    3     1     4    1
    4     4     5    1
    5     4     6    1
    6     4     7    1
    7     7     8    1
    8     7     9    1
    9     7    10    1
   10    10    11    1
   11    10    12    1
   12    10    13    1
   13    13    14    1
   14    13    15    1
   15    13    16    1
   16    16    17    1
   17    16    18    1
   18    16    19    1
   19    19    20    1
   20    19    21    1
   21    19    22    1
   22    22    23    1
   23    22    24    1
   24    22    25    1
@<TRIPOS>SUBSTRUCTURE
       1 MOL1            1 RESIDUE      1      MOL     
@<SCITEGIC>MOL_PROPERTY
VConf Rank
SciTegic.value.IntegerValue
896

@<SCITEGIC>MOL_PROPERTY
Conf_Id
SciTegic.value.IntegerValue
89

@<SCITEGIC>MOL_PROPERTY
Delta U+W
SciTegic.value.DoubleValue
2.903

@<SCITEGIC>MOL_PROPERTY
U+W
SciTegic.value.DoubleValue
-48.726

@<SCITEGIC>MOL_PROPERTY
Grad RMS
SciTegic.value.DoubleValue
0.000000

@<SCITEGIC>MOL_PROPERTY
U
SciTegic.value.DoubleValue
10.996

@<SCITEGIC>MOL_PROPERTY
W
SciTegic.value.DoubleValue
-59.723

@<SCITEGIC>MOL_PROPERTY
W(PB)
SciTegic.value.DoubleValue
-62.151

@<SCITEGIC>MOL_PROPERTY
W(SA)
SciTegic.value.DoubleValue
2.428

@<SCITEGIC>MOL_PROPERTY
Valence
SciTegic.value.DoubleValue
10.985

@<SCITEGIC>MOL_PROPERTY
Coulomb
SciTegic.value.DoubleValue
-0.995

@<SCITEGIC>MOL_PROPERTY
VdW
SciTegic.value.DoubleValue
1.006

@<SCITEGIC>MOL_PROPERTY
VdW6
SciTegic.value.DoubleValue
-10.062

@<SCITEGIC>MOL_PROPERTY
VdW12
SciTegic.value.DoubleValue
11.069

@<SCITEGIC>MOL_PROPERTY
Bond
SciTegic.value.DoubleValue
0.238

@<SCITEGIC>MOL_PROPERTY
Angle
SciTegic.value.DoubleValue
3.202

@<SCITEGIC>MOL_PROPERTY
Pdih
SciTegic.value.DoubleValue
7.544

@<SCITEGIC>MOL_PROPERTY
Idih
SciTegic.value.DoubleValue
0.001

@<SCITEGIC>MOL_PROPERTY
Tether
SciTegic.value.DoubleValue
0.000

@<TRIPOS>MOLECULE
guest-8_confgen4.mol2 : confsearch ligand conformer 897
          25          24           1
SMALL
USER_CHARGES
 
@<TRIPOS>ATOM
       1    C1      18.305019   16.871521   25.527320 C.2        1 MOL1         0.6168
       2    O1      18.284381   17.546201   26.538083 O.co2      1 MOL1        -0.6703
       3    O2      17.307797   16.575137   24.898582 O.co2      1 MOL1        -0.6703
       4    C2      19.648690   16.314383   25.061066 C.3        1 MOL1        -0.1963
       5    H1      19.575213   15.224027   25.145935 H          1 MOL1         0.0750
       6    H2      20.429528   16.631532   25.762834 H          1 MOL1         0.0750
       7    C3      20.050695   16.681935   23.604742 C.3        1 MOL1        -0.1860
       8    H3      20.791103   15.946083   23.263039 H          1 MOL1         0.0752
       9    H4      19.185084   16.570837   22.936949 H          1 MOL1         0.0752
      10    C4      20.674872   18.089680   23.435647 C.3        1 MOL1        -0.1858
      11    H5      21.066741   18.158501   22.413287 H          1 MOL1         0.0752
      12    H6      21.539249   18.193342   24.105468 H          1 MOL1         0.0752
      13    C5      19.683149   19.252354   23.682745 C.3        1 MOL1        -0.1858
      14    H7      18.788834   19.119791   23.058727 H          1 MOL1         0.0752
      15    H8      19.343402   19.221963   24.725091 H          1 MOL1         0.0752
      16    C6      20.294267   20.651066   23.426788 C.3        1 MOL1        -0.1858
      17    H9      21.206698   20.769905   24.026933 H          1 MOL1         0.0752
      18    H10     19.585381   21.408936   23.787366 H          1 MOL1         0.0752
      19    C7      20.606259   20.929583   21.938659 C.3        1 MOL1        -0.1834
      20    H11     21.375588   20.236289   21.575057 H          1 MOL1         0.0752
      21    H12     19.706183   20.756368   21.332815 H          1 MOL1         0.0752
      22    C8      21.096053   22.376177   21.725199 C.3        1 MOL1        -0.2849
      23    H13     22.011705   22.569132   22.299409 H          1 MOL1         0.0764
      24    H14     21.316160   22.557544   20.665148 H          1 MOL1         0.0764
      25    H15     20.333846   23.100303   22.041464 H          1 MOL1         0.0764
@<TRIPOS>BOND
    1     1     2    1
    2     1     3    2
    3     1     4    1
    4     4     5    1
    5     4     6    1
    6     4     7    1
    7     7     8    1
    8     7     9    1
    9     7    10    1
   10    10    11    1
   11    10    12    1
   12    10    13    1
   13    13    14    1
   14    13    15    1
   15    13    16    1
   16    16    17    1
   17    16    18    1
   18    16    19    1
   19    19    20    1
   20    19    21    1
   21    19    22    1
   22    22    23    1
   23    22    24    1
   24    22    25    1
@<TRIPOS>SUBSTRUCTURE
       1 MOL1            1 RESIDUE      1      MOL     
@<SCITEGIC>MOL_PROPERTY
VConf Rank
SciTegic.value.IntegerValue
897

@<SCITEGIC>MOL_PROPERTY
Conf_Id
SciTegic.value.IntegerValue
114

@<SCITEGIC>MOL_PROPERTY
Delta U+W
SciTegic.value.DoubleValue
2.758

@<SCITEGIC>MOL_PROPERTY
U+W
SciTegic.value.DoubleValue
-48.871

@<SCITEGIC>MOL_PROPERTY
Grad RMS
SciTegic.value.DoubleValue
0.000000

@<SCITEGIC>MOL_PROPERTY
U
SciTegic.value.DoubleValue
11.422

@<SCITEGIC>MOL_PROPERTY
W
SciTegic.value.DoubleValue
-60.293

@<SCITEGIC>MOL_PROPERTY
W(PB)
SciTegic.value.DoubleValue
-62.719

@<SCITEGIC>MOL_PROPERTY
W(SA)
SciTegic.value.DoubleValue
2.425

@<SCITEGIC>MOL_PROPERTY
Valence
SciTegic.value.DoubleValue
10.135

@<SCITEGIC>MOL_PROPERTY
Coulomb
SciTegic.value.DoubleValue
0.369

@<SCITEGIC>MOL_PROPERTY
VdW
SciTegic.value.DoubleValue
0.918

@<SCITEGIC>MOL_PROPERTY
VdW6
SciTegic.value.DoubleValue
-10.482

@<SCITEGIC>MOL_PROPERTY
VdW12
SciTegic.value.DoubleValue
11.400

@<SCITEGIC>MOL_PROPERTY
Bond
SciTegic.value.DoubleValue
0.245

@<SCITEGIC>MOL_PROPERTY
Angle
SciTegic.value.DoubleValue
3.539

@<SCITEGIC>MOL_PROPERTY
Pdih
SciTegic.value.DoubleValue
6.346

@<SCITEGIC>MOL_PROPERTY
Idih
SciTegic.value.DoubleValue
0.006

@<SCITEGIC>MOL_PROPERTY
Tether
SciTegic.value.DoubleValue
0.000

@<TRIPOS>MOLECULE
guest-8_confgen4.mol2 : confsearch ligand conformer 898
          25          24           1
SMALL
USER_CHARGES
 
@<TRIPOS>ATOM
       1    C1      18.332490   21.241279   25.934853 C.2        1 MOL1         0.6168
       2    O1      17.688369   20.463424   26.610953 O.co2      1 MOL1        -0.6703
       3    O2      19.199065   21.965359   26.384132 O.co2      1 MOL1        -0.6703
       4    C2      18.023666   21.330191   24.442984 C.3        1 MOL1        -0.1963
       5    H1      17.973042   22.393552   24.180917 H          1 MOL1         0.0750
       6    H2      17.025233   20.912045   24.266744 H          1 MOL1         0.0750
       7    C3      19.068543   20.623333   23.541008 C.3        1 MOL1        -0.1860
       8    H3      18.841292   20.846290   22.489867 H          1 MOL1         0.0752
       9    H4      20.060179   21.046264   23.748644 H          1 MOL1         0.0752
      10    C4      19.085732   19.089396   23.745943 C.3        1 MOL1        -0.1858
      11    H5      18.064409   18.703209   23.625099 H          1 MOL1         0.0752
      12    H6      19.385074   18.853209   24.776433 H          1 MOL1         0.0752
      13    C5      20.011774   18.342757   22.756165 C.3        1 MOL1        -0.1858
      14    H7      19.843966   17.265677   22.882356 H          1 MOL1         0.0752
      15    H8      19.720294   18.584732   21.725141 H          1 MOL1         0.0752
      16    C6      21.514437   18.655970   22.962188 C.3        1 MOL1        -0.1858
      17    H9      21.804477   18.417188   23.994438 H          1 MOL1         0.0752
      18    H10     21.684558   19.732142   22.831899 H          1 MOL1         0.0752
      19    C7      22.439680   17.903229   21.977432 C.3        1 MOL1        -0.1834
      20    H11     22.144982   18.130687   20.943651 H          1 MOL1         0.0752
      21    H12     23.463791   18.282511   22.098186 H          1 MOL1         0.0752
      22    C8      22.450310   16.373827   22.191264 C.3        1 MOL1        -0.2849
      23    H13     23.191709   15.900128   21.534881 H          1 MOL1         0.0764
      24    H14     22.708922   16.123827   23.228440 H          1 MOL1         0.0764
      25    H15     21.473822   15.929292   21.962642 H          1 MOL1         0.0764
@<TRIPOS>BOND
    1     1     2    1
    2     1     3    2
    3     1     4    1
    4     4     5    1
    5     4     6    1
    6     4     7    1
    7     7     8    1
    8     7     9    1
    9     7    10    1
   10    10    11    1
   11    10    12    1
   12    10    13    1
   13    13    14    1
   14    13    15    1
   15    13    16    1
   16    16    17    1
   17    16    18    1
   18    16    19    1
   19    19    20    1
   20    19    21    1
   21    19    22    1
   22    22    23    1
   23    22    24    1
   24    22    25    1
@<TRIPOS>SUBSTRUCTURE
       1 MOL1            1 RESIDUE      1      MOL     
@<SCITEGIC>MOL_PROPERTY
VConf Rank
SciTegic.value.IntegerValue
898

@<SCITEGIC>MOL_PROPERTY
Conf_Id
SciTegic.value.IntegerValue
87

@<SCITEGIC>MOL_PROPERTY
Delta U+W
SciTegic.value.DoubleValue
1.453

@<SCITEGIC>MOL_PROPERTY
U+W
SciTegic.value.DoubleValue
-50.176

@<SCITEGIC>MOL_PROPERTY
Grad RMS
SciTegic.value.DoubleValue
0.000000

@<SCITEGIC>MOL_PROPERTY
U
SciTegic.value.DoubleValue
9.763

@<SCITEGIC>MOL_PROPERTY
W
SciTegic.value.DoubleValue
-59.940

@<SCITEGIC>MOL_PROPERTY
W(PB)
SciTegic.value.DoubleValue
-62.392

@<SCITEGIC>MOL_PROPERTY
W(SA)
SciTegic.value.DoubleValue
2.452

@<SCITEGIC>MOL_PROPERTY
Valence
SciTegic.value.DoubleValue
8.883

@<SCITEGIC>MOL_PROPERTY
Coulomb
SciTegic.value.DoubleValue
-0.122

@<SCITEGIC>MOL_PROPERTY
VdW
SciTegic.value.DoubleValue
1.003

@<SCITEGIC>MOL_PROPERTY
VdW6
SciTegic.value.DoubleValue
-9.782

@<SCITEGIC>MOL_PROPERTY
VdW12
SciTegic.value.DoubleValue
10.785

@<SCITEGIC>MOL_PROPERTY
Bond
SciTegic.value.DoubleValue
0.212

@<SCITEGIC>MOL_PROPERTY
Angle
SciTegic.value.DoubleValue
2.940

@<SCITEGIC>MOL_PROPERTY
Pdih
SciTegic.value.DoubleValue
5.730

@<SCITEGIC>MOL_PROPERTY
Idih
SciTegic.value.DoubleValue
0.001

@<SCITEGIC>MOL_PROPERTY
Tether
SciTegic.value.DoubleValue
0.000

@<TRIPOS>MOLECULE
guest-8_confgen4.mol2 : confsearch ligand conformer 899
          25          24           1
SMALL
USER_CHARGES
 
@<TRIPOS>ATOM
       1    C1      18.028088   22.356810   24.305397 C.2        1 MOL1         0.6168
       2    O1      16.882992   22.007428   24.097141 O.co2      1 MOL1        -0.6703
       3    O2      18.343335   23.149407   25.170932 O.co2      1 MOL1        -0.6703
       4    C2      19.132655   21.753424   23.445151 C.3        1 MOL1        -0.1963
       5    H1      19.921641   22.505762   23.326950 H          1 MOL1         0.0750
       6    H2      18.719461   21.556964   22.448532 H          1 MOL1         0.0750
       7    C3      19.719299   20.452143   24.045539 C.3        1 MOL1        -0.1860
       8    H3      20.121408   20.662293   25.046183 H          1 MOL1         0.0752
       9    H4      18.908399   19.722701   24.172584 H          1 MOL1         0.0752
      10    C4      20.831394   19.857954   23.150659 C.3        1 MOL1        -0.1858
      11    H5      21.598882   20.624616   22.977997 H          1 MOL1         0.0752
      12    H6      20.421006   19.610257   22.162918 H          1 MOL1         0.0752
      13    C5      21.516659   18.611432   23.764609 C.3        1 MOL1        -0.1858
      14    H7      22.328397   18.289353   23.099234 H          1 MOL1         0.0752
      15    H8      22.002353   18.902039   24.705949 H          1 MOL1         0.0752
      16    C6      20.577013   17.408509   24.043644 C.3        1 MOL1        -0.1858
      17    H9      19.863785   17.679939   24.832883 H          1 MOL1         0.0752
      18    H10     21.175928   16.585328   24.456153 H          1 MOL1         0.0752
      19    C7      19.791580   16.886451   22.815360 C.3        1 MOL1        -0.1834
      20    H11     19.146598   16.057865   23.138388 H          1 MOL1         0.0752
      21    H12     19.117319   17.666934   22.438463 H          1 MOL1         0.0752
      22    C8      20.704462   16.389779   21.673430 C.3        1 MOL1        -0.2849
      23    H13     21.398947   15.619358   22.032701 H          1 MOL1         0.0764
      24    H14     20.104837   15.954439   20.863704 H          1 MOL1         0.0764
      25    H15     21.292571   17.212188   21.247145 H          1 MOL1         0.0764
@<TRIPOS>BOND
    1     1     2    1
    2     1     3    2
    3     1     4    1
    4     4     5    1
    5     4     6    1
    6     4     7    1
    7     7     8    1
    8     7     9    1
    9     7    10    1
   10    10    11    1
   11    10    12    1
   12    10    13    1
   13    13    14    1
   14    13    15    1
   15    13    16    1
   16    16    17    1
   17    16    18    1
   18    16    19    1
   19    19    20    1
   20    19    21    1
   21    19    22    1
   22    22    23    1
   23    22    24    1
   24    22    25    1
@<TRIPOS>SUBSTRUCTURE
       1 MOL1            1 RESIDUE      1      MOL     
@<SCITEGIC>MOL_PROPERTY
VConf Rank
SciTegic.value.IntegerValue
899

@<SCITEGIC>MOL_PROPERTY
Conf_Id
SciTegic.value.IntegerValue
29

@<SCITEGIC>MOL_PROPERTY
Delta U+W
SciTegic.value.DoubleValue
0.850

@<SCITEGIC>MOL_PROPERTY
U+W
SciTegic.value.DoubleValue
-50.780

@<SCITEGIC>MOL_PROPERTY
Grad RMS
SciTegic.value.DoubleValue
0.000000

@<SCITEGIC>MOL_PROPERTY
U
SciTegic.value.DoubleValue
8.646

@<SCITEGIC>MOL_PROPERTY
W
SciTegic.value.DoubleValue
-59.426

@<SCITEGIC>MOL_PROPERTY
W(PB)
SciTegic.value.DoubleValue
-61.868

@<SCITEGIC>MOL_PROPERTY
W(SA)
SciTegic.value.DoubleValue
2.442

@<SCITEGIC>MOL_PROPERTY
Valence
SciTegic.value.DoubleValue
8.924

@<SCITEGIC>MOL_PROPERTY
Coulomb
SciTegic.value.DoubleValue
-1.171

@<SCITEGIC>MOL_PROPERTY
VdW
SciTegic.value.DoubleValue
0.894

@<SCITEGIC>MOL_PROPERTY
VdW6
SciTegic.value.DoubleValue
-10.223

@<SCITEGIC>MOL_PROPERTY
VdW12
SciTegic.value.DoubleValue
11.117

@<SCITEGIC>MOL_PROPERTY
Bond
SciTegic.value.DoubleValue
0.231

@<SCITEGIC>MOL_PROPERTY
Angle
SciTegic.value.DoubleValue
3.232

@<SCITEGIC>MOL_PROPERTY
Pdih
SciTegic.value.DoubleValue
5.461

@<SCITEGIC>MOL_PROPERTY
Idih
SciTegic.value.DoubleValue
0.001

@<SCITEGIC>MOL_PROPERTY
Tether
SciTegic.value.DoubleValue
0.000

@<TRIPOS>MOLECULE
guest-8_confgen4.mol2 : confsearch ligand conformer 900
          25          24           1
SMALL
USER_CHARGES
 
@<TRIPOS>ATOM
       1    C1      23.724340   19.750505   24.535624 C.2        1 MOL1         0.6168
       2    O1      24.262413   18.719122   24.184323 O.co2      1 MOL1        -0.6703
       3    O2      24.054374   20.380269   25.521126 O.co2      1 MOL1        -0.6703
       4    C2      22.558164   20.273443   23.704516 C.3        1 MOL1        -0.1963
       5    H1      22.733133   19.994515   22.658495 H          1 MOL1         0.0750
       6    H2      22.568510   21.368832   23.754495 H          1 MOL1         0.0750
       7    C3      21.188850   19.728681   24.180089 C.3        1 MOL1        -0.1860
       8    H3      21.209934   18.631532   24.140029 H          1 MOL1         0.0752
       9    H4      21.031215   20.008331   25.230846 H          1 MOL1         0.0752
      10    C4      20.025458   20.268372   23.316441 C.3        1 MOL1        -0.1858
      11    H5      20.161063   19.955470   22.272836 H          1 MOL1         0.0752
      12    H6      20.062760   21.366194   23.312482 H          1 MOL1         0.0752
      13    C5      18.627869   19.829676   23.821050 C.3        1 MOL1        -0.1858
      14    H7      18.473365   20.233141   24.830909 H          1 MOL1         0.0752
      15    H8      17.860310   20.300576   23.192968 H          1 MOL1         0.0752
      16    C6      18.387744   18.297112   23.858617 C.3        1 MOL1        -0.1858
      17    H9      17.364128   18.112117   24.211430 H          1 MOL1         0.0752
      18    H10     19.046490   17.844414   24.611202 H          1 MOL1         0.0752
      19    C7      18.589742   17.564679   22.509220 C.3        1 MOL1        -0.1834
      20    H11     19.632739   17.660994   22.179500 H          1 MOL1         0.0752
      21    H12     18.418203   16.490732   22.664515 H          1 MOL1         0.0752
      22    C8      17.642724   18.063558   21.396425 C.3        1 MOL1        -0.2849
      23    H13     17.852321   19.108000   21.133451 H          1 MOL1         0.0764
      24    H14     17.765785   17.460152   20.487863 H          1 MOL1         0.0764
      25    H15     16.593790   17.991232   21.711768 H          1 MOL1         0.0764
@<TRIPOS>BOND
    1     1     2    1
    2     1     3    2
    3     1     4    1
    4     4     5    1
    5     4     6    1
    6     4     7    1
    7     7     8    1
    8     7     9    1
    9     7    10    1
   10    10    11    1
   11    10    12    1
   12    10    13    1
   13    13    14    1
   14    13    15    1
   15    13    16    1
   16    16    17    1
   17    16    18    1
   18    16    19    1
   19    19    20    1
   20    19    21    1
   21    19    22    1
   22    22    23    1
   23    22    24    1
   24    22    25    1
@<TRIPOS>SUBSTRUCTURE
       1 MOL1            1 RESIDUE      1      MOL     
@<SCITEGIC>MOL_PROPERTY
VConf Rank
SciTegic.value.IntegerValue
900

@<SCITEGIC>MOL_PROPERTY
Conf_Id
SciTegic.value.IntegerValue
30

@<SCITEGIC>MOL_PROPERTY
Delta U+W
SciTegic.value.DoubleValue
0.843

@<SCITEGIC>MOL_PROPERTY
U+W
SciTegic.value.DoubleValue
-50.787

@<SCITEGIC>MOL_PROPERTY
Grad RMS
SciTegic.value.DoubleValue
0.000000

@<SCITEGIC>MOL_PROPERTY
U
SciTegic.value.DoubleValue
8.647

@<SCITEGIC>MOL_PROPERTY
W
SciTegic.value.DoubleValue
-59.434

@<SCITEGIC>MOL_PROPERTY
W(PB)
SciTegic.value.DoubleValue
-61.861

@<SCITEGIC>MOL_PROPERTY
W(SA)
SciTegic.value.DoubleValue
2.428

@<SCITEGIC>MOL_PROPERTY
Valence
SciTegic.value.DoubleValue
8.924

@<SCITEGIC>MOL_PROPERTY
Coulomb
SciTegic.value.DoubleValue
-1.170

@<SCITEGIC>MOL_PROPERTY
VdW
SciTegic.value.DoubleValue
0.894

@<SCITEGIC>MOL_PROPERTY
VdW6
SciTegic.value.DoubleValue
-10.224

@<SCITEGIC>MOL_PROPERTY
VdW12
SciTegic.value.DoubleValue
11.118

@<SCITEGIC>MOL_PROPERTY
Bond
SciTegic.value.DoubleValue
0.231

@<SCITEGIC>MOL_PROPERTY
Angle
SciTegic.value.DoubleValue
3.232

@<SCITEGIC>MOL_PROPERTY
Pdih
SciTegic.value.DoubleValue
5.460

@<SCITEGIC>MOL_PROPERTY
Idih
SciTegic.value.DoubleValue
0.000

@<SCITEGIC>MOL_PROPERTY
Tether
SciTegic.value.DoubleValue
0.000

@<TRIPOS>MOLECULE
guest-8_confgen4.mol2 : confsearch ligand conformer 901
          25          24           1
SMALL
USER_CHARGES
 
@<TRIPOS>ATOM
       1    C1      23.730527   18.181121   25.913707 C.2        1 MOL1         0.6168
       2    O1      24.553213   18.488493   25.072688 O.co2      1 MOL1        -0.6703
       3    O2      24.030764   17.781541   27.021097 O.co2      1 MOL1        -0.6703
       4    C2      22.239290   18.291596   25.592141 C.3        1 MOL1        -0.1963
       5    H1      21.791930   18.956331   26.340408 H          1 MOL1         0.0750
       6    H2      21.798538   17.298772   25.740277 H          1 MOL1         0.0750
       7    C3      21.905651   18.806394   24.166629 C.3        1 MOL1        -0.1860
       8    H3      22.355612   19.798541   24.022807 H          1 MOL1         0.0752
       9    H4      22.362172   18.139459   23.422121 H          1 MOL1         0.0752
      10    C4      20.382263   18.887123   23.927013 C.3        1 MOL1        -0.1858
      11    H5      19.928043   19.554317   24.672448 H          1 MOL1         0.0752
      12    H6      19.934612   17.894194   24.071366 H          1 MOL1         0.0752
      13    C5      20.052665   19.399449   22.508431 C.3        1 MOL1        -0.1858
      14    H7      20.500166   20.392388   22.363801 H          1 MOL1         0.0752
      15    H8      20.506722   18.732419   21.762772 H          1 MOL1         0.0752
      16    C6      18.529628   19.480419   22.268190 C.3        1 MOL1        -0.1858
      17    H9      18.075367   20.147449   23.013718 H          1 MOL1         0.0752
      18    H10     18.081929   18.487551   22.412666 H          1 MOL1         0.0752
      19    C7      18.200056   19.992547   20.850280 C.3        1 MOL1        -0.1834
      20    H11     18.644755   20.986508   20.702725 H          1 MOL1         0.0752
      21    H12     18.651307   19.326625   20.101676 H          1 MOL1         0.0752
      22    C8      16.678341   20.071984   20.614320 C.3        1 MOL1        -0.2849
      23    H13     16.205027   20.756727   21.330209 H          1 MOL1         0.0764
      24    H14     16.462341   20.437691   19.602050 H          1 MOL1         0.0764
      25    H15     16.211630   19.084354   20.724615 H          1 MOL1         0.0764
@<TRIPOS>BOND
    1     1     2    1
    2     1     3    2
    3     1     4    1
    4     4     5    1
    5     4     6    1
    6     4     7    1
    7     7     8    1
    8     7     9    1
    9     7    10    1
   10    10    11    1
   11    10    12    1
   12    10    13    1
   13    13    14    1
   14    13    15    1
   15    13    16    1
   16    16    17    1
   17    16    18    1
   18    16    19    1
   19    19    20    1
   20    19    21    1
   21    19    22    1
   22    22    23    1
   23    22    24    1
   24    22    25    1
@<TRIPOS>SUBSTRUCTURE
       1 MOL1            1 RESIDUE      1      MOL     
@<SCITEGIC>MOL_PROPERTY
VConf Rank
SciTegic.value.IntegerValue
901

@<SCITEGIC>MOL_PROPERTY
Conf_Id
SciTegic.value.IntegerValue
0

@<SCITEGIC>MOL_PROPERTY
Delta U+W
SciTegic.value.DoubleValue
0.000

@<SCITEGIC>MOL_PROPERTY
U+W
SciTegic.value.DoubleValue
-51.629

@<SCITEGIC>MOL_PROPERTY
Grad RMS
SciTegic.value.DoubleValue
0.000000

@<SCITEGIC>MOL_PROPERTY
U
SciTegic.value.DoubleValue
6.586

@<SCITEGIC>MOL_PROPERTY
W
SciTegic.value.DoubleValue
-58.216

@<SCITEGIC>MOL_PROPERTY
W(PB)
SciTegic.value.DoubleValue
-60.757

@<SCITEGIC>MOL_PROPERTY
W(SA)
SciTegic.value.DoubleValue
2.541

@<SCITEGIC>MOL_PROPERTY
Valence
SciTegic.value.DoubleValue
8.027

@<SCITEGIC>MOL_PROPERTY
Coulomb
SciTegic.value.DoubleValue
-2.892

@<SCITEGIC>MOL_PROPERTY
VdW
SciTegic.value.DoubleValue
1.451

@<SCITEGIC>MOL_PROPERTY
VdW6
SciTegic.value.DoubleValue
-7.931

@<SCITEGIC>MOL_PROPERTY
VdW12
SciTegic.value.DoubleValue
9.383

@<SCITEGIC>MOL_PROPERTY
Bond
SciTegic.value.DoubleValue
0.149

@<SCITEGIC>MOL_PROPERTY
Angle
SciTegic.value.DoubleValue
2.726

@<SCITEGIC>MOL_PROPERTY
Pdih
SciTegic.value.DoubleValue
5.152

@<SCITEGIC>MOL_PROPERTY
Idih
SciTegic.value.DoubleValue
0.000

@<SCITEGIC>MOL_PROPERTY
Tether
SciTegic.value.DoubleValue
0.000

@<TRIPOS>MOLECULE
guest-8_confgen4.mol2 : confsearch ligand conformer 902
          25          24           1
SMALL
USER_CHARGES
 
@<TRIPOS>ATOM
       1    C1      23.726716   19.782607   20.236665 C.2        1 MOL1         0.6168
       2    O1      24.423245   18.799415   20.079187 O.co2      1 MOL1        -0.6703
       3    O2      23.537998   20.619152   19.375735 O.co2      1 MOL1        -0.6703
       4    C2      23.032527   19.964822   21.581649 C.3        1 MOL1        -0.1963
       5    H1      22.949625   21.040318   21.779236 H          1 MOL1         0.0750
       6    H2      23.679610   19.541166   22.359083 H          1 MOL1         0.0750
       7    C3      21.633550   19.302657   21.630875 C.3        1 MOL1        -0.1860
       8    H3      21.002536   19.728230   20.838219 H          1 MOL1         0.0752
       9    H4      21.732500   18.229138   21.417894 H          1 MOL1         0.0752
      10    C4      20.951626   19.500759   23.001918 C.3        1 MOL1        -0.1858
      11    H5      20.855216   20.574827   23.212305 H          1 MOL1         0.0752
      12    H6      21.585527   19.075510   23.792179 H          1 MOL1         0.0752
      13    C5      19.557353   18.839442   23.048063 C.3        1 MOL1        -0.1858
      14    H7      18.923258   19.264580   22.257946 H          1 MOL1         0.0752
      15    H8      19.653540   17.765381   22.837721 H          1 MOL1         0.0752
      16    C6      18.874847   19.037082   24.418831 C.3        1 MOL1        -0.1858
      17    H9      18.778414   20.111067   24.629429 H          1 MOL1         0.0752
      18    H10     19.508707   18.612025   25.209175 H          1 MOL1         0.0752
      19    C7      17.481200   18.376050   24.465165 C.3        1 MOL1        -0.1834
      20    H11     16.843623   18.800140   23.677046 H          1 MOL1         0.0752
      21    H12     17.573910   17.301115   24.256819 H          1 MOL1         0.0752
      22    C8      16.802988   18.575643   25.835491 C.3        1 MOL1        -0.2849
      23    H13     15.813900   18.099658   25.850667 H          1 MOL1         0.0764
      24    H14     17.404694   18.132541   26.639858 H          1 MOL1         0.0764
      25    H15     16.668914   19.642847   26.055715 H          1 MOL1         0.0764
@<TRIPOS>BOND
    1     1     2    1
    2     1     3    2
    3     1     4    1
    4     4     5    1
    5     4     6    1
    6     4     7    1
    7     7     8    1
    8     7     9    1
    9     7    10    1
   10    10    11    1
   11    10    12    1
   12    10    13    1
   13    13    14    1
   14    13    15    1
   15    13    16    1
   16    16    17    1
   17    16    18    1
   18    16    19    1
   19    19    20    1
   20    19    21    1
   21    19    22    1
   22    22    23    1
   23    22    24    1
   24    22    25    1
@<TRIPOS>SUBSTRUCTURE
       1 MOL1            1 RESIDUE      1      MOL     
@<SCITEGIC>MOL_PROPERTY
VConf Rank
SciTegic.value.IntegerValue
902

@<SCITEGIC>MOL_PROPERTY
Conf_Id
SciTegic.value.IntegerValue
27

@<SCITEGIC>MOL_PROPERTY
Delta U+W
SciTegic.value.DoubleValue
-1.297

@<SCITEGIC>MOL_PROPERTY
U+W
SciTegic.value.DoubleValue
-52.926

@<SCITEGIC>MOL_PROPERTY
Grad RMS
SciTegic.value.DoubleValue
0.000000

@<SCITEGIC>MOL_PROPERTY
U
SciTegic.value.DoubleValue
5.617

@<SCITEGIC>MOL_PROPERTY
W
SciTegic.value.DoubleValue
-58.543

@<SCITEGIC>MOL_PROPERTY
W(PB)
SciTegic.value.DoubleValue
-61.065

@<SCITEGIC>MOL_PROPERTY
W(SA)
SciTegic.value.DoubleValue
2.522

@<SCITEGIC>MOL_PROPERTY
Valence
SciTegic.value.DoubleValue
7.531

@<SCITEGIC>MOL_PROPERTY
Coulomb
SciTegic.value.DoubleValue
-2.818

@<SCITEGIC>MOL_PROPERTY
VdW
SciTegic.value.DoubleValue
0.904

@<SCITEGIC>MOL_PROPERTY
VdW6
SciTegic.value.DoubleValue
-7.640

@<SCITEGIC>MOL_PROPERTY
VdW12
SciTegic.value.DoubleValue
8.544

@<SCITEGIC>MOL_PROPERTY
Bond
SciTegic.value.DoubleValue
0.115

@<SCITEGIC>MOL_PROPERTY
Angle
SciTegic.value.DoubleValue
2.271

@<SCITEGIC>MOL_PROPERTY
Pdih
SciTegic.value.DoubleValue
5.144

@<SCITEGIC>MOL_PROPERTY
Idih
SciTegic.value.DoubleValue
0.001

@<SCITEGIC>MOL_PROPERTY
Tether
SciTegic.value.DoubleValue
0.000

@<TRIPOS>MOLECULE
guest-8_confgen4.mol2 : confsearch ligand conformer 903
          25          24           1
SMALL
USER_CHARGES
 
@<TRIPOS>ATOM
       1    C1      20.269378   23.018761   22.448166 C.2        1 MOL1         0.6168
       2    O1      21.190683   23.624065   22.959908 O.co2      1 MOL1        -0.6703
       3    O2      20.158736   22.849488   21.249805 O.co2      1 MOL1        -0.6703
       4    C2      19.184064   22.455649   23.361382 C.3        1 MOL1        -0.1963
       5    H1      18.288399   22.258008   22.760077 H          1 MOL1         0.0750
       6    H2      18.918241   23.241639   24.078001 H          1 MOL1         0.0750
       7    C3      19.607280   21.176218   24.128771 C.3        1 MOL1        -0.1860
       8    H3      20.520701   21.382256   24.703996 H          1 MOL1         0.0752
       9    H4      18.825374   20.922579   24.857358 H          1 MOL1         0.0752
      10    C4      19.840212   19.970437   23.190898 C.3        1 MOL1        -0.1858
      11    H5      20.633835   20.210213   22.469724 H          1 MOL1         0.0752
      12    H6      18.928923   19.777037   22.608512 H          1 MOL1         0.0752
      13    C5      20.229173   18.700529   23.978091 C.3        1 MOL1        -0.1858
      14    H7      21.140526   18.894889   24.560113 H          1 MOL1         0.0752
      15    H8      19.435588   18.457089   24.697812 H          1 MOL1         0.0752
      16    C6      20.462908   17.495506   23.041530 C.3        1 MOL1        -0.1858
      17    H9      21.256457   17.738834   22.321669 H          1 MOL1         0.0752
      18    H10     19.551780   17.301194   22.459146 H          1 MOL1         0.0752
      19    C7      20.852227   16.226063   23.827860 C.3        1 MOL1        -0.1834
      20    H11     21.764436   16.416258   24.410254 H          1 MOL1         0.0752
      21    H12     20.059714   15.978542   24.547677 H          1 MOL1         0.0752
      22    C8      21.084890   15.025219   22.889006 C.3        1 MOL1        -0.2849
      23    H13     21.895017   15.233732   22.177941 H          1 MOL1         0.0764
      24    H14     21.360627   14.131935   23.464414 H          1 MOL1         0.0764
      25    H15     20.177474   14.792732   22.316345 H          1 MOL1         0.0764
@<TRIPOS>BOND
    1     1     2    1
    2     1     3    2
    3     1     4    1
    4     4     5    1
    5     4     6    1
    6     4     7    1
    7     7     8    1
    8     7     9    1
    9     7    10    1
   10    10    11    1
   11    10    12    1
   12    10    13    1
   13    13    14    1
   14    13    15    1
   15    13    16    1
   16    16    17    1
   17    16    18    1
   18    16    19    1
   19    19    20    1
   20    19    21    1
   21    19    22    1
   22    22    23    1
   23    22    24    1
   24    22    25    1
@<TRIPOS>SUBSTRUCTURE
       1 MOL1            1 RESIDUE      1      MOL     
@<SCITEGIC>MOL_PROPERTY
VConf Rank
SciTegic.value.IntegerValue
903

@<SCITEGIC>MOL_PROPERTY
Conf_Id
SciTegic.value.IntegerValue
37

@<SCITEGIC>MOL_PROPERTY
Delta U+W
SciTegic.value.DoubleValue
-0.230

@<SCITEGIC>MOL_PROPERTY
U+W
SciTegic.value.DoubleValue
-51.860

@<SCITEGIC>MOL_PROPERTY
Grad RMS
SciTegic.value.DoubleValue
0.000000

@<SCITEGIC>MOL_PROPERTY
U
SciTegic.value.DoubleValue
7.816

@<SCITEGIC>MOL_PROPERTY
W
SciTegic.value.DoubleValue
-59.675

@<SCITEGIC>MOL_PROPERTY
W(PB)
SciTegic.value.DoubleValue
-62.180

@<SCITEGIC>MOL_PROPERTY
W(SA)
SciTegic.value.DoubleValue
2.505

@<SCITEGIC>MOL_PROPERTY
Valence
SciTegic.value.DoubleValue
7.785

@<SCITEGIC>MOL_PROPERTY
Coulomb
SciTegic.value.DoubleValue
-0.713

@<SCITEGIC>MOL_PROPERTY
VdW
SciTegic.value.DoubleValue
0.744

@<SCITEGIC>MOL_PROPERTY
VdW6
SciTegic.value.DoubleValue
-8.514

@<SCITEGIC>MOL_PROPERTY
VdW12
SciTegic.value.DoubleValue
9.259

@<SCITEGIC>MOL_PROPERTY
Bond
SciTegic.value.DoubleValue
0.136

@<SCITEGIC>MOL_PROPERTY
Angle
SciTegic.value.DoubleValue
2.433

@<SCITEGIC>MOL_PROPERTY
Pdih
SciTegic.value.DoubleValue
5.216

@<SCITEGIC>MOL_PROPERTY
Idih
SciTegic.value.DoubleValue
0.000

@<SCITEGIC>MOL_PROPERTY
Tether
SciTegic.value.DoubleValue
0.000

@<TRIPOS>MOLECULE
guest-8_confgen4.mol2 : confsearch ligand conformer 904
          25          24           1
SMALL
USER_CHARGES
 
@<TRIPOS>ATOM
       1    C1      21.795683   21.737461   20.652594 C.2        1 MOL1         0.6168
       2    O1      21.242666   21.761264   19.570614 O.co2      1 MOL1        -0.6703
       3    O2      22.903368   21.270708   20.831866 O.co2      1 MOL1        -0.6703
       4    C2      21.063640   22.342213   21.847314 C.3        1 MOL1        -0.1963
       5    H1      20.653131   23.306793   21.526297 H          1 MOL1         0.0750
       6    H2      21.796016   22.555236   22.635408 H          1 MOL1         0.0750
       7    C3      19.921815   21.452261   22.403340 C.3        1 MOL1        -0.1860
       8    H3      19.366112   22.018715   23.162861 H          1 MOL1         0.0752
       9    H4      19.211705   21.224806   21.596072 H          1 MOL1         0.0752
      10    C4      20.442854   20.138318   23.027713 C.3        1 MOL1        -0.1858
      11    H5      21.162201   20.370770   23.824914 H          1 MOL1         0.0752
      12    H6      20.985421   19.557497   22.268969 H          1 MOL1         0.0752
      13    C5      19.293167   19.283266   23.602808 C.3        1 MOL1        -0.1858
      14    H7      18.750967   19.861028   24.363891 H          1 MOL1         0.0752
      15    H8      18.574443   19.051238   22.804882 H          1 MOL1         0.0752
      16    C6      19.812972   17.969872   24.226229 C.3        1 MOL1        -0.1858
      17    H9      20.531942   18.201671   25.023996 H          1 MOL1         0.0752
      18    H10     20.355337   17.392025   23.465269 H          1 MOL1         0.0752
      19    C7      18.664109   17.114583   24.800650 C.3        1 MOL1        -0.1834
      20    H11     18.120416   17.688873   25.563582 H          1 MOL1         0.0752
      21    H12     17.943895   16.879151   24.004819 H          1 MOL1         0.0752
      22    C8      19.187383   15.804047   25.422165 C.3        1 MOL1        -0.2849
      23    H13     19.886688   16.010378   26.243015 H          1 MOL1         0.0764
      24    H14     18.357815   15.208742   25.825291 H          1 MOL1         0.0764
      25    H15     19.708907   15.194598   24.672509 H          1 MOL1         0.0764
@<TRIPOS>BOND
    1     1     2    1
    2     1     3    2
    3     1     4    1
    4     4     5    1
    5     4     6    1
    6     4     7    1
    7     7     8    1
    8     7     9    1
    9     7    10    1
   10    10    11    1
   11    10    12    1
   12    10    13    1
   13    13    14    1
   14    13    15    1
   15    13    16    1
   16    16    17    1
   17    16    18    1
   18    16    19    1
   19    19    20    1
   20    19    21    1
   21    19    22    1
   22    22    23    1
   23    22    24    1
   24    22    25    1
@<TRIPOS>SUBSTRUCTURE
       1 MOL1            1 RESIDUE      1      MOL     
@<SCITEGIC>MOL_PROPERTY
VConf Rank
SciTegic.value.IntegerValue
904

@<SCITEGIC>MOL_PROPERTY
Conf_Id
SciTegic.value.IntegerValue
54

@<SCITEGIC>MOL_PROPERTY
Delta U+W
SciTegic.value.DoubleValue
-0.224

@<SCITEGIC>MOL_PROPERTY
U+W
SciTegic.value.DoubleValue
-51.854

@<SCITEGIC>MOL_PROPERTY
Grad RMS
SciTegic.value.DoubleValue
0.000000

@<SCITEGIC>MOL_PROPERTY
U
SciTegic.value.DoubleValue
7.816

@<SCITEGIC>MOL_PROPERTY
W
SciTegic.value.DoubleValue
-59.670

@<SCITEGIC>MOL_PROPERTY
W(PB)
SciTegic.value.DoubleValue
-62.157

@<SCITEGIC>MOL_PROPERTY
W(SA)
SciTegic.value.DoubleValue
2.487

@<SCITEGIC>MOL_PROPERTY
Valence
SciTegic.value.DoubleValue
7.785

@<SCITEGIC>MOL_PROPERTY
Coulomb
SciTegic.value.DoubleValue
-0.713

@<SCITEGIC>MOL_PROPERTY
VdW
SciTegic.value.DoubleValue
0.744

@<SCITEGIC>MOL_PROPERTY
VdW6
SciTegic.value.DoubleValue
-8.515

@<SCITEGIC>MOL_PROPERTY
VdW12
SciTegic.value.DoubleValue
9.259

@<SCITEGIC>MOL_PROPERTY
Bond
SciTegic.value.DoubleValue
0.136

@<SCITEGIC>MOL_PROPERTY
Angle
SciTegic.value.DoubleValue
2.433

@<SCITEGIC>MOL_PROPERTY
Pdih
SciTegic.value.DoubleValue
5.215

@<SCITEGIC>MOL_PROPERTY
Idih
SciTegic.value.DoubleValue
0.000

@<SCITEGIC>MOL_PROPERTY
Tether
SciTegic.value.DoubleValue
0.000

@<TRIPOS>MOLECULE
guest-8_confgen4.mol2 : confsearch ligand conformer 905
          25          24           1
SMALL
USER_CHARGES
 
@<TRIPOS>ATOM
       1    C1      20.620115   16.793584   26.600622 C.2        1 MOL1         0.6168
       2    O1      21.792266   16.915037   26.897879 O.co2      1 MOL1        -0.6703
       3    O2      19.707953   16.929197   27.392252 O.co2      1 MOL1        -0.6703
       4    C2      20.273158   16.432755   25.158884 C.3        1 MOL1        -0.1963
       5    H1      19.529762   15.627683   25.193396 H          1 MOL1         0.0750
       6    H2      21.166890   16.019103   24.676221 H          1 MOL1         0.0750
       7    C3      19.715106   17.617118   24.327302 C.3        1 MOL1        -0.1860
       8    H3      19.352757   17.226580   23.368142 H          1 MOL1         0.0752
       9    H4      18.845815   18.046677   24.844227 H          1 MOL1         0.0752
      10    C4      20.774025   18.718106   24.077370 C.3        1 MOL1        -0.1858
      11    H5      21.622460   18.297872   23.520291 H          1 MOL1         0.0752
      12    H6      21.175595   19.055722   25.042634 H          1 MOL1         0.0752
      13    C5      20.219728   19.951933   23.325451 C.3        1 MOL1        -0.1858
      14    H7      19.359592   20.360409   23.873074 H          1 MOL1         0.0752
      15    H8      20.993368   20.730090   23.336536 H          1 MOL1         0.0752
      16    C6      19.813937   19.653164   21.860903 C.3        1 MOL1        -0.1858
      17    H9      19.035047   18.880491   21.847458 H          1 MOL1         0.0752
      18    H10     20.673054   19.239988   21.315174 H          1 MOL1         0.0752
      19    C7      19.270809   20.891136   21.109289 C.3        1 MOL1        -0.1834
      20    H11     18.880402   20.566904   20.134763 H          1 MOL1         0.0752
      21    H12     18.418883   21.314827   21.658842 H          1 MOL1         0.0752
      22    C8      20.335888   21.984845   20.876167 C.3        1 MOL1        -0.2849
      23    H13     20.670001   22.428618   21.822126 H          1 MOL1         0.0764
      24    H14     21.212963   21.575298   20.358361 H          1 MOL1         0.0764
      25    H15     19.925795   22.793599   20.257583 H          1 MOL1         0.0764
@<TRIPOS>BOND
    1     1     2    1
    2     1     3    2
    3     1     4    1
    4     4     5    1
    5     4     6    1
    6     4     7    1
    7     7     8    1
    8     7     9    1
    9     7    10    1
   10    10    11    1
   11    10    12    1
   12    10    13    1
   13    13    14    1
   14    13    15    1
   15    13    16    1
   16    16    17    1
   17    16    18    1
   18    16    19    1
   19    19    20    1
   20    19    21    1
   21    19    22    1
   22    22    23    1
   23    22    24    1
   24    22    25    1
@<TRIPOS>SUBSTRUCTURE
       1 MOL1            1 RESIDUE      1      MOL     
@<SCITEGIC>MOL_PROPERTY
VConf Rank
SciTegic.value.IntegerValue
905

@<SCITEGIC>MOL_PROPERTY
Conf_Id
SciTegic.value.IntegerValue
101

@<SCITEGIC>MOL_PROPERTY
Delta U+W
SciTegic.value.DoubleValue
1.534

@<SCITEGIC>MOL_PROPERTY
U+W
SciTegic.value.DoubleValue
-50.095

@<SCITEGIC>MOL_PROPERTY
Grad RMS
SciTegic.value.DoubleValue
0.000000

@<SCITEGIC>MOL_PROPERTY
U
SciTegic.value.DoubleValue
9.416

@<SCITEGIC>MOL_PROPERTY
W
SciTegic.value.DoubleValue
-59.512

@<SCITEGIC>MOL_PROPERTY
W(PB)
SciTegic.value.DoubleValue
-61.988

@<SCITEGIC>MOL_PROPERTY
W(SA)
SciTegic.value.DoubleValue
2.476

@<SCITEGIC>MOL_PROPERTY
Valence
SciTegic.value.DoubleValue
8.939

@<SCITEGIC>MOL_PROPERTY
Coulomb
SciTegic.value.DoubleValue
-0.615

@<SCITEGIC>MOL_PROPERTY
VdW
SciTegic.value.DoubleValue
1.092

@<SCITEGIC>MOL_PROPERTY
VdW6
SciTegic.value.DoubleValue
-9.710

@<SCITEGIC>MOL_PROPERTY
VdW12
SciTegic.value.DoubleValue
10.802

@<SCITEGIC>MOL_PROPERTY
Bond
SciTegic.value.DoubleValue
0.216

@<SCITEGIC>MOL_PROPERTY
Angle
SciTegic.value.DoubleValue
2.979

@<SCITEGIC>MOL_PROPERTY
Pdih
SciTegic.value.DoubleValue
5.743

@<SCITEGIC>MOL_PROPERTY
Idih
SciTegic.value.DoubleValue
0.000

@<SCITEGIC>MOL_PROPERTY
Tether
SciTegic.value.DoubleValue
0.000

@<TRIPOS>MOLECULE
guest-8_confgen4.mol2 : confsearch ligand conformer 906
          25          24           1
SMALL
USER_CHARGES
 
@<TRIPOS>ATOM
       1    C1      22.374729   16.104266   24.941097 C.2        1 MOL1         0.6168
       2    O1      23.357347   15.958077   24.241221 O.co2      1 MOL1        -0.6703
       3    O2      22.306562   15.724222   26.093354 O.co2      1 MOL1        -0.6703
       4    C2      21.168859   16.824308   24.348152 C.3        1 MOL1        -0.1963
       5    H1      20.264723   16.409878   24.809806 H          1 MOL1         0.0750
       6    H2      21.129535   16.582517   23.280279 H          1 MOL1         0.0750
       7    C3      21.223203   18.359574   24.561599 C.3        1 MOL1        -0.1860
       8    H3      21.361166   18.560194   25.633114 H          1 MOL1         0.0752
       9    H4      22.106464   18.770551   24.053417 H          1 MOL1         0.0752
      10    C4      19.951808   19.099050   24.080519 C.3        1 MOL1        -0.1858
      11    H5      20.026835   20.145592   24.402407 H          1 MOL1         0.0752
      12    H6      19.069200   18.680032   24.582510 H          1 MOL1         0.0752
      13    C5      19.754102   19.048728   22.545501 C.3        1 MOL1        -0.1858
      14    H7      20.635792   19.468186   22.043809 H          1 MOL1         0.0752
      15    H8      19.687320   18.003131   22.219945 H          1 MOL1         0.0752
      16    C6      18.473933   19.776904   22.062508 C.3        1 MOL1        -0.1858
      17    H9      17.597200   19.287189   22.507698 H          1 MOL1         0.0752
      18    H10     18.379709   19.636898   20.977064 H          1 MOL1         0.0752
      19    C7      18.410642   21.292684   22.375343 C.3        1 MOL1        -0.1834
      20    H11     17.461560   21.689148   21.989203 H          1 MOL1         0.0752
      21    H12     18.386498   21.455982   23.460743 H          1 MOL1         0.0752
      22    C8      19.573354   22.095776   21.753181 C.3        1 MOL1        -0.2849
      23    H13     19.631356   21.928136   20.669894 H          1 MOL1         0.0764
      24    H14     19.431699   23.170955   21.922562 H          1 MOL1         0.0764
      25    H15     20.535708   21.813145   22.198234 H          1 MOL1         0.0764
@<TRIPOS>BOND
    1     1     2    1
    2     1     3    2
    3     1     4    1
    4     4     5    1
    5     4     6    1
    6     4     7    1
    7     7     8    1
    8     7     9    1
    9     7    10    1
   10    10    11    1
   11    10    12    1
   12    10    13    1
   13    13    14    1
   14    13    15    1
   15    13    16    1
   16    16    17    1
   17    16    18    1
   18    16    19    1
   19    19    20    1
   20    19    21    1
   21    19    22    1
   22    22    23    1
   23    22    24    1
   24    22    25    1
@<TRIPOS>SUBSTRUCTURE
       1 MOL1            1 RESIDUE      1      MOL     
@<SCITEGIC>MOL_PROPERTY
VConf Rank
SciTegic.value.IntegerValue
906

@<SCITEGIC>MOL_PROPERTY
Conf_Id
SciTegic.value.IntegerValue
75

@<SCITEGIC>MOL_PROPERTY
Delta U+W
SciTegic.value.DoubleValue
1.014

@<SCITEGIC>MOL_PROPERTY
U+W
SciTegic.value.DoubleValue
-50.615

@<SCITEGIC>MOL_PROPERTY
Grad RMS
SciTegic.value.DoubleValue
0.000000

@<SCITEGIC>MOL_PROPERTY
U
SciTegic.value.DoubleValue
8.474

@<SCITEGIC>MOL_PROPERTY
W
SciTegic.value.DoubleValue
-59.089

@<SCITEGIC>MOL_PROPERTY
W(PB)
SciTegic.value.DoubleValue
-61.530

@<SCITEGIC>MOL_PROPERTY
W(SA)
SciTegic.value.DoubleValue
2.441

@<SCITEGIC>MOL_PROPERTY
Valence
SciTegic.value.DoubleValue
9.080

@<SCITEGIC>MOL_PROPERTY
Coulomb
SciTegic.value.DoubleValue
-1.772

@<SCITEGIC>MOL_PROPERTY
VdW
SciTegic.value.DoubleValue
1.165

@<SCITEGIC>MOL_PROPERTY
VdW6
SciTegic.value.DoubleValue
-9.830

@<SCITEGIC>MOL_PROPERTY
VdW12
SciTegic.value.DoubleValue
10.996

@<SCITEGIC>MOL_PROPERTY
Bond
SciTegic.value.DoubleValue
0.240

@<SCITEGIC>MOL_PROPERTY
Angle
SciTegic.value.DoubleValue
3.225

@<SCITEGIC>MOL_PROPERTY
Pdih
SciTegic.value.DoubleValue
5.615

@<SCITEGIC>MOL_PROPERTY
Idih
SciTegic.value.DoubleValue
0.001

@<SCITEGIC>MOL_PROPERTY
Tether
SciTegic.value.DoubleValue
0.000

@<TRIPOS>MOLECULE
guest-8_confgen4.mol2 : confsearch ligand conformer 907
          25          24           1
SMALL
USER_CHARGES
 
@<TRIPOS>ATOM
       1    C1      17.373429   21.481733   20.993841 C.2        1 MOL1         0.6168
       2    O1      17.678831   21.377433   19.822302 O.co2      1 MOL1        -0.6703
       3    O2      16.249322   21.740262   21.376224 O.co2      1 MOL1        -0.6703
       4    C2      18.456038   21.254593   22.042861 C.3        1 MOL1        -0.1963
       5    H1      18.234437   21.894641   22.905295 H          1 MOL1         0.0750
       6    H2      19.411733   21.592995   21.624844 H          1 MOL1         0.0750
       7    C3      18.561325   19.775129   22.488037 C.3        1 MOL1        -0.1860
       8    H3      17.593293   19.447728   22.892038 H          1 MOL1         0.0752
       9    H4      18.770327   19.146553   21.611255 H          1 MOL1         0.0752
      10    C4      19.664829   19.570980   23.548580 C.3        1 MOL1        -0.1858
      11    H5      19.452062   20.201414   24.422705 H          1 MOL1         0.0752
      12    H6      20.625097   19.910336   23.142454 H          1 MOL1         0.0752
      13    C5      19.761934   18.092924   23.994287 C.3        1 MOL1        -0.1858
      14    H7      18.793533   17.800815   24.422993 H          1 MOL1         0.0752
      15    H8      19.920915   17.440738   23.124691 H          1 MOL1         0.0752
      16    C6      20.864117   17.842203   25.054832 C.3        1 MOL1        -0.1858
      17    H9      20.498638   17.076154   25.752301 H          1 MOL1         0.0752
      18    H10     21.023118   18.745051   25.660159 H          1 MOL1         0.0752
      19    C7      22.212886   17.342764   24.480129 C.3        1 MOL1        -0.1834
      20    H11     22.888018   17.121121   25.318128 H          1 MOL1         0.0752
      21    H12     22.058148   16.392391   23.950897 H          1 MOL1         0.0752
      22    C8      22.908892   18.346080   23.537099 C.3        1 MOL1        -0.2849
      23    H13     23.017587   19.327544   24.016551 H          1 MOL1         0.0764
      24    H14     23.910721   17.987825   23.267385 H          1 MOL1         0.0764
      25    H15     22.341947   18.472641   22.606410 H          1 MOL1         0.0764
@<TRIPOS>BOND
    1     1     2    1
    2     1     3    2
    3     1     4    1
    4     4     5    1
    5     4     6    1
    6     4     7    1
    7     7     8    1
    8     7     9    1
    9     7    10    1
   10    10    11    1
   11    10    12    1
   12    10    13    1
   13    13    14    1
   14    13    15    1
   15    13    16    1
   16    16    17    1
   17    16    18    1
   18    16    19    1
   19    19    20    1
   20    19    21    1
   21    19    22    1
   22    22    23    1
   23    22    24    1
   24    22    25    1
@<TRIPOS>SUBSTRUCTURE
       1 MOL1            1 RESIDUE      1      MOL     
@<SCITEGIC>MOL_PROPERTY
VConf Rank
SciTegic.value.IntegerValue
907

@<SCITEGIC>MOL_PROPERTY
Conf_Id
SciTegic.value.IntegerValue
125

@<SCITEGIC>MOL_PROPERTY
Delta U+W
SciTegic.value.DoubleValue
2.314

@<SCITEGIC>MOL_PROPERTY
U+W
SciTegic.value.DoubleValue
-49.315

@<SCITEGIC>MOL_PROPERTY
Grad RMS
SciTegic.value.DoubleValue
0.000000

@<SCITEGIC>MOL_PROPERTY
U
SciTegic.value.DoubleValue
9.740

@<SCITEGIC>MOL_PROPERTY
W
SciTegic.value.DoubleValue
-59.054

@<SCITEGIC>MOL_PROPERTY
W(PB)
SciTegic.value.DoubleValue
-61.488

@<SCITEGIC>MOL_PROPERTY
W(SA)
SciTegic.value.DoubleValue
2.433

@<SCITEGIC>MOL_PROPERTY
Valence
SciTegic.value.DoubleValue
10.506

@<SCITEGIC>MOL_PROPERTY
Coulomb
SciTegic.value.DoubleValue
-1.761

@<SCITEGIC>MOL_PROPERTY
VdW
SciTegic.value.DoubleValue
0.994

@<SCITEGIC>MOL_PROPERTY
VdW6
SciTegic.value.DoubleValue
-9.209

@<SCITEGIC>MOL_PROPERTY
VdW12
SciTegic.value.DoubleValue
10.203

@<SCITEGIC>MOL_PROPERTY
Bond
SciTegic.value.DoubleValue
0.193

@<SCITEGIC>MOL_PROPERTY
Angle
SciTegic.value.DoubleValue
2.979

@<SCITEGIC>MOL_PROPERTY
Pdih
SciTegic.value.DoubleValue
7.334

@<SCITEGIC>MOL_PROPERTY
Idih
SciTegic.value.DoubleValue
0.001

@<SCITEGIC>MOL_PROPERTY
Tether
SciTegic.value.DoubleValue
0.000

@<TRIPOS>MOLECULE
guest-8_confgen4.mol2 : confsearch ligand conformer 908
          25          24           1
SMALL
USER_CHARGES
 
@<TRIPOS>ATOM
       1    C1      20.254899   18.711152   19.236334 C.2        1 MOL1         0.6168
       2    O1      19.634980   17.693749   18.996993 O.co2      1 MOL1        -0.6703
       3    O2      20.886917   19.326635   18.400585 O.co2      1 MOL1        -0.6703
       4    C2      20.259962   19.231061   20.669403 C.3        1 MOL1        -0.1963
       5    H1      19.289511   18.986411   21.115599 H          1 MOL1         0.0750
       6    H2      20.336244   20.324360   20.634269 H          1 MOL1         0.0750
       7    C3      21.416626   18.640701   21.517252 C.3        1 MOL1        -0.1860
       8    H3      21.302783   17.549874   21.584064 H          1 MOL1         0.0752
       9    H4      22.365519   18.821832   20.993573 H          1 MOL1         0.0752
      10    C4      21.512080   19.244526   22.938672 C.3        1 MOL1        -0.1858
      11    H5      21.635502   20.333921   22.868264 H          1 MOL1         0.0752
      12    H6      22.421336   18.859176   23.419992 H          1 MOL1         0.0752
      13    C5      20.292142   18.915330   23.830063 C.3        1 MOL1        -0.1858
      14    H7      19.387934   19.355001   23.392200 H          1 MOL1         0.0752
      15    H8      20.141258   17.827677   23.858495 H          1 MOL1         0.0752
      16    C6      20.478504   19.448243   25.269673 C.3        1 MOL1        -0.1858
      17    H9      20.582755   20.541669   25.248692 H          1 MOL1         0.0752
      18    H10     21.418860   19.053876   25.678391 H          1 MOL1         0.0752
      19    C7      19.326724   19.056681   26.224608 C.3        1 MOL1        -0.1834
      20    H11     19.223151   17.963146   26.252192 H          1 MOL1         0.0752
      21    H12     19.592808   19.368756   27.243939 H          1 MOL1         0.0752
      22    C8      17.973526   19.697274   25.846348 C.3        1 MOL1        -0.2849
      23    H13     17.608274   19.322637   24.882022 H          1 MOL1         0.0764
      24    H14     17.213324   19.463034   26.602735 H          1 MOL1         0.0764
      25    H15     18.060333   20.789686   25.781490 H          1 MOL1         0.0764
@<TRIPOS>BOND
    1     1     2    1
    2     1     3    2
    3     1     4    1
    4     4     5    1
    5     4     6    1
    6     4     7    1
    7     7     8    1
    8     7     9    1
    9     7    10    1
   10    10    11    1
   11    10    12    1
   12    10    13    1
   13    13    14    1
   14    13    15    1
   15    13    16    1
   16    16    17    1
   17    16    18    1
   18    16    19    1
   19    19    20    1
   20    19    21    1
   21    19    22    1
   22    22    23    1
   23    22    24    1
   24    22    25    1
@<TRIPOS>SUBSTRUCTURE
       1 MOL1            1 RESIDUE      1      MOL     
@<SCITEGIC>MOL_PROPERTY
VConf Rank
SciTegic.value.IntegerValue
908

@<SCITEGIC>MOL_PROPERTY
Conf_Id
SciTegic.value.IntegerValue
4

@<SCITEGIC>MOL_PROPERTY
Delta U+W
SciTegic.value.DoubleValue
0.189

@<SCITEGIC>MOL_PROPERTY
U+W
SciTegic.value.DoubleValue
-51.441

@<SCITEGIC>MOL_PROPERTY
Grad RMS
SciTegic.value.DoubleValue
0.000000

@<SCITEGIC>MOL_PROPERTY
U
SciTegic.value.DoubleValue
7.701

@<SCITEGIC>MOL_PROPERTY
W
SciTegic.value.DoubleValue
-59.141

@<SCITEGIC>MOL_PROPERTY
W(PB)
SciTegic.value.DoubleValue
-61.609

@<SCITEGIC>MOL_PROPERTY
W(SA)
SciTegic.value.DoubleValue
2.467

@<SCITEGIC>MOL_PROPERTY
Valence
SciTegic.value.DoubleValue
8.550

@<SCITEGIC>MOL_PROPERTY
Coulomb
SciTegic.value.DoubleValue
-1.988

@<SCITEGIC>MOL_PROPERTY
VdW
SciTegic.value.DoubleValue
1.139

@<SCITEGIC>MOL_PROPERTY
VdW6
SciTegic.value.DoubleValue
-8.988

@<SCITEGIC>MOL_PROPERTY
VdW12
SciTegic.value.DoubleValue
10.127

@<SCITEGIC>MOL_PROPERTY
Bond
SciTegic.value.DoubleValue
0.191

@<SCITEGIC>MOL_PROPERTY
Angle
SciTegic.value.DoubleValue
2.738

@<SCITEGIC>MOL_PROPERTY
Pdih
SciTegic.value.DoubleValue
5.621

@<SCITEGIC>MOL_PROPERTY
Idih
SciTegic.value.DoubleValue
0.001

@<SCITEGIC>MOL_PROPERTY
Tether
SciTegic.value.DoubleValue
0.000

@<TRIPOS>MOLECULE
guest-8_confgen4.mol2 : confsearch ligand conformer 909
          25          24           1
SMALL
USER_CHARGES
 
@<TRIPOS>ATOM
       1    C1      22.292708   19.546246   26.690566 C.2        1 MOL1         0.6168
       2    O1      23.433271   19.311403   26.343207 O.co2      1 MOL1        -0.6703
       3    O2      21.994861   19.940693   27.800718 O.co2      1 MOL1        -0.6703
       4    C2      21.175934   19.358161   25.670045 C.3        1 MOL1        -0.1963
       5    H1      20.269215   19.059200   26.209341 H          1 MOL1         0.0750
       6    H2      21.457617   18.523350   25.018534 H          1 MOL1         0.0750
       7    C3      20.905154   20.636779   24.835148 C.3        1 MOL1        -0.1860
       8    H3      20.719562   21.473791   25.522472 H          1 MOL1         0.0752
       9    H4      21.806002   20.899150   24.263341 H          1 MOL1         0.0752
      10    C4      19.697389   20.505414   23.876919 C.3        1 MOL1        -0.1858
      11    H5      19.508637   21.485876   23.418684 H          1 MOL1         0.0752
      12    H6      18.796490   20.252822   24.452724 H          1 MOL1         0.0752
      13    C5      19.910580   19.459270   22.758292 C.3        1 MOL1        -0.1858
      14    H7      20.838572   19.685796   22.216001 H          1 MOL1         0.0752
      15    H8      20.032046   18.464616   23.203866 H          1 MOL1         0.0752
      16    C6      18.725062   19.437435   21.765684 C.3        1 MOL1        -0.1858
      17    H9      18.569443   20.451032   21.371667 H          1 MOL1         0.0752
      18    H10     17.802824   19.165199   22.296957 H          1 MOL1         0.0752
      19    C7      18.938394   18.475609   20.573545 C.3        1 MOL1        -0.1834
      20    H11     18.112230   18.608567   19.861503 H          1 MOL1         0.0752
      21    H12     19.857437   18.748338   20.036622 H          1 MOL1         0.0752
      22    C8      19.001268   16.989823   20.989567 C.3        1 MOL1        -0.2849
      23    H13     18.106059   16.702125   21.556083 H          1 MOL1         0.0764
      24    H14     19.061728   16.345353   20.103059 H          1 MOL1         0.0764
      25    H15     19.882580   16.784135   21.609785 H          1 MOL1         0.0764
@<TRIPOS>BOND
    1     1     2    1
    2     1     3    2
    3     1     4    1
    4     4     5    1
    5     4     6    1
    6     4     7    1
    7     7     8    1
    8     7     9    1
    9     7    10    1
   10    10    11    1
   11    10    12    1
   12    10    13    1
   13    13    14    1
   14    13    15    1
   15    13    16    1
   16    16    17    1
   17    16    18    1
   18    16    19    1
   19    19    20    1
   20    19    21    1
   21    19    22    1
   22    22    23    1
   23    22    24    1
   24    22    25    1
@<TRIPOS>SUBSTRUCTURE
       1 MOL1            1 RESIDUE      1      MOL     
@<SCITEGIC>MOL_PROPERTY
VConf Rank
SciTegic.value.IntegerValue
909

@<SCITEGIC>MOL_PROPERTY
Conf_Id
SciTegic.value.IntegerValue
17

@<SCITEGIC>MOL_PROPERTY
Delta U+W
SciTegic.value.DoubleValue
0.219

@<SCITEGIC>MOL_PROPERTY
U+W
SciTegic.value.DoubleValue
-51.411

@<SCITEGIC>MOL_PROPERTY
Grad RMS
SciTegic.value.DoubleValue
0.000000

@<SCITEGIC>MOL_PROPERTY
U
SciTegic.value.DoubleValue
7.701

@<SCITEGIC>MOL_PROPERTY
W
SciTegic.value.DoubleValue
-59.111

@<SCITEGIC>MOL_PROPERTY
W(PB)
SciTegic.value.DoubleValue
-61.599

@<SCITEGIC>MOL_PROPERTY
W(SA)
SciTegic.value.DoubleValue
2.488

@<SCITEGIC>MOL_PROPERTY
Valence
SciTegic.value.DoubleValue
8.550

@<SCITEGIC>MOL_PROPERTY
Coulomb
SciTegic.value.DoubleValue
-1.988

@<SCITEGIC>MOL_PROPERTY
VdW
SciTegic.value.DoubleValue
1.139

@<SCITEGIC>MOL_PROPERTY
VdW6
SciTegic.value.DoubleValue
-8.988

@<SCITEGIC>MOL_PROPERTY
VdW12
SciTegic.value.DoubleValue
10.127

@<SCITEGIC>MOL_PROPERTY
Bond
SciTegic.value.DoubleValue
0.191

@<SCITEGIC>MOL_PROPERTY
Angle
SciTegic.value.DoubleValue
2.738

@<SCITEGIC>MOL_PROPERTY
Pdih
SciTegic.value.DoubleValue
5.621

@<SCITEGIC>MOL_PROPERTY
Idih
SciTegic.value.DoubleValue
0.001

@<SCITEGIC>MOL_PROPERTY
Tether
SciTegic.value.DoubleValue
0.000

@<TRIPOS>MOLECULE
guest-8_confgen4.mol2 : confsearch ligand conformer 910
          25          24           1
SMALL
USER_CHARGES
 
@<TRIPOS>ATOM
       1    C1      17.106755   17.213445   22.140184 C.2        1 MOL1         0.6168
       2    O1      16.077542   17.517146   22.710753 O.co2      1 MOL1        -0.6703
       3    O2      17.632586   16.121983   22.236554 O.co2      1 MOL1        -0.6703
       4    C2      17.766496   18.251861   21.237209 C.3        1 MOL1        -0.1963
       5    H1      17.020419   19.011405   20.974079 H          1 MOL1         0.0750
       6    H2      18.046750   17.746322   20.305613 H          1 MOL1         0.0750
       7    C3      19.018535   18.922355   21.859890 C.3        1 MOL1        -0.1860
       8    H3      19.741284   18.141835   22.132086 H          1 MOL1         0.0752
       9    H4      19.501212   19.551820   21.100244 H          1 MOL1         0.0752
      10    C4      18.673755   19.787021   23.096107 C.3        1 MOL1        -0.1858
      11    H5      18.254754   19.153140   23.889803 H          1 MOL1         0.0752
      12    H6      17.885461   20.501809   22.823127 H          1 MOL1         0.0752
      13    C5      19.882365   20.577032   23.651864 C.3        1 MOL1        -0.1858
      14    H7      20.297594   21.218260   22.862395 H          1 MOL1         0.0752
      15    H8      19.523689   21.250327   24.442361 H          1 MOL1         0.0752
      16    C6      20.996118   19.673056   24.229286 C.3        1 MOL1        -0.1858
      17    H9      21.419046   19.045242   23.434359 H          1 MOL1         0.0752
      18    H10     20.566487   18.995095   24.979406 H          1 MOL1         0.0752
      19    C7      22.127565   20.502405   24.872524 C.3        1 MOL1        -0.1834
      20    H11     22.558289   21.183045   24.125085 H          1 MOL1         0.0752
      21    H12     21.717137   21.129222   25.676310 H          1 MOL1         0.0752
      22    C8      23.239166   19.599705   25.444537 C.3        1 MOL1        -0.2849
      23    H13     23.690200   18.984016   24.655312 H          1 MOL1         0.0764
      24    H14     24.034500   20.205430   25.897965 H          1 MOL1         0.0764
      25    H15     22.841498   18.928952   26.217408 H          1 MOL1         0.0764
@<TRIPOS>BOND
    1     1     2    1
    2     1     3    2
    3     1     4    1
    4     4     5    1
    5     4     6    1
    6     4     7    1
    7     7     8    1
    8     7     9    1
    9     7    10    1
   10    10    11    1
   11    10    12    1
   12    10    13    1
   13    13    14    1
   14    13    15    1
   15    13    16    1
   16    16    17    1
   17    16    18    1
   18    16    19    1
   19    19    20    1
   20    19    21    1
   21    19    22    1
   22    22    23    1
   23    22    24    1
   24    22    25    1
@<TRIPOS>SUBSTRUCTURE
       1 MOL1            1 RESIDUE      1      MOL     
@<SCITEGIC>MOL_PROPERTY
VConf Rank
SciTegic.value.IntegerValue
910

@<SCITEGIC>MOL_PROPERTY
Conf_Id
SciTegic.value.IntegerValue
142

@<SCITEGIC>MOL_PROPERTY
Delta U+W
SciTegic.value.DoubleValue
0.593

@<SCITEGIC>MOL_PROPERTY
U+W
SciTegic.value.DoubleValue
-51.037

@<SCITEGIC>MOL_PROPERTY
Grad RMS
SciTegic.value.DoubleValue
0.000000

@<SCITEGIC>MOL_PROPERTY
U
SciTegic.value.DoubleValue
8.903

@<SCITEGIC>MOL_PROPERTY
W
SciTegic.value.DoubleValue
-59.940

@<SCITEGIC>MOL_PROPERTY
W(PB)
SciTegic.value.DoubleValue
-62.418

@<SCITEGIC>MOL_PROPERTY
W(SA)
SciTegic.value.DoubleValue
2.478

@<SCITEGIC>MOL_PROPERTY
Valence
SciTegic.value.DoubleValue
8.305

@<SCITEGIC>MOL_PROPERTY
Coulomb
SciTegic.value.DoubleValue
-0.223

@<SCITEGIC>MOL_PROPERTY
VdW
SciTegic.value.DoubleValue
0.821

@<SCITEGIC>MOL_PROPERTY
VdW6
SciTegic.value.DoubleValue
-9.236

@<SCITEGIC>MOL_PROPERTY
VdW12
SciTegic.value.DoubleValue
10.057

@<SCITEGIC>MOL_PROPERTY
Bond
SciTegic.value.DoubleValue
0.173

@<SCITEGIC>MOL_PROPERTY
Angle
SciTegic.value.DoubleValue
2.663

@<SCITEGIC>MOL_PROPERTY
Pdih
SciTegic.value.DoubleValue
5.469

@<SCITEGIC>MOL_PROPERTY
Idih
SciTegic.value.DoubleValue
0.001

@<SCITEGIC>MOL_PROPERTY
Tether
SciTegic.value.DoubleValue
0.000

@<TRIPOS>MOLECULE
guest-8_confgen4.mol2 : confsearch ligand conformer 911
          25          24           1
SMALL
USER_CHARGES
 
@<TRIPOS>ATOM
       1    C1      18.485382   17.037767   21.244052 C.2        1 MOL1         0.6168
       2    O1      18.129200   15.877080   21.184898 O.co2      1 MOL1        -0.6703
       3    O2      17.777757   17.974670   20.930149 O.co2      1 MOL1        -0.6703
       4    C2      19.908310   17.329648   21.712049 C.3        1 MOL1        -0.1963
       5    H1      20.160122   18.363124   21.447821 H          1 MOL1         0.0750
       6    H2      20.580927   16.687943   21.131256 H          1 MOL1         0.0750
       7    C3      20.140920   17.080690   23.227319 C.3        1 MOL1        -0.1860
       8    H3      19.945964   16.021306   23.443830 H          1 MOL1         0.0752
       9    H4      21.200415   17.245207   23.462376 H          1 MOL1         0.0752
      10    C4      19.258201   17.947813   24.161957 C.3        1 MOL1        -0.1858
      11    H5      19.492655   17.693330   25.204486 H          1 MOL1         0.0752
      12    H6      18.204596   17.673481   24.014499 H          1 MOL1         0.0752
      13    C5      19.401507   19.479091   23.974933 C.3        1 MOL1        -0.1858
      14    H7      19.063289   19.765836   22.970174 H          1 MOL1         0.0752
      15    H8      18.719913   19.977646   24.677362 H          1 MOL1         0.0752
      16    C6      20.837852   19.999328   24.213539 C.3        1 MOL1        -0.1858
      17    H9      21.520186   19.564971   23.471341 H          1 MOL1         0.0752
      18    H10     21.187308   19.672194   25.202245 H          1 MOL1         0.0752
      19    C7      20.909254   21.538265   24.124030 C.3        1 MOL1        -0.1834
      20    H11     20.557537   21.867801   23.136519 H          1 MOL1         0.0752
      21    H12     20.235488   21.984741   24.868390 H          1 MOL1         0.0752
      22    C8      22.343371   22.055096   24.356163 C.3        1 MOL1        -0.2849
      23    H13     23.033515   21.649105   23.605004 H          1 MOL1         0.0764
      24    H14     22.375544   23.150318   24.289162 H          1 MOL1         0.0764
      25    H15     22.709128   21.765308   25.349942 H          1 MOL1         0.0764
@<TRIPOS>BOND
    1     1     2    1
    2     1     3    2
    3     1     4    1
    4     4     5    1
    5     4     6    1
    6     4     7    1
    7     7     8    1
    8     7     9    1
    9     7    10    1
   10    10    11    1
   11    10    12    1
   12    10    13    1
   13    13    14    1
   14    13    15    1
   15    13    16    1
   16    16    17    1
   17    16    18    1
   18    16    19    1
   19    19    20    1
   20    19    21    1
   21    19    22    1
   22    22    23    1
   23    22    24    1
   24    22    25    1
@<TRIPOS>SUBSTRUCTURE
       1 MOL1            1 RESIDUE      1      MOL     
@<SCITEGIC>MOL_PROPERTY
VConf Rank
SciTegic.value.IntegerValue
911

@<SCITEGIC>MOL_PROPERTY
Conf_Id
SciTegic.value.IntegerValue
135

@<SCITEGIC>MOL_PROPERTY
Delta U+W
SciTegic.value.DoubleValue
1.314

@<SCITEGIC>MOL_PROPERTY
U+W
SciTegic.value.DoubleValue
-50.316

@<SCITEGIC>MOL_PROPERTY
Grad RMS
SciTegic.value.DoubleValue
0.000000

@<SCITEGIC>MOL_PROPERTY
U
SciTegic.value.DoubleValue
9.773

@<SCITEGIC>MOL_PROPERTY
W
SciTegic.value.DoubleValue
-60.088

@<SCITEGIC>MOL_PROPERTY
W(PB)
SciTegic.value.DoubleValue
-62.535

@<SCITEGIC>MOL_PROPERTY
W(SA)
SciTegic.value.DoubleValue
2.447

@<SCITEGIC>MOL_PROPERTY
Valence
SciTegic.value.DoubleValue
8.741

@<SCITEGIC>MOL_PROPERTY
Coulomb
SciTegic.value.DoubleValue
0.479

@<SCITEGIC>MOL_PROPERTY
VdW
SciTegic.value.DoubleValue
0.552

@<SCITEGIC>MOL_PROPERTY
VdW6
SciTegic.value.DoubleValue
-10.627

@<SCITEGIC>MOL_PROPERTY
VdW12
SciTegic.value.DoubleValue
11.179

@<SCITEGIC>MOL_PROPERTY
Bond
SciTegic.value.DoubleValue
0.227

@<SCITEGIC>MOL_PROPERTY
Angle
SciTegic.value.DoubleValue
3.155

@<SCITEGIC>MOL_PROPERTY
Pdih
SciTegic.value.DoubleValue
5.358

@<SCITEGIC>MOL_PROPERTY
Idih
SciTegic.value.DoubleValue
0.001

@<SCITEGIC>MOL_PROPERTY
Tether
SciTegic.value.DoubleValue
0.000

@<TRIPOS>MOLECULE
guest-8_confgen4.mol2 : confsearch ligand conformer 912
          25          24           1
SMALL
USER_CHARGES
 
@<TRIPOS>ATOM
       1    C1      22.353369   22.193522   21.341090 C.2        1 MOL1         0.6168
       2    O1      22.223772   23.294189   21.839565 O.co2      1 MOL1        -0.6703
       3    O2      23.287783   21.883020   20.628890 O.co2      1 MOL1        -0.6703
       4    C2      21.297195   21.136756   21.644283 C.3        1 MOL1        -0.1963
       5    H1      21.217888   20.475964   20.772841 H          1 MOL1         0.0750
       6    H2      20.335372   21.649997   21.752221 H          1 MOL1         0.0750
       7    C3      21.624860   20.309655   22.914861 C.3        1 MOL1        -0.1860
       8    H3      22.635551   19.891576   22.809212 H          1 MOL1         0.0752
       9    H4      21.654551   20.973988   23.789538 H          1 MOL1         0.0752
      10    C4      20.635336   19.148017   23.172487 C.3        1 MOL1        -0.1858
      11    H5      21.038385   18.538065   23.990717 H          1 MOL1         0.0752
      12    H6      20.588291   18.499254   22.287348 H          1 MOL1         0.0752
      13    C5      19.212405   19.622791   23.552382 C.3        1 MOL1        -0.1858
      14    H7      19.261599   20.221797   24.471819 H          1 MOL1         0.0752
      15    H8      18.826659   20.288890   22.770726 H          1 MOL1         0.0752
      16    C6      18.189124   18.474400   23.740964 C.3        1 MOL1        -0.1858
      17    H9      18.061979   17.925448   22.797888 H          1 MOL1         0.0752
      18    H10     17.213533   18.933233   23.952075 H          1 MOL1         0.0752
      19    C7      18.518853   17.492681   24.893227 C.3        1 MOL1        -0.1834
      20    H11     19.123483   17.994866   25.660994 H          1 MOL1         0.0752
      21    H12     17.581072   17.201196   25.386081 H          1 MOL1         0.0752
      22    C8      19.225104   16.205697   24.411409 C.3        1 MOL1        -0.2849
      23    H13     20.177535   16.424059   23.915112 H          1 MOL1         0.0764
      24    H14     19.433372   15.541223   25.259881 H          1 MOL1         0.0764
      25    H15     18.592641   15.656095   23.702177 H          1 MOL1         0.0764
@<TRIPOS>BOND
    1     1     2    1
    2     1     3    2
    3     1     4    1
    4     4     5    1
    5     4     6    1
    6     4     7    1
    7     7     8    1
    8     7     9    1
    9     7    10    1
   10    10    11    1
   11    10    12    1
   12    10    13    1
   13    13    14    1
   14    13    15    1
   15    13    16    1
   16    16    17    1
   17    16    18    1
   18    16    19    1
   19    19    20    1
   20    19    21    1
   21    19    22    1
   22    22    23    1
   23    22    24    1
   24    22    25    1
@<TRIPOS>SUBSTRUCTURE
       1 MOL1            1 RESIDUE      1      MOL     
@<SCITEGIC>MOL_PROPERTY
VConf Rank
SciTegic.value.IntegerValue
912

@<SCITEGIC>MOL_PROPERTY
Conf_Id
SciTegic.value.IntegerValue
19

@<SCITEGIC>MOL_PROPERTY
Delta U+W
SciTegic.value.DoubleValue
3.222

@<SCITEGIC>MOL_PROPERTY
U+W
SciTegic.value.DoubleValue
-48.407

@<SCITEGIC>MOL_PROPERTY
Grad RMS
SciTegic.value.DoubleValue
0.000000

@<SCITEGIC>MOL_PROPERTY
U
SciTegic.value.DoubleValue
10.617

@<SCITEGIC>MOL_PROPERTY
W
SciTegic.value.DoubleValue
-59.025

@<SCITEGIC>MOL_PROPERTY
W(PB)
SciTegic.value.DoubleValue
-61.462

@<SCITEGIC>MOL_PROPERTY
W(SA)
SciTegic.value.DoubleValue
2.437

@<SCITEGIC>MOL_PROPERTY
Valence
SciTegic.value.DoubleValue
11.188

@<SCITEGIC>MOL_PROPERTY
Coulomb
SciTegic.value.DoubleValue
-1.778

@<SCITEGIC>MOL_PROPERTY
VdW
SciTegic.value.DoubleValue
1.208

@<SCITEGIC>MOL_PROPERTY
VdW6
SciTegic.value.DoubleValue
-9.786

@<SCITEGIC>MOL_PROPERTY
VdW12
SciTegic.value.DoubleValue
10.993

@<SCITEGIC>MOL_PROPERTY
Bond
SciTegic.value.DoubleValue
0.241

@<SCITEGIC>MOL_PROPERTY
Angle
SciTegic.value.DoubleValue
3.294

@<SCITEGIC>MOL_PROPERTY
Pdih
SciTegic.value.DoubleValue
7.653

@<SCITEGIC>MOL_PROPERTY
Idih
SciTegic.value.DoubleValue
0.001

@<SCITEGIC>MOL_PROPERTY
Tether
SciTegic.value.DoubleValue
0.000

@<TRIPOS>MOLECULE
guest-8_confgen4.mol2 : confsearch ligand conformer 913
          25          24           1
SMALL
USER_CHARGES
 
@<TRIPOS>ATOM
       1    C1      18.821774   15.564393   21.544082 C.2        1 MOL1         0.6168
       2    O1      17.841095   15.090172   22.082714 O.co2      1 MOL1        -0.6703
       3    O2      19.586642   14.921585   20.852312 O.co2      1 MOL1        -0.6703
       4    C2      19.122186   17.042246   21.767430 C.3        1 MOL1        -0.1963
       5    H1      18.164224   17.564991   21.863444 H          1 MOL1         0.0750
       6    H2      19.615301   17.428420   20.867399 H          1 MOL1         0.0750
       7    C3      20.011793   17.291061   23.013431 C.3        1 MOL1        -0.1860
       8    H3      19.488311   16.944444   23.915155 H          1 MOL1         0.0752
       9    H4      20.917548   16.675196   22.925309 H          1 MOL1         0.0752
      10    C4      20.435787   18.768994   23.189154 C.3        1 MOL1        -0.1858
      11    H5      20.936533   19.120909   22.277020 H          1 MOL1         0.0752
      12    H6      21.179330   18.812073   23.994931 H          1 MOL1         0.0752
      13    C5      19.258953   19.710735   23.539369 C.3        1 MOL1        -0.1858
      14    H7      18.478802   19.624170   22.772983 H          1 MOL1         0.0752
      15    H8      18.801332   19.386236   24.483763 H          1 MOL1         0.0752
      16    C6      19.652217   21.205907   23.645573 C.3        1 MOL1        -0.1858
      17    H9      18.733587   21.775489   23.841954 H          1 MOL1         0.0752
      18    H10     20.024588   21.566455   22.676940 H          1 MOL1         0.0752
      19    C7      20.670032   21.532242   24.767073 C.3        1 MOL1        -0.1834
      20    H11     20.401547   22.498836   25.215307 H          1 MOL1         0.0752
      21    H12     20.598153   20.791062   25.574984 H          1 MOL1         0.0752
      22    C8      22.125220   21.630167   24.257070 C.3        1 MOL1        -0.2849
      23    H13     22.222101   22.423728   23.504769 H          1 MOL1         0.0764
      24    H14     22.806972   21.866872   25.084107 H          1 MOL1         0.0764
      25    H15     22.462618   20.691587   23.802814 H          1 MOL1         0.0764
@<TRIPOS>BOND
    1     1     2    1
    2     1     3    2
    3     1     4    1
    4     4     5    1
    5     4     6    1
    6     4     7    1
    7     7     8    1
    8     7     9    1
    9     7    10    1
   10    10    11    1
   11    10    12    1
   12    10    13    1
   13    13    14    1
   14    13    15    1
   15    13    16    1
   16    16    17    1
   17    16    18    1
   18    16    19    1
   19    19    20    1
   20    19    21    1
   21    19    22    1
   22    22    23    1
   23    22    24    1
   24    22    25    1
@<TRIPOS>SUBSTRUCTURE
       1 MOL1            1 RESIDUE      1      MOL     
@<SCITEGIC>MOL_PROPERTY
VConf Rank
SciTegic.value.IntegerValue
913

@<SCITEGIC>MOL_PROPERTY
Conf_Id
SciTegic.value.IntegerValue
20

@<SCITEGIC>MOL_PROPERTY
Delta U+W
SciTegic.value.DoubleValue
3.224

@<SCITEGIC>MOL_PROPERTY
U+W
SciTegic.value.DoubleValue
-48.406

@<SCITEGIC>MOL_PROPERTY
Grad RMS
SciTegic.value.DoubleValue
0.000000

@<SCITEGIC>MOL_PROPERTY
U
SciTegic.value.DoubleValue
10.617

@<SCITEGIC>MOL_PROPERTY
W
SciTegic.value.DoubleValue
-59.023

@<SCITEGIC>MOL_PROPERTY
W(PB)
SciTegic.value.DoubleValue
-61.467

@<SCITEGIC>MOL_PROPERTY
W(SA)
SciTegic.value.DoubleValue
2.444

@<SCITEGIC>MOL_PROPERTY
Valence
SciTegic.value.DoubleValue
11.188

@<SCITEGIC>MOL_PROPERTY
Coulomb
SciTegic.value.DoubleValue
-1.778

@<SCITEGIC>MOL_PROPERTY
VdW
SciTegic.value.DoubleValue
1.208

@<SCITEGIC>MOL_PROPERTY
VdW6
SciTegic.value.DoubleValue
-9.786

@<SCITEGIC>MOL_PROPERTY
VdW12
SciTegic.value.DoubleValue
10.993

@<SCITEGIC>MOL_PROPERTY
Bond
SciTegic.value.DoubleValue
0.241

@<SCITEGIC>MOL_PROPERTY
Angle
SciTegic.value.DoubleValue
3.294

@<SCITEGIC>MOL_PROPERTY
Pdih
SciTegic.value.DoubleValue
7.653

@<SCITEGIC>MOL_PROPERTY
Idih
SciTegic.value.DoubleValue
0.001

@<SCITEGIC>MOL_PROPERTY
Tether
SciTegic.value.DoubleValue
0.000

@<TRIPOS>MOLECULE
guest-8_confgen4.mol2 : confsearch ligand conformer 914
          25          24           1
SMALL
USER_CHARGES
 
@<TRIPOS>ATOM
       1    C1      20.073589   16.101876   23.999965 C.2        1 MOL1         0.6168
       2    O1      21.253192   15.850579   24.151732 O.co2      1 MOL1        -0.6703
       3    O2      19.473458   15.902015   22.962123 O.co2      1 MOL1        -0.6703
       4    C2      19.286319   16.635369   25.195365 C.3        1 MOL1        -0.1963
       5    H1      19.309711   15.846738   25.956273 H          1 MOL1         0.0750
       6    H2      18.236286   16.759326   24.904067 H          1 MOL1         0.0750
       7    C3      19.832514   17.952515   25.814966 C.3        1 MOL1        -0.1860
       8    H3      19.442514   18.032888   26.838621 H          1 MOL1         0.0752
       9    H4      20.925650   17.895660   25.911996 H          1 MOL1         0.0752
      10    C4      19.433243   19.242118   25.055629 C.3        1 MOL1        -0.1858
      11    H5      19.741434   20.105029   25.661751 H          1 MOL1         0.0752
      12    H6      18.339289   19.298521   24.972452 H          1 MOL1         0.0752
      13    C5      20.067924   19.369203   23.652184 C.3        1 MOL1        -0.1858
      14    H7      21.152528   19.208503   23.721861 H          1 MOL1         0.0752
      15    H8      19.669128   18.589738   22.990821 H          1 MOL1         0.0752
      16    C6      19.788811   20.751082   23.022044 C.3        1 MOL1        -0.1858
      17    H9      20.191469   21.540014   23.671981 H          1 MOL1         0.0752
      18    H10     18.703917   20.911988   22.957653 H          1 MOL1         0.0752
      19    C7      20.412443   20.874885   21.615939 C.3        1 MOL1        -0.1834
      20    H11     21.497904   20.715202   21.677032 H          1 MOL1         0.0752
      21    H12     20.010671   20.088145   20.962313 H          1 MOL1         0.0752
      22    C8      20.131678   22.255406   20.989041 C.3        1 MOL1        -0.2849
      23    H13     20.550866   23.060086   21.607218 H          1 MOL1         0.0764
      24    H14     20.581994   22.325613   19.990367 H          1 MOL1         0.0764
      25    H15     19.052277   22.428222   20.887050 H          1 MOL1         0.0764
@<TRIPOS>BOND
    1     1     2    1
    2     1     3    2
    3     1     4    1
    4     4     5    1
    5     4     6    1
    6     4     7    1
    7     7     8    1
    8     7     9    1
    9     7    10    1
   10    10    11    1
   11    10    12    1
   12    10    13    1
   13    13    14    1
   14    13    15    1
   15    13    16    1
   16    16    17    1
   17    16    18    1
   18    16    19    1
   19    19    20    1
   20    19    21    1
   21    19    22    1
   22    22    23    1
   23    22    24    1
   24    22    25    1
@<TRIPOS>SUBSTRUCTURE
       1 MOL1            1 RESIDUE      1      MOL     
@<SCITEGIC>MOL_PROPERTY
VConf Rank
SciTegic.value.IntegerValue
914

@<SCITEGIC>MOL_PROPERTY
Conf_Id
SciTegic.value.IntegerValue
24

@<SCITEGIC>MOL_PROPERTY
Delta U+W
SciTegic.value.DoubleValue
1.784

@<SCITEGIC>MOL_PROPERTY
U+W
SciTegic.value.DoubleValue
-49.846

@<SCITEGIC>MOL_PROPERTY
Grad RMS
SciTegic.value.DoubleValue
0.000000

@<SCITEGIC>MOL_PROPERTY
U
SciTegic.value.DoubleValue
10.904

@<SCITEGIC>MOL_PROPERTY
W
SciTegic.value.DoubleValue
-60.749

@<SCITEGIC>MOL_PROPERTY
W(PB)
SciTegic.value.DoubleValue
-63.220

@<SCITEGIC>MOL_PROPERTY
W(SA)
SciTegic.value.DoubleValue
2.471

@<SCITEGIC>MOL_PROPERTY
Valence
SciTegic.value.DoubleValue
9.445

@<SCITEGIC>MOL_PROPERTY
Coulomb
SciTegic.value.DoubleValue
0.780

@<SCITEGIC>MOL_PROPERTY
VdW
SciTegic.value.DoubleValue
0.679

@<SCITEGIC>MOL_PROPERTY
VdW6
SciTegic.value.DoubleValue
-10.008

@<SCITEGIC>MOL_PROPERTY
VdW12
SciTegic.value.DoubleValue
10.687

@<SCITEGIC>MOL_PROPERTY
Bond
SciTegic.value.DoubleValue
0.201

@<SCITEGIC>MOL_PROPERTY
Angle
SciTegic.value.DoubleValue
3.198

@<SCITEGIC>MOL_PROPERTY
Pdih
SciTegic.value.DoubleValue
6.039

@<SCITEGIC>MOL_PROPERTY
Idih
SciTegic.value.DoubleValue
0.006

@<SCITEGIC>MOL_PROPERTY
Tether
SciTegic.value.DoubleValue
0.000

@<TRIPOS>MOLECULE
guest-8_confgen4.mol2 : confsearch ligand conformer 915
          25          24           1
SMALL
USER_CHARGES
 
@<TRIPOS>ATOM
       1    C1      20.786277   16.995474   25.991779 C.2        1 MOL1         0.6168
       2    O1      20.425077   15.894492   25.624336 O.co2      1 MOL1        -0.6703
       3    O2      21.949011   17.349036   26.007970 O.co2      1 MOL1        -0.6703
       4    C2      19.731981   17.964039   26.524444 C.3        1 MOL1        -0.1963
       5    H1      20.228483   18.883241   26.858120 H          1 MOL1         0.0750
       6    H2      19.306674   17.494791   27.419088 H          1 MOL1         0.0750
       7    C3      18.581435   18.302020   25.534942 C.3        1 MOL1        -0.1860
       8    H3      18.226427   17.384254   25.045790 H          1 MOL1         0.0752
       9    H4      17.731887   18.680465   26.119303 H          1 MOL1         0.0752
      10    C4      18.933618   19.369484   24.469309 C.3        1 MOL1        -0.1858
      11    H5      19.276165   20.287966   24.965180 H          1 MOL1         0.0752
      12    H6      18.012128   19.633878   23.932713 H          1 MOL1         0.0752
      13    C5      19.991843   18.908738   23.441448 C.3        1 MOL1        -0.1858
      14    H7      20.958618   18.765928   23.940408 H          1 MOL1         0.0752
      15    H8      19.699456   17.936521   23.021507 H          1 MOL1         0.0752
      16    C6      20.164402   19.934699   22.300309 C.3        1 MOL1        -0.1858
      17    H9      20.451981   20.907361   22.722515 H          1 MOL1         0.0752
      18    H10     19.203724   20.079723   21.787444 H          1 MOL1         0.0752
      19    C7      21.229085   19.480981   21.279543 C.3        1 MOL1        -0.1834
      20    H11     22.192138   19.336568   21.788736 H          1 MOL1         0.0752
      21    H12     20.943975   18.508477   20.854801 H          1 MOL1         0.0752
      22    C8      21.399510   20.507458   20.141577 C.3        1 MOL1        -0.2849
      23    H13     21.715482   21.482146   20.535936 H          1 MOL1         0.0764
      24    H14     22.159808   20.168853   19.425786 H          1 MOL1         0.0764
      25    H15     20.457823   20.647709   19.594833 H          1 MOL1         0.0764
@<TRIPOS>BOND
    1     1     2    1
    2     1     3    2
    3     1     4    1
    4     4     5    1
    5     4     6    1
    6     4     7    1
    7     7     8    1
    8     7     9    1
    9     7    10    1
   10    10    11    1
   11    10    12    1
   12    10    13    1
   13    13    14    1
   14    13    15    1
   15    13    16    1
   16    16    17    1
   17    16    18    1
   18    16    19    1
   19    19    20    1
   20    19    21    1
   21    19    22    1
   22    22    23    1
   23    22    24    1
   24    22    25    1
@<TRIPOS>SUBSTRUCTURE
       1 MOL1            1 RESIDUE      1      MOL     
@<SCITEGIC>MOL_PROPERTY
VConf Rank
SciTegic.value.IntegerValue
915

@<SCITEGIC>MOL_PROPERTY
Conf_Id
SciTegic.value.IntegerValue
9

@<SCITEGIC>MOL_PROPERTY
Delta U+W
SciTegic.value.DoubleValue
1.764

@<SCITEGIC>MOL_PROPERTY
U+W
SciTegic.value.DoubleValue
-49.865

@<SCITEGIC>MOL_PROPERTY
Grad RMS
SciTegic.value.DoubleValue
0.000000

@<SCITEGIC>MOL_PROPERTY
U
SciTegic.value.DoubleValue
10.902

@<SCITEGIC>MOL_PROPERTY
W
SciTegic.value.DoubleValue
-60.768

@<SCITEGIC>MOL_PROPERTY
W(PB)
SciTegic.value.DoubleValue
-63.223

@<SCITEGIC>MOL_PROPERTY
W(SA)
SciTegic.value.DoubleValue
2.456

@<SCITEGIC>MOL_PROPERTY
Valence
SciTegic.value.DoubleValue
9.445

@<SCITEGIC>MOL_PROPERTY
Coulomb
SciTegic.value.DoubleValue
0.778

@<SCITEGIC>MOL_PROPERTY
VdW
SciTegic.value.DoubleValue
0.679

@<SCITEGIC>MOL_PROPERTY
VdW6
SciTegic.value.DoubleValue
-10.007

@<SCITEGIC>MOL_PROPERTY
VdW12
SciTegic.value.DoubleValue
10.687

@<SCITEGIC>MOL_PROPERTY
Bond
SciTegic.value.DoubleValue
0.201

@<SCITEGIC>MOL_PROPERTY
Angle
SciTegic.value.DoubleValue
3.198

@<SCITEGIC>MOL_PROPERTY
Pdih
SciTegic.value.DoubleValue
6.040

@<SCITEGIC>MOL_PROPERTY
Idih
SciTegic.value.DoubleValue
0.006

@<SCITEGIC>MOL_PROPERTY
Tether
SciTegic.value.DoubleValue
0.000

@<TRIPOS>MOLECULE
guest-8_confgen4.mol2 : confsearch ligand conformer 916
          25          24           1
SMALL
USER_CHARGES
 
@<TRIPOS>ATOM
       1    C1      17.685966   16.274264   23.194461 C.2        1 MOL1         0.6168
       2    O1      18.074224   15.999166   22.076346 O.co2      1 MOL1        -0.6703
       3    O2      17.042888   15.513133   23.890147 O.co2      1 MOL1        -0.6703
       4    C2      18.042635   17.642364   23.764378 C.3        1 MOL1        -0.1963
       5    H1      17.222587   17.959758   24.419389 H          1 MOL1         0.0750
       6    H2      18.079127   18.352189   22.932344 H          1 MOL1         0.0750
       7    C3      19.379432   17.633669   24.552125 C.3        1 MOL1        -0.1860
       8    H3      19.281579   16.911959   25.374924 H          1 MOL1         0.0752
       9    H4      20.192362   17.260603   23.913861 H          1 MOL1         0.0752
      10    C4      19.755201   19.014679   25.147019 C.3        1 MOL1        -0.1858
      11    H5      20.251075   18.846612   26.112825 H          1 MOL1         0.0752
      12    H6      18.848419   19.591819   25.373943 H          1 MOL1         0.0752
      13    C5      20.717353   19.855802   24.270928 C.3        1 MOL1        -0.1858
      14    H7      20.979461   20.767658   24.824433 H          1 MOL1         0.0752
      15    H8      21.653302   19.299114   24.131200 H          1 MOL1         0.0752
      16    C6      20.137372   20.254517   22.893314 C.3        1 MOL1        -0.1858
      17    H9      19.131235   20.672001   23.034000 H          1 MOL1         0.0752
      18    H10     20.026957   19.361389   22.264523 H          1 MOL1         0.0752
      19    C7      21.002196   21.294232   22.143243 C.3        1 MOL1        -0.1834
      20    H11     20.475873   21.596112   21.227265 H          1 MOL1         0.0752
      21    H12     21.105912   22.201279   22.754588 H          1 MOL1         0.0752
      22    C8      22.400789   20.762259   21.762101 C.3        1 MOL1        -0.2849
      23    H13     22.322564   19.840459   21.171076 H          1 MOL1         0.0764
      24    H14     22.943504   21.503903   21.161873 H          1 MOL1         0.0764
      25    H15     23.004337   20.549670   22.653397 H          1 MOL1         0.0764
@<TRIPOS>BOND
    1     1     2    1
    2     1     3    2
    3     1     4    1
    4     4     5    1
    5     4     6    1
    6     4     7    1
    7     7     8    1
    8     7     9    1
    9     7    10    1
   10    10    11    1
   11    10    12    1
   12    10    13    1
   13    13    14    1
   14    13    15    1
   15    13    16    1
   16    16    17    1
   17    16    18    1
   18    16    19    1
   19    19    20    1
   20    19    21    1
   21    19    22    1
   22    22    23    1
   23    22    24    1
   24    22    25    1
@<TRIPOS>SUBSTRUCTURE
       1 MOL1            1 RESIDUE      1      MOL     
@<SCITEGIC>MOL_PROPERTY
VConf Rank
SciTegic.value.IntegerValue
916

@<SCITEGIC>MOL_PROPERTY
Conf_Id
SciTegic.value.IntegerValue
89

@<SCITEGIC>MOL_PROPERTY
Delta U+W
SciTegic.value.DoubleValue
2.903

@<SCITEGIC>MOL_PROPERTY
U+W
SciTegic.value.DoubleValue
-48.726

@<SCITEGIC>MOL_PROPERTY
Grad RMS
SciTegic.value.DoubleValue
0.000000

@<SCITEGIC>MOL_PROPERTY
U
SciTegic.value.DoubleValue
10.996

@<SCITEGIC>MOL_PROPERTY
W
SciTegic.value.DoubleValue
-59.723

@<SCITEGIC>MOL_PROPERTY
W(PB)
SciTegic.value.DoubleValue
-62.151

@<SCITEGIC>MOL_PROPERTY
W(SA)
SciTegic.value.DoubleValue
2.428

@<SCITEGIC>MOL_PROPERTY
Valence
SciTegic.value.DoubleValue
10.985

@<SCITEGIC>MOL_PROPERTY
Coulomb
SciTegic.value.DoubleValue
-0.995

@<SCITEGIC>MOL_PROPERTY
VdW
SciTegic.value.DoubleValue
1.006

@<SCITEGIC>MOL_PROPERTY
VdW6
SciTegic.value.DoubleValue
-10.062

@<SCITEGIC>MOL_PROPERTY
VdW12
SciTegic.value.DoubleValue
11.069

@<SCITEGIC>MOL_PROPERTY
Bond
SciTegic.value.DoubleValue
0.238

@<SCITEGIC>MOL_PROPERTY
Angle
SciTegic.value.DoubleValue
3.202

@<SCITEGIC>MOL_PROPERTY
Pdih
SciTegic.value.DoubleValue
7.544

@<SCITEGIC>MOL_PROPERTY
Idih
SciTegic.value.DoubleValue
0.001

@<SCITEGIC>MOL_PROPERTY
Tether
SciTegic.value.DoubleValue
0.000

@<TRIPOS>MOLECULE
guest-8_confgen4.mol2 : confsearch ligand conformer 917
          25          24           1
SMALL
USER_CHARGES
 
@<TRIPOS>ATOM
       1    C1      18.339351   16.469427   25.034364 C.2        1 MOL1         0.6168
       2    O1      18.929579   15.521149   24.555134 O.co2      1 MOL1        -0.6703
       3    O2      18.353321   16.738418   26.219715 O.co2      1 MOL1        -0.6703
       4    C2      17.483653   17.328784   24.105638 C.3        1 MOL1        -0.1963
       5    H1      16.446669   17.199813   24.436558 H          1 MOL1         0.0750
       6    H2      17.541176   16.921764   23.088881 H          1 MOL1         0.0750
       7    C3      17.827349   18.845168   24.099838 C.3        1 MOL1        -0.1860
       8    H3      16.948090   19.389135   23.729101 H          1 MOL1         0.0752
       9    H4      17.988188   19.197581   25.128191 H          1 MOL1         0.0752
      10    C4      19.032562   19.237685   23.209148 C.3        1 MOL1        -0.1858
      11    H5      19.063058   20.333004   23.155629 H          1 MOL1         0.0752
      12    H6      18.864749   18.882784   22.183264 H          1 MOL1         0.0752
      13    C5      20.394448   18.712571   23.724807 C.3        1 MOL1        -0.1858
      14    H7      20.539235   19.013838   24.771251 H          1 MOL1         0.0752
      15    H8      20.386156   17.615914   23.714309 H          1 MOL1         0.0752
      16    C6      21.599952   19.182951   22.875762 C.3        1 MOL1        -0.1858
      17    H9      21.438778   18.909782   21.823988 H          1 MOL1         0.0752
      18    H10     22.491023   18.631719   23.205973 H          1 MOL1         0.0752
      19    C7      21.883290   20.698560   22.985709 C.3        1 MOL1        -0.1834
      20    H11     21.038938   21.273511   22.584172 H          1 MOL1         0.0752
      21    H12     21.989231   20.979836   24.042519 H          1 MOL1         0.0752
      22    C8      23.163696   21.090914   22.221043 C.3        1 MOL1        -0.2849
      23    H13     23.074772   20.845040   21.154738 H          1 MOL1         0.0764
      24    H14     23.349673   22.169464   22.305849 H          1 MOL1         0.0764
      25    H15     24.038960   20.563781   22.622772 H          1 MOL1         0.0764
@<TRIPOS>BOND
    1     1     2    1
    2     1     3    2
    3     1     4    1
    4     4     5    1
    5     4     6    1
    6     4     7    1
    7     7     8    1
    8     7     9    1
    9     7    10    1
   10    10    11    1
   11    10    12    1
   12    10    13    1
   13    13    14    1
   14    13    15    1
   15    13    16    1
   16    16    17    1
   17    16    18    1
   18    16    19    1
   19    19    20    1
   20    19    21    1
   21    19    22    1
   22    22    23    1
   23    22    24    1
   24    22    25    1
@<TRIPOS>SUBSTRUCTURE
       1 MOL1            1 RESIDUE      1      MOL     
@<SCITEGIC>MOL_PROPERTY
VConf Rank
SciTegic.value.IntegerValue
917

@<SCITEGIC>MOL_PROPERTY
Conf_Id
SciTegic.value.IntegerValue
114

@<SCITEGIC>MOL_PROPERTY
Delta U+W
SciTegic.value.DoubleValue
2.758

@<SCITEGIC>MOL_PROPERTY
U+W
SciTegic.value.DoubleValue
-48.871

@<SCITEGIC>MOL_PROPERTY
Grad RMS
SciTegic.value.DoubleValue
0.000000

@<SCITEGIC>MOL_PROPERTY
U
SciTegic.value.DoubleValue
11.422

@<SCITEGIC>MOL_PROPERTY
W
SciTegic.value.DoubleValue
-60.293

@<SCITEGIC>MOL_PROPERTY
W(PB)
SciTegic.value.DoubleValue
-62.719

@<SCITEGIC>MOL_PROPERTY
W(SA)
SciTegic.value.DoubleValue
2.425

@<SCITEGIC>MOL_PROPERTY
Valence
SciTegic.value.DoubleValue
10.135

@<SCITEGIC>MOL_PROPERTY
Coulomb
SciTegic.value.DoubleValue
0.369

@<SCITEGIC>MOL_PROPERTY
VdW
SciTegic.value.DoubleValue
0.918

@<SCITEGIC>MOL_PROPERTY
VdW6
SciTegic.value.DoubleValue
-10.482

@<SCITEGIC>MOL_PROPERTY
VdW12
SciTegic.value.DoubleValue
11.400

@<SCITEGIC>MOL_PROPERTY
Bond
SciTegic.value.DoubleValue
0.245

@<SCITEGIC>MOL_PROPERTY
Angle
SciTegic.value.DoubleValue
3.539

@<SCITEGIC>MOL_PROPERTY
Pdih
SciTegic.value.DoubleValue
6.346

@<SCITEGIC>MOL_PROPERTY
Idih
SciTegic.value.DoubleValue
0.006

@<SCITEGIC>MOL_PROPERTY
Tether
SciTegic.value.DoubleValue
0.000

@<TRIPOS>MOLECULE
guest-8_confgen4.mol2 : confsearch ligand conformer 918
          25          24           1
SMALL
USER_CHARGES
 
@<TRIPOS>ATOM
       1    C1      18.555705   19.839042   20.027610 C.2        1 MOL1         0.6168
       2    O1      19.445477   20.258652   19.313960 O.co2      1 MOL1        -0.6703
       3    O2      17.923577   18.828348   19.790945 O.co2      1 MOL1        -0.6703
       4    C2      18.196866   20.634589   21.279523 C.3        1 MOL1        -0.1963
       5    H1      17.103669   20.706787   21.320604 H          1 MOL1         0.0750
       6    H2      18.578344   21.656538   21.166073 H          1 MOL1         0.0750
       7    C3      18.724662   20.007667   22.596101 C.3        1 MOL1        -0.1860
       8    H3      18.314235   20.567434   23.447253 H          1 MOL1         0.0752
       9    H4      18.344224   18.981032   22.677430 H          1 MOL1         0.0752
      10    C4      20.270194   20.015212   22.676910 C.3        1 MOL1        -0.1858
      11    H5      20.630415   21.037667   22.498947 H          1 MOL1         0.0752
      12    H6      20.689681   19.395758   21.872169 H          1 MOL1         0.0752
      13    C5      20.821383   19.532223   24.039847 C.3        1 MOL1        -0.1858
      14    H7      21.903826   19.712208   24.050259 H          1 MOL1         0.0752
      15    H8      20.396089   20.144135   24.846823 H          1 MOL1         0.0752
      16    C6      20.547244   18.033830   24.319502 C.3        1 MOL1        -0.1858
      17    H9      20.969625   17.422651   23.510344 H          1 MOL1         0.0752
      18    H10     19.464940   17.853138   24.313827 H          1 MOL1         0.0752
      19    C7      21.105350   17.550242   25.678581 C.3        1 MOL1        -0.1834
      20    H11     20.693834   18.167005   26.489473 H          1 MOL1         0.0752
      21    H12     20.751894   16.525627   25.858786 H          1 MOL1         0.0752
      22    C8      22.648063   17.560607   25.748128 C.3        1 MOL1        -0.2849
      23    H13     22.992187   17.119681   26.692620 H          1 MOL1         0.0764
      24    H14     23.082453   16.977887   24.925416 H          1 MOL1         0.0764
      25    H15     23.045875   18.581559   25.695127 H          1 MOL1         0.0764
@<TRIPOS>BOND
    1     1     2    1
    2     1     3    2
    3     1     4    1
    4     4     5    1
    5     4     6    1
    6     4     7    1
    7     7     8    1
    8     7     9    1
    9     7    10    1
   10    10    11    1
   11    10    12    1
   12    10    13    1
   13    13    14    1
   14    13    15    1
   15    13    16    1
   16    16    17    1
   17    16    18    1
   18    16    19    1
   19    19    20    1
   20    19    21    1
   21    19    22    1
   22    22    23    1
   23    22    24    1
   24    22    25    1
@<TRIPOS>SUBSTRUCTURE
       1 MOL1            1 RESIDUE      1      MOL     
@<SCITEGIC>MOL_PROPERTY
VConf Rank
SciTegic.value.IntegerValue
918

@<SCITEGIC>MOL_PROPERTY
Conf_Id
SciTegic.value.IntegerValue
87

@<SCITEGIC>MOL_PROPERTY
Delta U+W
SciTegic.value.DoubleValue
1.453

@<SCITEGIC>MOL_PROPERTY
U+W
SciTegic.value.DoubleValue
-50.176

@<SCITEGIC>MOL_PROPERTY
Grad RMS
SciTegic.value.DoubleValue
0.000000

@<SCITEGIC>MOL_PROPERTY
U
SciTegic.value.DoubleValue
9.763

@<SCITEGIC>MOL_PROPERTY
W
SciTegic.value.DoubleValue
-59.940

@<SCITEGIC>MOL_PROPERTY
W(PB)
SciTegic.value.DoubleValue
-62.392

@<SCITEGIC>MOL_PROPERTY
W(SA)
SciTegic.value.DoubleValue
2.452

@<SCITEGIC>MOL_PROPERTY
Valence
SciTegic.value.DoubleValue
8.883

@<SCITEGIC>MOL_PROPERTY
Coulomb
SciTegic.value.DoubleValue
-0.122

@<SCITEGIC>MOL_PROPERTY
VdW
SciTegic.value.DoubleValue
1.003

@<SCITEGIC>MOL_PROPERTY
VdW6
SciTegic.value.DoubleValue
-9.782

@<SCITEGIC>MOL_PROPERTY
VdW12
SciTegic.value.DoubleValue
10.785

@<SCITEGIC>MOL_PROPERTY
Bond
SciTegic.value.DoubleValue
0.212

@<SCITEGIC>MOL_PROPERTY
Angle
SciTegic.value.DoubleValue
2.940

@<SCITEGIC>MOL_PROPERTY
Pdih
SciTegic.value.DoubleValue
5.730

@<SCITEGIC>MOL_PROPERTY
Idih
SciTegic.value.DoubleValue
0.001

@<SCITEGIC>MOL_PROPERTY
Tether
SciTegic.value.DoubleValue
0.000

@<TRIPOS>MOLECULE
guest-8_confgen4.mol2 : confsearch ligand conformer 919
          25          24           1
SMALL
USER_CHARGES
 
@<TRIPOS>ATOM
       1    C1      19.524331   15.178354   23.431196 C.2        1 MOL1         0.6168
       2    O1      18.378689   15.073721   23.039736 O.co2      1 MOL1        -0.6703
       3    O2      20.385743   14.347013   23.222428 O.co2      1 MOL1        -0.6703
       4    C2      19.906859   16.430722   24.211844 C.3        1 MOL1        -0.1963
       5    H1      20.679977   16.155734   24.939273 H          1 MOL1         0.0750
       6    H2      19.028546   16.759511   24.780209 H          1 MOL1         0.0750
       7    C3      20.412232   17.576284   23.300673 C.3        1 MOL1        -0.1860
       8    H3      21.286121   17.229983   22.731870 H          1 MOL1         0.0752
       9    H4      19.629893   17.819892   22.569655 H          1 MOL1         0.0752
      10    C4      20.786229   18.835472   24.116271 C.3        1 MOL1        -0.1858
      11    H5      21.517723   18.557626   24.887205 H          1 MOL1         0.0752
      12    H6      19.903458   19.205943   24.653740 H          1 MOL1         0.0752
      13    C5      21.393509   19.970565   23.254232 C.3        1 MOL1        -0.1858
      14    H7      21.684864   20.798984   23.913180 H          1 MOL1         0.0752
      15    H8      22.326641   19.610068   22.800605 H          1 MOL1         0.0752
      16    C6      20.473367   20.512521   22.128423 C.3        1 MOL1        -0.1858
      17    H9      20.314682   19.726325   21.378769 H          1 MOL1         0.0752
      18    H10     21.001583   21.319908   21.603444 H          1 MOL1         0.0752
      19    C7      19.096455   21.041836   22.599666 C.3        1 MOL1        -0.1834
      20    H11     18.528389   21.372509   21.719404 H          1 MOL1         0.0752
      21    H12     18.512625   20.227872   23.049597 H          1 MOL1         0.0752
      22    C8      19.202764   22.218660   23.593560 C.3        1 MOL1        -0.2849
      23    H13     19.797281   23.038263   23.169607 H          1 MOL1         0.0764
      24    H14     18.206017   22.611364   23.832322 H          1 MOL1         0.0764
      25    H15     19.671030   21.904242   24.534736 H          1 MOL1         0.0764
@<TRIPOS>BOND
    1     1     2    1
    2     1     3    2
    3     1     4    1
    4     4     5    1
    5     4     6    1
    6     4     7    1
    7     7     8    1
    8     7     9    1
    9     7    10    1
   10    10    11    1
   11    10    12    1
   12    10    13    1
   13    13    14    1
   14    13    15    1
   15    13    16    1
   16    16    17    1
   17    16    18    1
   18    16    19    1
   19    19    20    1
   20    19    21    1
   21    19    22    1
   22    22    23    1
   23    22    24    1
   24    22    25    1
@<TRIPOS>SUBSTRUCTURE
       1 MOL1            1 RESIDUE      1      MOL     
@<SCITEGIC>MOL_PROPERTY
VConf Rank
SciTegic.value.IntegerValue
919

@<SCITEGIC>MOL_PROPERTY
Conf_Id
SciTegic.value.IntegerValue
29

@<SCITEGIC>MOL_PROPERTY
Delta U+W
SciTegic.value.DoubleValue
0.850

@<SCITEGIC>MOL_PROPERTY
U+W
SciTegic.value.DoubleValue
-50.780

@<SCITEGIC>MOL_PROPERTY
Grad RMS
SciTegic.value.DoubleValue
0.000000

@<SCITEGIC>MOL_PROPERTY
U
SciTegic.value.DoubleValue
8.646

@<SCITEGIC>MOL_PROPERTY
W
SciTegic.value.DoubleValue
-59.426

@<SCITEGIC>MOL_PROPERTY
W(PB)
SciTegic.value.DoubleValue
-61.868

@<SCITEGIC>MOL_PROPERTY
W(SA)
SciTegic.value.DoubleValue
2.442

@<SCITEGIC>MOL_PROPERTY
Valence
SciTegic.value.DoubleValue
8.924

@<SCITEGIC>MOL_PROPERTY
Coulomb
SciTegic.value.DoubleValue
-1.171

@<SCITEGIC>MOL_PROPERTY
VdW
SciTegic.value.DoubleValue
0.894

@<SCITEGIC>MOL_PROPERTY
VdW6
SciTegic.value.DoubleValue
-10.223

@<SCITEGIC>MOL_PROPERTY
VdW12
SciTegic.value.DoubleValue
11.117

@<SCITEGIC>MOL_PROPERTY
Bond
SciTegic.value.DoubleValue
0.231

@<SCITEGIC>MOL_PROPERTY
Angle
SciTegic.value.DoubleValue
3.232

@<SCITEGIC>MOL_PROPERTY
Pdih
SciTegic.value.DoubleValue
5.461

@<SCITEGIC>MOL_PROPERTY
Idih
SciTegic.value.DoubleValue
0.001

@<SCITEGIC>MOL_PROPERTY
Tether
SciTegic.value.DoubleValue
0.000

@<TRIPOS>MOLECULE
guest-8_confgen4.mol2 : confsearch ligand conformer 920
          25          24           1
SMALL
USER_CHARGES
 
@<TRIPOS>ATOM
       1    C1      17.030545   17.047082   24.878154 C.2        1 MOL1         0.6168
       2    O1      17.421804   15.909824   24.704244 O.co2      1 MOL1        -0.6703
       3    O2      15.857824   17.365279   24.863454 O.co2      1 MOL1        -0.6703
       4    C2      18.069603   18.138567   25.108788 C.3        1 MOL1        -0.1963
       5    H1      18.921458   17.692195   25.635731 H          1 MOL1         0.0750
       6    H2      17.631893   18.889735   25.777099 H          1 MOL1         0.0750
       7    C3      18.544868   18.803902   23.793719 C.3        1 MOL1        -0.1860
       8    H3      18.960128   18.030244   23.134326 H          1 MOL1         0.0752
       9    H4      17.680612   19.238943   23.273195 H          1 MOL1         0.0752
      10    C4      19.602590   19.900871   24.055478 C.3        1 MOL1        -0.1858
      11    H5      20.483672   19.459654   24.539657 H          1 MOL1         0.0752
      12    H6      19.194131   20.627729   24.770642 H          1 MOL1         0.0752
      13    C5      20.030242   20.662904   22.776119 C.3        1 MOL1        -0.1858
      14    H7      19.152774   21.175685   22.359492 H          1 MOL1         0.0752
      15    H8      20.733499   21.458302   23.055676 H          1 MOL1         0.0752
      16    C6      20.665493   19.786848   21.664001 C.3        1 MOL1        -0.1858
      17    H9      20.943242   20.436526   20.823010 H          1 MOL1         0.0752
      18    H10     19.908637   19.097292   21.267835 H          1 MOL1         0.0752
      19    C7      21.909448   18.972067   22.096251 C.3        1 MOL1        -0.1834
      20    H11     21.635694   18.250456   22.877385 H          1 MOL1         0.0752
      21    H12     22.253079   18.376477   21.239458 H          1 MOL1         0.0752
      22    C8      23.076664   19.855206   22.587891 C.3        1 MOL1        -0.2849
      23    H13     22.811344   20.389946   23.508544 H          1 MOL1         0.0764
      24    H14     23.960005   19.240149   22.802697 H          1 MOL1         0.0764
      25    H15     23.356172   20.595767   21.827377 H          1 MOL1         0.0764
@<TRIPOS>BOND
    1     1     2    1
    2     1     3    2
    3     1     4    1
    4     4     5    1
    5     4     6    1
    6     4     7    1
    7     7     8    1
    8     7     9    1
    9     7    10    1
   10    10    11    1
   11    10    12    1
   12    10    13    1
   13    13    14    1
   14    13    15    1
   15    13    16    1
   16    16    17    1
   17    16    18    1
   18    16    19    1
   19    19    20    1
   20    19    21    1
   21    19    22    1
   22    22    23    1
   23    22    24    1
   24    22    25    1
@<TRIPOS>SUBSTRUCTURE
       1 MOL1            1 RESIDUE      1      MOL     
@<SCITEGIC>MOL_PROPERTY
VConf Rank
SciTegic.value.IntegerValue
920

@<SCITEGIC>MOL_PROPERTY
Conf_Id
SciTegic.value.IntegerValue
30

@<SCITEGIC>MOL_PROPERTY
Delta U+W
SciTegic.value.DoubleValue
0.843

@<SCITEGIC>MOL_PROPERTY
U+W
SciTegic.value.DoubleValue
-50.787

@<SCITEGIC>MOL_PROPERTY
Grad RMS
SciTegic.value.DoubleValue
0.000000

@<SCITEGIC>MOL_PROPERTY
U
SciTegic.value.DoubleValue
8.647

@<SCITEGIC>MOL_PROPERTY
W
SciTegic.value.DoubleValue
-59.434

@<SCITEGIC>MOL_PROPERTY
W(PB)
SciTegic.value.DoubleValue
-61.861

@<SCITEGIC>MOL_PROPERTY
W(SA)
SciTegic.value.DoubleValue
2.428

@<SCITEGIC>MOL_PROPERTY
Valence
SciTegic.value.DoubleValue
8.924

@<SCITEGIC>MOL_PROPERTY
Coulomb
SciTegic.value.DoubleValue
-1.170

@<SCITEGIC>MOL_PROPERTY
VdW
SciTegic.value.DoubleValue
0.894

@<SCITEGIC>MOL_PROPERTY
VdW6
SciTegic.value.DoubleValue
-10.224

@<SCITEGIC>MOL_PROPERTY
VdW12
SciTegic.value.DoubleValue
11.118

@<SCITEGIC>MOL_PROPERTY
Bond
SciTegic.value.DoubleValue
0.231

@<SCITEGIC>MOL_PROPERTY
Angle
SciTegic.value.DoubleValue
3.232

@<SCITEGIC>MOL_PROPERTY
Pdih
SciTegic.value.DoubleValue
5.460

@<SCITEGIC>MOL_PROPERTY
Idih
SciTegic.value.DoubleValue
0.000

@<SCITEGIC>MOL_PROPERTY
Tether
SciTegic.value.DoubleValue
0.000

@<TRIPOS>MOLECULE
guest-8_confgen4.mol2 : confsearch ligand conformer 921
          25          24           1
SMALL
USER_CHARGES
 
@<TRIPOS>ATOM
       1    C1      20.635651   23.783437   23.883565 C.2        1 MOL1         0.6168
       2    O1      20.113422   23.745978   24.981051 O.co2      1 MOL1        -0.6703
       3    O2      21.070448   24.804872   23.389864 O.co2      1 MOL1        -0.6703
       4    C2      20.765752   22.500401   23.061197 C.3        1 MOL1        -0.1963
       5    H1      21.830420   22.360199   22.840443 H          1 MOL1         0.0750
       6    H2      20.259457   22.672796   22.104195 H          1 MOL1         0.0750
       7    C3      20.196553   21.222577   23.733205 C.3        1 MOL1        -0.1860
       8    H3      20.703663   21.059470   24.694319 H          1 MOL1         0.0752
       9    H4      19.131265   21.372315   23.957358 H          1 MOL1         0.0752
      10    C4      20.368785   19.976916   22.836928 C.3        1 MOL1        -0.1858
      11    H5      21.434470   19.829240   22.614120 H          1 MOL1         0.0752
      12    H6      19.861071   20.142273   21.876709 H          1 MOL1         0.0752
      13    C5      19.801925   18.706996   23.507346 C.3        1 MOL1        -0.1858
      14    H7      20.309483   18.541367   24.467584 H          1 MOL1         0.0752
      15    H8      18.736229   18.854361   23.730233 H          1 MOL1         0.0752
      16    C6      19.973826   17.461119   22.611714 C.3        1 MOL1        -0.1858
      17    H9      21.039469   17.313533   22.388743 H          1 MOL1         0.0752
      18    H10     19.466249   17.626489   21.651448 H          1 MOL1         0.0752
      19    C7      19.407291   16.191690   23.281752 C.3        1 MOL1        -0.1834
      20    H11     19.914048   16.021962   24.241896 H          1 MOL1         0.0752
      21    H12     18.340841   16.334907   23.504603 H          1 MOL1         0.0752
      22    C8      19.580850   14.949871   22.384330 C.3        1 MOL1        -0.2849
      23    H13     20.641782   14.764393   22.171213 H          1 MOL1         0.0764
      24    H14     19.172880   14.057149   22.875954 H          1 MOL1         0.0764
      25    H15     19.056721   15.079680   21.428382 H          1 MOL1         0.0764
@<TRIPOS>BOND
    1     1     2    1
    2     1     3    2
    3     1     4    1
    4     4     5    1
    5     4     6    1
    6     4     7    1
    7     7     8    1
    8     7     9    1
    9     7    10    1
   10    10    11    1
   11    10    12    1
   12    10    13    1
   13    13    14    1
   14    13    15    1
   15    13    16    1
   16    16    17    1
   17    16    18    1
   18    16    19    1
   19    19    20    1
   20    19    21    1
   21    19    22    1
   22    22    23    1
   23    22    24    1
   24    22    25    1
@<TRIPOS>SUBSTRUCTURE
       1 MOL1            1 RESIDUE      1      MOL     
@<SCITEGIC>MOL_PROPERTY
VConf Rank
SciTegic.value.IntegerValue
921

@<SCITEGIC>MOL_PROPERTY
Conf_Id
SciTegic.value.IntegerValue
0

@<SCITEGIC>MOL_PROPERTY
Delta U+W
SciTegic.value.DoubleValue
0.000

@<SCITEGIC>MOL_PROPERTY
U+W
SciTegic.value.DoubleValue
-51.629

@<SCITEGIC>MOL_PROPERTY
Grad RMS
SciTegic.value.DoubleValue
0.000000

@<SCITEGIC>MOL_PROPERTY
U
SciTegic.value.DoubleValue
6.586

@<SCITEGIC>MOL_PROPERTY
W
SciTegic.value.DoubleValue
-58.216

@<SCITEGIC>MOL_PROPERTY
W(PB)
SciTegic.value.DoubleValue
-60.757

@<SCITEGIC>MOL_PROPERTY
W(SA)
SciTegic.value.DoubleValue
2.541

@<SCITEGIC>MOL_PROPERTY
Valence
SciTegic.value.DoubleValue
8.027

@<SCITEGIC>MOL_PROPERTY
Coulomb
SciTegic.value.DoubleValue
-2.892

@<SCITEGIC>MOL_PROPERTY
VdW
SciTegic.value.DoubleValue
1.451

@<SCITEGIC>MOL_PROPERTY
VdW6
SciTegic.value.DoubleValue
-7.931

@<SCITEGIC>MOL_PROPERTY
VdW12
SciTegic.value.DoubleValue
9.383

@<SCITEGIC>MOL_PROPERTY
Bond
SciTegic.value.DoubleValue
0.149

@<SCITEGIC>MOL_PROPERTY
Angle
SciTegic.value.DoubleValue
2.726

@<SCITEGIC>MOL_PROPERTY
Pdih
SciTegic.value.DoubleValue
5.152

@<SCITEGIC>MOL_PROPERTY
Idih
SciTegic.value.DoubleValue
0.000

@<SCITEGIC>MOL_PROPERTY
Tether
SciTegic.value.DoubleValue
0.000

@<TRIPOS>MOLECULE
guest-8_confgen4.mol2 : confsearch ligand conformer 922
          25          24           1
SMALL
USER_CHARGES
 
@<TRIPOS>ATOM
       1    C1      24.339923   17.288599   22.385231 C.2        1 MOL1         0.6168
       2    O1      24.650959   16.414668   23.170165 O.co2      1 MOL1        -0.6703
       3    O2      24.698412   17.309927   21.224347 O.co2      1 MOL1        -0.6703
       4    C2      23.430507   18.408399   22.878275 C.3        1 MOL1        -0.1963
       5    H1      23.691455   19.323806   22.333720 H          1 MOL1         0.0750
       6    H2      23.652897   18.586431   23.937262 H          1 MOL1         0.0750
       7    C3      21.926902   18.086926   22.694293 C.3        1 MOL1        -0.1860
       8    H3      21.723588   17.898374   21.630947 H          1 MOL1         0.0752
       9    H4      21.685079   17.160925   23.234328 H          1 MOL1         0.0752
      10    C4      21.027333   19.235089   23.200771 C.3        1 MOL1        -0.1858
      11    H5      21.272309   20.159476   22.659774 H          1 MOL1         0.0752
      12    H6      21.233977   19.421971   24.263575 H          1 MOL1         0.0752
      13    C5      19.529054   18.911694   23.016266 C.3        1 MOL1        -0.1858
      14    H7      19.322158   18.724849   21.953540 H          1 MOL1         0.0752
      15    H8      19.283868   17.987364   23.557192 H          1 MOL1         0.0752
      16    C6      18.628869   20.059385   23.522579 C.3        1 MOL1        -0.1858
      17    H9      18.873740   20.983859   22.981764 H          1 MOL1         0.0752
      18    H10     18.835525   20.246466   24.585307 H          1 MOL1         0.0752
      19    C7      17.131204   19.736271   23.338306 C.3        1 MOL1        -0.1834
      20    H11     16.920289   19.550352   22.276027 H          1 MOL1         0.0752
      21    H12     16.882066   18.812990   23.879576 H          1 MOL1         0.0752
      22    C8      16.235683   20.884691   23.845036 C.3        1 MOL1        -0.2849
      23    H13     15.174963   20.638222   23.706415 H          1 MOL1         0.0764
      24    H14     16.403373   21.071266   24.913898 H          1 MOL1         0.0764
      25    H15     16.441887   21.814171   23.298278 H          1 MOL1         0.0764
@<TRIPOS>BOND
    1     1     2    1
    2     1     3    2
    3     1     4    1
    4     4     5    1
    5     4     6    1
    6     4     7    1
    7     7     8    1
    8     7     9    1
    9     7    10    1
   10    10    11    1
   11    10    12    1
   12    10    13    1
   13    13    14    1
   14    13    15    1
   15    13    16    1
   16    16    17    1
   17    16    18    1
   18    16    19    1
   19    19    20    1
   20    19    21    1
   21    19    22    1
   22    22    23    1
   23    22    24    1
   24    22    25    1
@<TRIPOS>SUBSTRUCTURE
       1 MOL1            1 RESIDUE      1      MOL     
@<SCITEGIC>MOL_PROPERTY
VConf Rank
SciTegic.value.IntegerValue
922

@<SCITEGIC>MOL_PROPERTY
Conf_Id
SciTegic.value.IntegerValue
27

@<SCITEGIC>MOL_PROPERTY
Delta U+W
SciTegic.value.DoubleValue
-1.297

@<SCITEGIC>MOL_PROPERTY
U+W
SciTegic.value.DoubleValue
-52.926

@<SCITEGIC>MOL_PROPERTY
Grad RMS
SciTegic.value.DoubleValue
0.000000

@<SCITEGIC>MOL_PROPERTY
U
SciTegic.value.DoubleValue
5.617

@<SCITEGIC>MOL_PROPERTY
W
SciTegic.value.DoubleValue
-58.543

@<SCITEGIC>MOL_PROPERTY
W(PB)
SciTegic.value.DoubleValue
-61.065

@<SCITEGIC>MOL_PROPERTY
W(SA)
SciTegic.value.DoubleValue
2.522

@<SCITEGIC>MOL_PROPERTY
Valence
SciTegic.value.DoubleValue
7.531

@<SCITEGIC>MOL_PROPERTY
Coulomb
SciTegic.value.DoubleValue
-2.818

@<SCITEGIC>MOL_PROPERTY
VdW
SciTegic.value.DoubleValue
0.904

@<SCITEGIC>MOL_PROPERTY
VdW6
SciTegic.value.DoubleValue
-7.640

@<SCITEGIC>MOL_PROPERTY
VdW12
SciTegic.value.DoubleValue
8.544

@<SCITEGIC>MOL_PROPERTY
Bond
SciTegic.value.DoubleValue
0.115

@<SCITEGIC>MOL_PROPERTY
Angle
SciTegic.value.DoubleValue
2.271

@<SCITEGIC>MOL_PROPERTY
Pdih
SciTegic.value.DoubleValue
5.144

@<SCITEGIC>MOL_PROPERTY
Idih
SciTegic.value.DoubleValue
0.001

@<SCITEGIC>MOL_PROPERTY
Tether
SciTegic.value.DoubleValue
0.000

@<TRIPOS>MOLECULE
guest-8_confgen4.mol2 : confsearch ligand conformer 923
          25          24           1
SMALL
USER_CHARGES
 
@<TRIPOS>ATOM
       1    C1      17.879951   15.817296   23.274015 C.2        1 MOL1         0.6168
       2    O1      16.750266   16.035499   22.882514 O.co2      1 MOL1        -0.6703
       3    O2      18.681477   15.133309   22.668471 O.co2      1 MOL1        -0.6703
       4    C2      18.307774   16.422744   24.607943 C.3        1 MOL1        -0.1963
       5    H1      19.182565   15.873791   24.977047 H          1 MOL1         0.0750
       6    H2      17.496480   16.245398   25.323719 H          1 MOL1         0.0750
       7    C3      18.617042   17.940898   24.540817 C.3        1 MOL1        -0.1860
       8    H3      17.741684   18.473409   24.143512 H          1 MOL1         0.0752
       9    H4      18.779995   18.316831   25.559968 H          1 MOL1         0.0752
      10    C4      19.858502   18.256827   23.676679 C.3        1 MOL1        -0.1858
      11    H5      19.696043   17.899177   22.650464 H          1 MOL1         0.0752
      12    H6      20.727637   17.711718   24.069725 H          1 MOL1         0.0752
      13    C5      20.166596   19.769437   23.649852 C.3        1 MOL1        -0.1858
      14    H7      19.296939   20.313670   23.256664 H          1 MOL1         0.0752
      15    H8      20.332406   20.128711   24.674775 H          1 MOL1         0.0752
      16    C6      21.406453   20.085949   22.785889 C.3        1 MOL1        -0.1858
      17    H9      21.240813   19.726651   21.760902 H          1 MOL1         0.0752
      18    H10     22.276160   19.541527   23.178695 H          1 MOL1         0.0752
      19    C7      21.714502   21.597808   22.758340 C.3        1 MOL1        -0.1834
      20    H11     20.847213   22.145452   22.364160 H          1 MOL1         0.0752
      21    H12     21.882664   21.960331   23.781950 H          1 MOL1         0.0752
      22    C8      22.953091   21.909602   21.894462 C.3        1 MOL1        -0.2849
      23    H13     22.799851   21.585622   20.856699 H          1 MOL1         0.0764
      24    H14     23.157430   22.988146   21.886071 H          1 MOL1         0.0764
      25    H15     23.843110   21.399070   22.285124 H          1 MOL1         0.0764
@<TRIPOS>BOND
    1     1     2    1
    2     1     3    2
    3     1     4    1
    4     4     5    1
    5     4     6    1
    6     4     7    1
    7     7     8    1
    8     7     9    1
    9     7    10    1
   10    10    11    1
   11    10    12    1
   12    10    13    1
   13    13    14    1
   14    13    15    1
   15    13    16    1
   16    16    17    1
   17    16    18    1
   18    16    19    1
   19    19    20    1
   20    19    21    1
   21    19    22    1
   22    22    23    1
   23    22    24    1
   24    22    25    1
@<TRIPOS>SUBSTRUCTURE
       1 MOL1            1 RESIDUE      1      MOL     
@<SCITEGIC>MOL_PROPERTY
VConf Rank
SciTegic.value.IntegerValue
923

@<SCITEGIC>MOL_PROPERTY
Conf_Id
SciTegic.value.IntegerValue
37

@<SCITEGIC>MOL_PROPERTY
Delta U+W
SciTegic.value.DoubleValue
-0.230

@<SCITEGIC>MOL_PROPERTY
U+W
SciTegic.value.DoubleValue
-51.860

@<SCITEGIC>MOL_PROPERTY
Grad RMS
SciTegic.value.DoubleValue
0.000000

@<SCITEGIC>MOL_PROPERTY
U
SciTegic.value.DoubleValue
7.816

@<SCITEGIC>MOL_PROPERTY
W
SciTegic.value.DoubleValue
-59.675

@<SCITEGIC>MOL_PROPERTY
W(PB)
SciTegic.value.DoubleValue
-62.180

@<SCITEGIC>MOL_PROPERTY
W(SA)
SciTegic.value.DoubleValue
2.505

@<SCITEGIC>MOL_PROPERTY
Valence
SciTegic.value.DoubleValue
7.785

@<SCITEGIC>MOL_PROPERTY
Coulomb
SciTegic.value.DoubleValue
-0.713

@<SCITEGIC>MOL_PROPERTY
VdW
SciTegic.value.DoubleValue
0.744

@<SCITEGIC>MOL_PROPERTY
VdW6
SciTegic.value.DoubleValue
-8.514

@<SCITEGIC>MOL_PROPERTY
VdW12
SciTegic.value.DoubleValue
9.259

@<SCITEGIC>MOL_PROPERTY
Bond
SciTegic.value.DoubleValue
0.136

@<SCITEGIC>MOL_PROPERTY
Angle
SciTegic.value.DoubleValue
2.433

@<SCITEGIC>MOL_PROPERTY
Pdih
SciTegic.value.DoubleValue
5.216

@<SCITEGIC>MOL_PROPERTY
Idih
SciTegic.value.DoubleValue
0.000

@<SCITEGIC>MOL_PROPERTY
Tether
SciTegic.value.DoubleValue
0.000

@<TRIPOS>MOLECULE
guest-8_confgen4.mol2 : confsearch ligand conformer 924
          25          24           1
SMALL
USER_CHARGES
 
@<TRIPOS>ATOM
       1    C1      18.087278   19.156751   19.788601 C.2        1 MOL1         0.6168
       2    O1      18.715848   18.572215   18.928198 O.co2      1 MOL1        -0.6703
       3    O2      17.838514   20.345677   19.749447 O.co2      1 MOL1        -0.6703
       4    C2      17.568883   18.348046   20.974447 C.3        1 MOL1        -0.1963
       5    H1      17.119575   17.431332   20.574772 H          1 MOL1         0.0750
       6    H2      16.762157   18.912690   21.457372 H          1 MOL1         0.0750
       7    C3      18.660999   17.980149   22.012175 C.3        1 MOL1        -0.1860
       8    H3      18.232502   17.289229   22.750801 H          1 MOL1         0.0752
       9    H4      19.474496   17.439751   21.508323 H          1 MOL1         0.0752
      10    C4      19.228494   19.218336   22.741976 C.3        1 MOL1        -0.1858
      11    H5      18.409808   19.762342   23.232725 H          1 MOL1         0.0752
      12    H6      19.674748   19.906739   22.010963 H          1 MOL1         0.0752
      13    C5      20.290371   18.826362   23.791930 C.3        1 MOL1        -0.1858
      14    H7      19.845563   18.140248   24.525707 H          1 MOL1         0.0752
      15    H8      21.108655   18.282546   23.300235 H          1 MOL1         0.0752
      16    C6      20.858377   20.063127   24.521066 C.3        1 MOL1        -0.1858
      17    H9      20.040206   20.607256   25.012595 H          1 MOL1         0.0752
      18    H10     21.303128   20.749438   23.787377 H          1 MOL1         0.0752
      19    C7      21.920257   19.671886   25.570213 C.3        1 MOL1        -0.1834
      20    H11     21.478326   18.986720   26.306909 H          1 MOL1         0.0752
      21    H12     22.741278   19.129010   25.081651 H          1 MOL1         0.0752
      22    C8      22.484896   20.909657   26.295959 C.3        1 MOL1        -0.2849
      23    H13     21.688979   21.454679   26.820232 H          1 MOL1         0.0764
      24    H14     23.237943   20.613256   27.037679 H          1 MOL1         0.0764
      25    H15     22.961376   21.598073   25.585714 H          1 MOL1         0.0764
@<TRIPOS>BOND
    1     1     2    1
    2     1     3    2
    3     1     4    1
    4     4     5    1
    5     4     6    1
    6     4     7    1
    7     7     8    1
    8     7     9    1
    9     7    10    1
   10    10    11    1
   11    10    12    1
   12    10    13    1
   13    13    14    1
   14    13    15    1
   15    13    16    1
   16    16    17    1
   17    16    18    1
   18    16    19    1
   19    19    20    1
   20    19    21    1
   21    19    22    1
   22    22    23    1
   23    22    24    1
   24    22    25    1
@<TRIPOS>SUBSTRUCTURE
       1 MOL1            1 RESIDUE      1      MOL     
@<SCITEGIC>MOL_PROPERTY
VConf Rank
SciTegic.value.IntegerValue
924

@<SCITEGIC>MOL_PROPERTY
Conf_Id
SciTegic.value.IntegerValue
54

@<SCITEGIC>MOL_PROPERTY
Delta U+W
SciTegic.value.DoubleValue
-0.224

@<SCITEGIC>MOL_PROPERTY
U+W
SciTegic.value.DoubleValue
-51.854

@<SCITEGIC>MOL_PROPERTY
Grad RMS
SciTegic.value.DoubleValue
0.000000

@<SCITEGIC>MOL_PROPERTY
U
SciTegic.value.DoubleValue
7.816

@<SCITEGIC>MOL_PROPERTY
W
SciTegic.value.DoubleValue
-59.670

@<SCITEGIC>MOL_PROPERTY
W(PB)
SciTegic.value.DoubleValue
-62.157

@<SCITEGIC>MOL_PROPERTY
W(SA)
SciTegic.value.DoubleValue
2.487

@<SCITEGIC>MOL_PROPERTY
Valence
SciTegic.value.DoubleValue
7.785

@<SCITEGIC>MOL_PROPERTY
Coulomb
SciTegic.value.DoubleValue
-0.713

@<SCITEGIC>MOL_PROPERTY
VdW
SciTegic.value.DoubleValue
0.744

@<SCITEGIC>MOL_PROPERTY
VdW6
SciTegic.value.DoubleValue
-8.515

@<SCITEGIC>MOL_PROPERTY
VdW12
SciTegic.value.DoubleValue
9.259

@<SCITEGIC>MOL_PROPERTY
Bond
SciTegic.value.DoubleValue
0.136

@<SCITEGIC>MOL_PROPERTY
Angle
SciTegic.value.DoubleValue
2.433

@<SCITEGIC>MOL_PROPERTY
Pdih
SciTegic.value.DoubleValue
5.215

@<SCITEGIC>MOL_PROPERTY
Idih
SciTegic.value.DoubleValue
0.000

@<SCITEGIC>MOL_PROPERTY
Tether
SciTegic.value.DoubleValue
0.000

@<TRIPOS>MOLECULE
guest-8_confgen4.mol2 : confsearch ligand conformer 925
          25          24           1
SMALL
USER_CHARGES
 
@<TRIPOS>ATOM
       1    C1      21.828934   18.804454   19.643070 C.2        1 MOL1         0.6168
       2    O1      21.338729   17.802797   19.159921 O.co2      1 MOL1        -0.6703
       3    O2      21.874307   19.874980   19.069464 O.co2      1 MOL1        -0.6703
       4    C2      22.438141   18.710502   21.039216 C.3        1 MOL1        -0.1963
       5    H1      23.414993   19.206947   21.003548 H          1 MOL1         0.0750
       6    H2      22.626748   17.654848   21.269109 H          1 MOL1         0.0750
       7    C3      21.570827   19.354274   22.152315 C.3        1 MOL1        -0.1860
       8    H3      22.157296   19.376132   23.079343 H          1 MOL1         0.0752
       9    H4      21.356072   20.398862   21.887522 H          1 MOL1         0.0752
      10    C4      20.245918   18.589839   22.389390 C.3        1 MOL1        -0.1858
      11    H5      20.462490   17.558177   22.698499 H          1 MOL1         0.0752
      12    H6      19.697620   18.518784   21.440023 H          1 MOL1         0.0752
      13    C5      19.321376   19.260950   23.433318 C.3        1 MOL1        -0.1858
      14    H7      19.120460   20.298402   23.133480 H          1 MOL1         0.0752
      15    H8      18.356063   18.739422   23.414620 H          1 MOL1         0.0752
      16    C6      19.891351   19.233205   24.873175 C.3        1 MOL1        -0.1858
      17    H9      20.853252   19.760554   24.896079 H          1 MOL1         0.0752
      18    H10     20.096811   18.195917   25.170555 H          1 MOL1         0.0752
      19    C7      18.959590   19.894978   25.915463 C.3        1 MOL1        -0.1834
      20    H11     19.492995   19.956937   26.874048 H          1 MOL1         0.0752
      21    H12     18.741613   20.929114   25.614881 H          1 MOL1         0.0752
      22    C8      17.637875   19.126666   26.133876 C.3        1 MOL1        -0.2849
      23    H13     17.010561   19.142171   25.234076 H          1 MOL1         0.0764
      24    H14     17.831460   18.079773   26.401554 H          1 MOL1         0.0764
      25    H15     17.059883   19.582052   26.948404 H          1 MOL1         0.0764
@<TRIPOS>BOND
    1     1     2    1
    2     1     3    2
    3     1     4    1
    4     4     5    1
    5     4     6    1
    6     4     7    1
    7     7     8    1
    8     7     9    1
    9     7    10    1
   10    10    11    1
   11    10    12    1
   12    10    13    1
   13    13    14    1
   14    13    15    1
   15    13    16    1
   16    16    17    1
   17    16    18    1
   18    16    19    1
   19    19    20    1
   20    19    21    1
   21    19    22    1
   22    22    23    1
   23    22    24    1
   24    22    25    1
@<TRIPOS>SUBSTRUCTURE
       1 MOL1            1 RESIDUE      1      MOL     
@<SCITEGIC>MOL_PROPERTY
VConf Rank
SciTegic.value.IntegerValue
925

@<SCITEGIC>MOL_PROPERTY
Conf_Id
SciTegic.value.IntegerValue
101

@<SCITEGIC>MOL_PROPERTY
Delta U+W
SciTegic.value.DoubleValue
1.534

@<SCITEGIC>MOL_PROPERTY
U+W
SciTegic.value.DoubleValue
-50.095

@<SCITEGIC>MOL_PROPERTY
Grad RMS
SciTegic.value.DoubleValue
0.000000

@<SCITEGIC>MOL_PROPERTY
U
SciTegic.value.DoubleValue
9.416

@<SCITEGIC>MOL_PROPERTY
W
SciTegic.value.DoubleValue
-59.512

@<SCITEGIC>MOL_PROPERTY
W(PB)
SciTegic.value.DoubleValue
-61.988

@<SCITEGIC>MOL_PROPERTY
W(SA)
SciTegic.value.DoubleValue
2.476

@<SCITEGIC>MOL_PROPERTY
Valence
SciTegic.value.DoubleValue
8.939

@<SCITEGIC>MOL_PROPERTY
Coulomb
SciTegic.value.DoubleValue
-0.615

@<SCITEGIC>MOL_PROPERTY
VdW
SciTegic.value.DoubleValue
1.092

@<SCITEGIC>MOL_PROPERTY
VdW6
SciTegic.value.DoubleValue
-9.710

@<SCITEGIC>MOL_PROPERTY
VdW12
SciTegic.value.DoubleValue
10.802

@<SCITEGIC>MOL_PROPERTY
Bond
SciTegic.value.DoubleValue
0.216

@<SCITEGIC>MOL_PROPERTY
Angle
SciTegic.value.DoubleValue
2.979

@<SCITEGIC>MOL_PROPERTY
Pdih
SciTegic.value.DoubleValue
5.743

@<SCITEGIC>MOL_PROPERTY
Idih
SciTegic.value.DoubleValue
0.000

@<SCITEGIC>MOL_PROPERTY
Tether
SciTegic.value.DoubleValue
0.000

@<TRIPOS>MOLECULE
guest-8_confgen4.mol2 : confsearch ligand conformer 926
          25          24           1
SMALL
USER_CHARGES
 
@<TRIPOS>ATOM
       1    C1      19.478078   16.483073   26.404557 C.2        1 MOL1         0.6168
       2    O1      18.302448   16.536766   26.707456 O.co2      1 MOL1        -0.6703
       3    O2      20.199430   15.542096   26.670996 O.co2      1 MOL1        -0.6703
       4    C2      20.075656   17.650707   25.627576 C.3        1 MOL1        -0.1963
       5    H1      21.131420   17.741665   25.909408 H          1 MOL1         0.0750
       6    H2      19.569980   18.564193   25.959535 H          1 MOL1         0.0750
       7    C3      19.944639   17.478045   24.091810 C.3        1 MOL1        -0.1860
       8    H3      20.375187   16.507186   23.809871 H          1 MOL1         0.0752
       9    H4      18.881935   17.437416   23.815568 H          1 MOL1         0.0752
      10    C4      20.654151   18.587507   23.279163 C.3        1 MOL1        -0.1858
      11    H5      20.627246   18.300953   22.220082 H          1 MOL1         0.0752
      12    H6      21.714050   18.632798   23.563995 H          1 MOL1         0.0752
      13    C5      20.006604   19.983953   23.448051 C.3        1 MOL1        -0.1858
      14    H7      18.947574   19.938917   23.162667 H          1 MOL1         0.0752
      15    H8      20.024538   20.269154   24.507323 H          1 MOL1         0.0752
      16    C6      20.723895   21.099502   22.645929 C.3        1 MOL1        -0.1858
      17    H9      21.757757   21.187711   23.006518 H          1 MOL1         0.0752
      18    H10     20.241487   22.059850   22.873268 H          1 MOL1         0.0752
      19    C7      20.746754   20.906420   21.109160 C.3        1 MOL1        -0.1834
      20    H11     21.282190   21.753673   20.659144 H          1 MOL1         0.0752
      21    H12     21.325020   20.010666   20.847292 H          1 MOL1         0.0752
      22    C8      19.338742   20.819765   20.481517 C.3        1 MOL1        -0.2849
      23    H13     18.733876   21.695331   20.750773 H          1 MOL1         0.0764
      24    H14     19.407779   20.779293   19.386820 H          1 MOL1         0.0764
      25    H15     18.808865   19.918482   20.814681 H          1 MOL1         0.0764
@<TRIPOS>BOND
    1     1     2    1
    2     1     3    2
    3     1     4    1
    4     4     5    1
    5     4     6    1
    6     4     7    1
    7     7     8    1
    8     7     9    1
    9     7    10    1
   10    10    11    1
   11    10    12    1
   12    10    13    1
   13    13    14    1
   14    13    15    1
   15    13    16    1
   16    16    17    1
   17    16    18    1
   18    16    19    1
   19    19    20    1
   20    19    21    1
   21    19    22    1
   22    22    23    1
   23    22    24    1
   24    22    25    1
@<TRIPOS>SUBSTRUCTURE
       1 MOL1            1 RESIDUE      1      MOL     
@<SCITEGIC>MOL_PROPERTY
VConf Rank
SciTegic.value.IntegerValue
926

@<SCITEGIC>MOL_PROPERTY
Conf_Id
SciTegic.value.IntegerValue
75

@<SCITEGIC>MOL_PROPERTY
Delta U+W
SciTegic.value.DoubleValue
1.014

@<SCITEGIC>MOL_PROPERTY
U+W
SciTegic.value.DoubleValue
-50.615

@<SCITEGIC>MOL_PROPERTY
Grad RMS
SciTegic.value.DoubleValue
0.000000

@<SCITEGIC>MOL_PROPERTY
U
SciTegic.value.DoubleValue
8.474

@<SCITEGIC>MOL_PROPERTY
W
SciTegic.value.DoubleValue
-59.089

@<SCITEGIC>MOL_PROPERTY
W(PB)
SciTegic.value.DoubleValue
-61.530

@<SCITEGIC>MOL_PROPERTY
W(SA)
SciTegic.value.DoubleValue
2.441

@<SCITEGIC>MOL_PROPERTY
Valence
SciTegic.value.DoubleValue
9.080

@<SCITEGIC>MOL_PROPERTY
Coulomb
SciTegic.value.DoubleValue
-1.772

@<SCITEGIC>MOL_PROPERTY
VdW
SciTegic.value.DoubleValue
1.165

@<SCITEGIC>MOL_PROPERTY
VdW6
SciTegic.value.DoubleValue
-9.830

@<SCITEGIC>MOL_PROPERTY
VdW12
SciTegic.value.DoubleValue
10.996

@<SCITEGIC>MOL_PROPERTY
Bond
SciTegic.value.DoubleValue
0.240

@<SCITEGIC>MOL_PROPERTY
Angle
SciTegic.value.DoubleValue
3.225

@<SCITEGIC>MOL_PROPERTY
Pdih
SciTegic.value.DoubleValue
5.615

@<SCITEGIC>MOL_PROPERTY
Idih
SciTegic.value.DoubleValue
0.001

@<SCITEGIC>MOL_PROPERTY
Tether
SciTegic.value.DoubleValue
0.000

@<TRIPOS>MOLECULE
guest-8_confgen4.mol2 : confsearch ligand conformer 927
          25          24           1
SMALL
USER_CHARGES
 
@<TRIPOS>ATOM
       1    C1      20.591747   19.857124   27.432565 C.2        1 MOL1         0.6168
       2    O1      20.783317   18.785964   27.973463 O.co2      1 MOL1        -0.6703
       3    O2      20.983090   20.916968   27.880057 O.co2      1 MOL1        -0.6703
       4    C2      19.836982   19.869864   26.108085 C.3        1 MOL1        -0.1963
       5    H1      19.270424   20.806847   26.047785 H          1 MOL1         0.0750
       6    H2      19.108204   19.050564   26.123447 H          1 MOL1         0.0750
       7    C3      20.772007   19.730544   24.881545 C.3        1 MOL1        -0.1860
       8    H3      21.503586   20.550452   24.887664 H          1 MOL1         0.0752
       9    H4      21.341255   18.794221   24.963948 H          1 MOL1         0.0752
      10    C4      19.984312   19.744519   23.553580 C.3        1 MOL1        -0.1858
      11    H5      19.416633   20.681803   23.475792 H          1 MOL1         0.0752
      12    H6      19.249005   18.931193   23.559727 H          1 MOL1         0.0752
      13    C5      20.923116   19.611154   22.331452 C.3        1 MOL1        -0.1858
      14    H7      21.622079   20.458638   22.343209 H          1 MOL1         0.0752
      15    H8      21.538691   18.705483   22.418896 H          1 MOL1         0.0752
      16    C6      20.171246   19.613527   20.976051 C.3        1 MOL1        -0.1858
      17    H9      20.791593   20.146555   20.242620 H          1 MOL1         0.0752
      18    H10     19.241288   20.192717   21.057001 H          1 MOL1         0.0752
      19    C7      19.873556   18.207269   20.399230 C.3        1 MOL1        -0.1834
      20    H11     19.416151   18.327119   19.407470 H          1 MOL1         0.0752
      21    H12     20.817255   17.667848   20.238929 H          1 MOL1         0.0752
      22    C8      18.936504   17.349783   21.275028 C.3        1 MOL1        -0.2849
      23    H13     18.010106   17.890642   21.507878 H          1 MOL1         0.0764
      24    H14     18.665746   16.422601   20.753705 H          1 MOL1         0.0764
      25    H15     19.423288   17.068653   22.217172 H          1 MOL1         0.0764
@<TRIPOS>BOND
    1     1     2    1
    2     1     3    2
    3     1     4    1
    4     4     5    1
    5     4     6    1
    6     4     7    1
    7     7     8    1
    8     7     9    1
    9     7    10    1
   10    10    11    1
   11    10    12    1
   12    10    13    1
   13    13    14    1
   14    13    15    1
   15    13    16    1
   16    16    17    1
   17    16    18    1
   18    16    19    1
   19    19    20    1
   20    19    21    1
   21    19    22    1
   22    22    23    1
   23    22    24    1
   24    22    25    1
@<TRIPOS>SUBSTRUCTURE
       1 MOL1            1 RESIDUE      1      MOL     
@<SCITEGIC>MOL_PROPERTY
VConf Rank
SciTegic.value.IntegerValue
927

@<SCITEGIC>MOL_PROPERTY
Conf_Id
SciTegic.value.IntegerValue
125

@<SCITEGIC>MOL_PROPERTY
Delta U+W
SciTegic.value.DoubleValue
2.314

@<SCITEGIC>MOL_PROPERTY
U+W
SciTegic.value.DoubleValue
-49.315

@<SCITEGIC>MOL_PROPERTY
Grad RMS
SciTegic.value.DoubleValue
0.000000

@<SCITEGIC>MOL_PROPERTY
U
SciTegic.value.DoubleValue
9.740

@<SCITEGIC>MOL_PROPERTY
W
SciTegic.value.DoubleValue
-59.054

@<SCITEGIC>MOL_PROPERTY
W(PB)
SciTegic.value.DoubleValue
-61.488

@<SCITEGIC>MOL_PROPERTY
W(SA)
SciTegic.value.DoubleValue
2.433

@<SCITEGIC>MOL_PROPERTY
Valence
SciTegic.value.DoubleValue
10.506

@<SCITEGIC>MOL_PROPERTY
Coulomb
SciTegic.value.DoubleValue
-1.761

@<SCITEGIC>MOL_PROPERTY
VdW
SciTegic.value.DoubleValue
0.994

@<SCITEGIC>MOL_PROPERTY
VdW6
SciTegic.value.DoubleValue
-9.209

@<SCITEGIC>MOL_PROPERTY
VdW12
SciTegic.value.DoubleValue
10.203

@<SCITEGIC>MOL_PROPERTY
Bond
SciTegic.value.DoubleValue
0.193

@<SCITEGIC>MOL_PROPERTY
Angle
SciTegic.value.DoubleValue
2.979

@<SCITEGIC>MOL_PROPERTY
Pdih
SciTegic.value.DoubleValue
7.334

@<SCITEGIC>MOL_PROPERTY
Idih
SciTegic.value.DoubleValue
0.001

@<SCITEGIC>MOL_PROPERTY
Tether
SciTegic.value.DoubleValue
0.000

@<TRIPOS>MOLECULE
guest-8_confgen4.mol2 : confsearch ligand conformer 928
          25          24           1
SMALL
USER_CHARGES
 
@<TRIPOS>ATOM
       1    C1      20.850689   15.476344   21.647324 C.2        1 MOL1         0.6168
       2    O1      19.758869   15.017453   21.375216 O.co2      1 MOL1        -0.6703
       3    O2      21.886589   14.847379   21.557566 O.co2      1 MOL1        -0.6703
       4    C2      20.922525   16.912960   22.152292 C.3        1 MOL1        -0.1963
       5    H1      20.126482   17.480043   21.656862 H          1 MOL1         0.0750
       6    H2      21.878362   17.340469   21.826769 H          1 MOL1         0.0750
       7    C3      20.788319   17.013924   23.694057 C.3        1 MOL1        -0.1860
       8    H3      19.807951   16.625773   24.003163 H          1 MOL1         0.0752
       9    H4      21.540513   16.360136   24.156887 H          1 MOL1         0.0752
      10    C4      20.977561   18.449838   24.238566 C.3        1 MOL1        -0.1858
      11    H5      21.962382   18.831382   23.936039 H          1 MOL1         0.0752
      12    H6      20.984452   18.407511   25.336324 H          1 MOL1         0.0752
      13    C5      19.875139   19.432150   23.779301 C.3        1 MOL1        -0.1858
      14    H7      19.904910   19.533486   22.687755 H          1 MOL1         0.0752
      15    H8      18.888831   19.024373   24.039064 H          1 MOL1         0.0752
      16    C6      20.045721   20.824331   24.430407 C.3        1 MOL1        -0.1858
      17    H9      21.011899   21.255254   24.134278 H          1 MOL1         0.0752
      18    H10     20.078873   20.707208   25.522207 H          1 MOL1         0.0752
      19    C7      18.909014   21.811935   24.077768 C.3        1 MOL1        -0.1834
      20    H11     17.941407   21.386329   24.377606 H          1 MOL1         0.0752
      21    H12     19.041801   22.727808   24.670027 H          1 MOL1         0.0752
      22    C8      18.868916   22.189775   22.581034 C.3        1 MOL1        -0.2849
      23    H13     18.621160   21.323280   21.955342 H          1 MOL1         0.0764
      24    H14     18.106841   22.958699   22.399671 H          1 MOL1         0.0764
      25    H15     19.836748   22.588573   22.250326 H          1 MOL1         0.0764
@<TRIPOS>BOND
    1     1     2    1
    2     1     3    2
    3     1     4    1
    4     4     5    1
    5     4     6    1
    6     4     7    1
    7     7     8    1
    8     7     9    1
    9     7    10    1
   10    10    11    1
   11    10    12    1
   12    10    13    1
   13    13    14    1
   14    13    15    1
   15    13    16    1
   16    16    17    1
   17    16    18    1
   18    16    19    1
   19    19    20    1
   20    19    21    1
   21    19    22    1
   22    22    23    1
   23    22    24    1
   24    22    25    1
@<TRIPOS>SUBSTRUCTURE
       1 MOL1            1 RESIDUE      1      MOL     
@<SCITEGIC>MOL_PROPERTY
VConf Rank
SciTegic.value.IntegerValue
928

@<SCITEGIC>MOL_PROPERTY
Conf_Id
SciTegic.value.IntegerValue
4

@<SCITEGIC>MOL_PROPERTY
Delta U+W
SciTegic.value.DoubleValue
0.189

@<SCITEGIC>MOL_PROPERTY
U+W
SciTegic.value.DoubleValue
-51.441

@<SCITEGIC>MOL_PROPERTY
Grad RMS
SciTegic.value.DoubleValue
0.000000

@<SCITEGIC>MOL_PROPERTY
U
SciTegic.value.DoubleValue
7.701

@<SCITEGIC>MOL_PROPERTY
W
SciTegic.value.DoubleValue
-59.141

@<SCITEGIC>MOL_PROPERTY
W(PB)
SciTegic.value.DoubleValue
-61.609

@<SCITEGIC>MOL_PROPERTY
W(SA)
SciTegic.value.DoubleValue
2.467

@<SCITEGIC>MOL_PROPERTY
Valence
SciTegic.value.DoubleValue
8.550

@<SCITEGIC>MOL_PROPERTY
Coulomb
SciTegic.value.DoubleValue
-1.988

@<SCITEGIC>MOL_PROPERTY
VdW
SciTegic.value.DoubleValue
1.139

@<SCITEGIC>MOL_PROPERTY
VdW6
SciTegic.value.DoubleValue
-8.988

@<SCITEGIC>MOL_PROPERTY
VdW12
SciTegic.value.DoubleValue
10.127

@<SCITEGIC>MOL_PROPERTY
Bond
SciTegic.value.DoubleValue
0.191

@<SCITEGIC>MOL_PROPERTY
Angle
SciTegic.value.DoubleValue
2.738

@<SCITEGIC>MOL_PROPERTY
Pdih
SciTegic.value.DoubleValue
5.621

@<SCITEGIC>MOL_PROPERTY
Idih
SciTegic.value.DoubleValue
0.001

@<SCITEGIC>MOL_PROPERTY
Tether
SciTegic.value.DoubleValue
0.000

@<TRIPOS>MOLECULE
guest-8_confgen4.mol2 : confsearch ligand conformer 929
          25          24           1
SMALL
USER_CHARGES
 
@<TRIPOS>ATOM
       1    C1      20.332227   16.059976   25.884358 C.2        1 MOL1         0.6168
       2    O1      19.969759   16.491437   26.960998 O.co2      1 MOL1        -0.6703
       3    O2      20.568564   14.886602   25.674409 O.co2      1 MOL1        -0.6703
       4    C2      20.475834   17.041333   24.726628 C.3        1 MOL1        -0.1963
       5    H1      21.278013   16.680118   24.072114 H          1 MOL1         0.0750
       6    H2      20.802105   18.001179   25.142518 H          1 MOL1         0.0750
       7    C3      19.162654   17.212607   23.919496 C.3        1 MOL1        -0.1860
       8    H3      18.814287   16.221078   23.598627 H          1 MOL1         0.0752
       9    H4      18.379783   17.619179   24.574586 H          1 MOL1         0.0752
      10    C4      19.317695   18.111633   22.669747 C.3        1 MOL1        -0.1858
      11    H5      18.378807   18.080476   22.100160 H          1 MOL1         0.0752
      12    H6      20.094063   17.697113   22.012177 H          1 MOL1         0.0752
      13    C5      19.653024   19.582795   23.008023 C.3        1 MOL1        -0.1858
      14    H7      18.902360   19.979370   23.705013 H          1 MOL1         0.0752
      15    H8      20.623065   19.630689   23.517290 H          1 MOL1         0.0752
      16    C6      19.694317   20.463903   21.737927 C.3        1 MOL1        -0.1858
      17    H9      18.742134   20.360956   21.199787 H          1 MOL1         0.0752
      18    H10     20.476524   20.097700   21.059006 H          1 MOL1         0.0752
      19    C7      19.928890   21.963116   22.036515 C.3        1 MOL1        -0.1834
      20    H11     19.825540   22.529059   21.100430 H          1 MOL1         0.0752
      21    H12     19.145109   22.334108   22.711318 H          1 MOL1         0.0752
      22    C8      21.318311   22.256219   22.643299 C.3        1 MOL1        -0.2849
      23    H13     22.118102   21.865782   22.000645 H          1 MOL1         0.0764
      24    H14     21.469406   23.338074   22.751259 H          1 MOL1         0.0764
      25    H15     21.424493   21.805682   23.637999 H          1 MOL1         0.0764
@<TRIPOS>BOND
    1     1     2    1
    2     1     3    2
    3     1     4    1
    4     4     5    1
    5     4     6    1
    6     4     7    1
    7     7     8    1
    8     7     9    1
    9     7    10    1
   10    10    11    1
   11    10    12    1
   12    10    13    1
   13    13    14    1
   14    13    15    1
   15    13    16    1
   16    16    17    1
   17    16    18    1
   18    16    19    1
   19    19    20    1
   20    19    21    1
   21    19    22    1
   22    22    23    1
   23    22    24    1
   24    22    25    1
@<TRIPOS>SUBSTRUCTURE
       1 MOL1            1 RESIDUE      1      MOL     
@<SCITEGIC>MOL_PROPERTY
VConf Rank
SciTegic.value.IntegerValue
929

@<SCITEGIC>MOL_PROPERTY
Conf_Id
SciTegic.value.IntegerValue
17

@<SCITEGIC>MOL_PROPERTY
Delta U+W
SciTegic.value.DoubleValue
0.219

@<SCITEGIC>MOL_PROPERTY
U+W
SciTegic.value.DoubleValue
-51.411

@<SCITEGIC>MOL_PROPERTY
Grad RMS
SciTegic.value.DoubleValue
0.000000

@<SCITEGIC>MOL_PROPERTY
U
SciTegic.value.DoubleValue
7.701

@<SCITEGIC>MOL_PROPERTY
W
SciTegic.value.DoubleValue
-59.111

@<SCITEGIC>MOL_PROPERTY
W(PB)
SciTegic.value.DoubleValue
-61.599

@<SCITEGIC>MOL_PROPERTY
W(SA)
SciTegic.value.DoubleValue
2.488

@<SCITEGIC>MOL_PROPERTY
Valence
SciTegic.value.DoubleValue
8.550

@<SCITEGIC>MOL_PROPERTY
Coulomb
SciTegic.value.DoubleValue
-1.988

@<SCITEGIC>MOL_PROPERTY
VdW
SciTegic.value.DoubleValue
1.139

@<SCITEGIC>MOL_PROPERTY
VdW6
SciTegic.value.DoubleValue
-8.988

@<SCITEGIC>MOL_PROPERTY
VdW12
SciTegic.value.DoubleValue
10.127

@<SCITEGIC>MOL_PROPERTY
Bond
SciTegic.value.DoubleValue
0.191

@<SCITEGIC>MOL_PROPERTY
Angle
SciTegic.value.DoubleValue
2.738

@<SCITEGIC>MOL_PROPERTY
Pdih
SciTegic.value.DoubleValue
5.621

@<SCITEGIC>MOL_PROPERTY
Idih
SciTegic.value.DoubleValue
0.001

@<SCITEGIC>MOL_PROPERTY
Tether
SciTegic.value.DoubleValue
0.000

@<TRIPOS>MOLECULE
guest-8_confgen4.mol2 : confsearch ligand conformer 930
          25          24           1
SMALL
USER_CHARGES
 
@<TRIPOS>ATOM
       1    C1      16.489027   20.704505   22.920991 C.2        1 MOL1         0.6168
       2    O1      15.717570   20.179004   23.699300 O.co2      1 MOL1        -0.6703
       3    O2      16.413874   20.583255   21.714042 O.co2      1 MOL1        -0.6703
       4    C2      17.602549   21.581012   23.487327 C.3        1 MOL1        -0.1963
       5    H1      17.330024   21.877468   24.507433 H          1 MOL1         0.0750
       6    H2      17.634993   22.498632   22.888240 H          1 MOL1         0.0750
       7    C3      18.999242   20.907156   23.479199 C.3        1 MOL1        -0.1860
       8    H3      19.240873   20.602587   22.452301 H          1 MOL1         0.0752
       9    H4      19.754142   21.647039   23.777466 H          1 MOL1         0.0752
      10    C4      19.074112   19.688788   24.430369 C.3        1 MOL1        -0.1858
      11    H5      18.371429   18.912163   24.098087 H          1 MOL1         0.0752
      12    H6      18.743320   19.996777   25.431651 H          1 MOL1         0.0752
      13    C5      20.493421   19.083927   24.546247 C.3        1 MOL1        -0.1858
      14    H7      21.196232   19.856506   24.886877 H          1 MOL1         0.0752
      15    H8      20.479175   18.311013   25.326798 H          1 MOL1         0.0752
      16    C6      21.005378   18.457466   23.228492 C.3        1 MOL1        -0.1858
      17    H9      21.097996   19.232177   22.456369 H          1 MOL1         0.0752
      18    H10     20.273551   17.724727   22.861864 H          1 MOL1         0.0752
      19    C7      22.373294   17.768584   23.418217 C.3        1 MOL1        -0.1834
      20    H11     23.107281   18.498604   23.786715 H          1 MOL1         0.0752
      21    H12     22.290785   16.984487   24.183598 H          1 MOL1         0.0752
      22    C8      22.884188   17.147621   22.102499 C.3        1 MOL1        -0.2849
      23    H13     23.007034   17.915467   21.327448 H          1 MOL1         0.0764
      24    H14     23.856759   16.662162   22.255768 H          1 MOL1         0.0764
      25    H15     22.182950   16.390806   21.727161 H          1 MOL1         0.0764
@<TRIPOS>BOND
    1     1     2    1
    2     1     3    2
    3     1     4    1
    4     4     5    1
    5     4     6    1
    6     4     7    1
    7     7     8    1
    8     7     9    1
    9     7    10    1
   10    10    11    1
   11    10    12    1
   12    10    13    1
   13    13    14    1
   14    13    15    1
   15    13    16    1
   16    16    17    1
   17    16    18    1
   18    16    19    1
   19    19    20    1
   20    19    21    1
   21    19    22    1
   22    22    23    1
   23    22    24    1
   24    22    25    1
@<TRIPOS>SUBSTRUCTURE
       1 MOL1            1 RESIDUE      1      MOL     
@<SCITEGIC>MOL_PROPERTY
VConf Rank
SciTegic.value.IntegerValue
930

@<SCITEGIC>MOL_PROPERTY
Conf_Id
SciTegic.value.IntegerValue
142

@<SCITEGIC>MOL_PROPERTY
Delta U+W
SciTegic.value.DoubleValue
0.593

@<SCITEGIC>MOL_PROPERTY
U+W
SciTegic.value.DoubleValue
-51.037

@<SCITEGIC>MOL_PROPERTY
Grad RMS
SciTegic.value.DoubleValue
0.000000

@<SCITEGIC>MOL_PROPERTY
U
SciTegic.value.DoubleValue
8.903

@<SCITEGIC>MOL_PROPERTY
W
SciTegic.value.DoubleValue
-59.940

@<SCITEGIC>MOL_PROPERTY
W(PB)
SciTegic.value.DoubleValue
-62.418

@<SCITEGIC>MOL_PROPERTY
W(SA)
SciTegic.value.DoubleValue
2.478

@<SCITEGIC>MOL_PROPERTY
Valence
SciTegic.value.DoubleValue
8.305

@<SCITEGIC>MOL_PROPERTY
Coulomb
SciTegic.value.DoubleValue
-0.223

@<SCITEGIC>MOL_PROPERTY
VdW
SciTegic.value.DoubleValue
0.821

@<SCITEGIC>MOL_PROPERTY
VdW6
SciTegic.value.DoubleValue
-9.236

@<SCITEGIC>MOL_PROPERTY
VdW12
SciTegic.value.DoubleValue
10.057

@<SCITEGIC>MOL_PROPERTY
Bond
SciTegic.value.DoubleValue
0.173

@<SCITEGIC>MOL_PROPERTY
Angle
SciTegic.value.DoubleValue
2.663

@<SCITEGIC>MOL_PROPERTY
Pdih
SciTegic.value.DoubleValue
5.469

@<SCITEGIC>MOL_PROPERTY
Idih
SciTegic.value.DoubleValue
0.001

@<SCITEGIC>MOL_PROPERTY
Tether
SciTegic.value.DoubleValue
0.000

@<TRIPOS>MOLECULE
guest-8_confgen4.mol2 : confsearch ligand conformer 931
          25          24           1
SMALL
USER_CHARGES
 
@<TRIPOS>ATOM
       1    C1      23.254583   18.430701   25.087590 C.2        1 MOL1         0.6168
       2    O1      24.073160   18.981563   25.797549 O.co2      1 MOL1        -0.6703
       3    O2      22.839515   17.306177   25.288143 O.co2      1 MOL1        -0.6703
       4    C2      22.742763   19.184092   23.863099 C.3        1 MOL1        -0.1963
       5    H1      22.246452   18.471647   23.194223 H          1 MOL1         0.0750
       6    H2      23.618562   19.560037   23.321656 H          1 MOL1         0.0750
       7    C3      21.796954   20.369657   24.197781 C.3        1 MOL1        -0.1860
       8    H3      22.347176   21.096363   24.811240 H          1 MOL1         0.0752
       9    H4      21.535188   20.896229   23.270932 H          1 MOL1         0.0752
      10    C4      20.503458   19.964404   24.950961 C.3        1 MOL1        -0.1858
      11    H5      19.910409   20.868451   25.144840 H          1 MOL1         0.0752
      12    H6      20.774716   19.564666   25.937730 H          1 MOL1         0.0752
      13    C5      19.612212   18.925990   24.224527 C.3        1 MOL1        -0.1858
      14    H7      20.153404   17.975814   24.122395 H          1 MOL1         0.0752
      15    H8      18.742935   18.712168   24.861057 H          1 MOL1         0.0752
      16    C6      19.116068   19.398958   22.838594 C.3        1 MOL1        -0.1858
      17    H9      19.971438   19.547493   22.166743 H          1 MOL1         0.0752
      18    H10     18.614197   20.370788   22.940317 H          1 MOL1         0.0752
      19    C7      18.146130   18.381251   22.202254 C.3        1 MOL1        -0.1834
      20    H11     18.645450   17.407541   22.102037 H          1 MOL1         0.0752
      21    H12     17.281177   18.230146   22.862856 H          1 MOL1         0.0752
      22    C8      17.657014   18.851477   20.817571 C.3        1 MOL1        -0.2849
      23    H13     18.500041   18.979839   20.126056 H          1 MOL1         0.0764
      24    H14     16.968771   18.116567   20.380233 H          1 MOL1         0.0764
      25    H15     17.126568   19.809743   20.893108 H          1 MOL1         0.0764
@<TRIPOS>BOND
    1     1     2    1
    2     1     3    2
    3     1     4    1
    4     4     5    1
    5     4     6    1
    6     4     7    1
    7     7     8    1
    8     7     9    1
    9     7    10    1
   10    10    11    1
   11    10    12    1
   12    10    13    1
   13    13    14    1
   14    13    15    1
   15    13    16    1
   16    16    17    1
   17    16    18    1
   18    16    19    1
   19    19    20    1
   20    19    21    1
   21    19    22    1
   22    22    23    1
   23    22    24    1
   24    22    25    1
@<TRIPOS>SUBSTRUCTURE
       1 MOL1            1 RESIDUE      1      MOL     
@<SCITEGIC>MOL_PROPERTY
VConf Rank
SciTegic.value.IntegerValue
931

@<SCITEGIC>MOL_PROPERTY
Conf_Id
SciTegic.value.IntegerValue
135

@<SCITEGIC>MOL_PROPERTY
Delta U+W
SciTegic.value.DoubleValue
1.314

@<SCITEGIC>MOL_PROPERTY
U+W
SciTegic.value.DoubleValue
-50.316

@<SCITEGIC>MOL_PROPERTY
Grad RMS
SciTegic.value.DoubleValue
0.000000

@<SCITEGIC>MOL_PROPERTY
U
SciTegic.value.DoubleValue
9.773

@<SCITEGIC>MOL_PROPERTY
W
SciTegic.value.DoubleValue
-60.088

@<SCITEGIC>MOL_PROPERTY
W(PB)
SciTegic.value.DoubleValue
-62.535

@<SCITEGIC>MOL_PROPERTY
W(SA)
SciTegic.value.DoubleValue
2.447

@<SCITEGIC>MOL_PROPERTY
Valence
SciTegic.value.DoubleValue
8.741

@<SCITEGIC>MOL_PROPERTY
Coulomb
SciTegic.value.DoubleValue
0.479

@<SCITEGIC>MOL_PROPERTY
VdW
SciTegic.value.DoubleValue
0.552

@<SCITEGIC>MOL_PROPERTY
VdW6
SciTegic.value.DoubleValue
-10.627

@<SCITEGIC>MOL_PROPERTY
VdW12
SciTegic.value.DoubleValue
11.179

@<SCITEGIC>MOL_PROPERTY
Bond
SciTegic.value.DoubleValue
0.227

@<SCITEGIC>MOL_PROPERTY
Angle
SciTegic.value.DoubleValue
3.155

@<SCITEGIC>MOL_PROPERTY
Pdih
SciTegic.value.DoubleValue
5.358

@<SCITEGIC>MOL_PROPERTY
Idih
SciTegic.value.DoubleValue
0.001

@<SCITEGIC>MOL_PROPERTY
Tether
SciTegic.value.DoubleValue
0.000

@<TRIPOS>MOLECULE
guest-8_confgen4.mol2 : confsearch ligand conformer 932
          25          24           1
SMALL
USER_CHARGES
 
@<TRIPOS>ATOM
       1    C1      20.663860   16.418632   26.372355 C.2        1 MOL1         0.6168
       2    O1      20.626225   15.261391   26.003412 O.co2      1 MOL1        -0.6703
       3    O2      21.172949   16.775983   27.416338 O.co2      1 MOL1        -0.6703
       4    C2      20.059134   17.483879   25.464756 C.3        1 MOL1        -0.1963
       5    H1      19.669950   18.289348   26.098873 H          1 MOL1         0.0750
       6    H2      19.203978   17.033878   24.948637 H          1 MOL1         0.0750
       7    C3      21.080364   18.051902   24.444821 C.3        1 MOL1        -0.1860
       8    H3      21.964378   18.404359   24.994129 H          1 MOL1         0.0752
       9    H4      21.427778   17.246146   23.783502 H          1 MOL1         0.0752
      10    C4      20.526991   19.222976   23.597886 C.3        1 MOL1        -0.1858
      11    H5      21.361985   19.650188   23.028444 H          1 MOL1         0.0752
      12    H6      20.157202   20.016559   24.261256 H          1 MOL1         0.0752
      13    C5      19.411234   18.798617   22.613270 C.3        1 MOL1        -0.1858
      14    H7      19.806965   18.047811   21.915932 H          1 MOL1         0.0752
      15    H8      18.600329   18.308639   23.166288 H          1 MOL1         0.0752
      16    C6      18.793405   19.971159   21.810213 C.3        1 MOL1        -0.1858
      17    H9      18.311451   20.682782   22.494478 H          1 MOL1         0.0752
      18    H10     17.984419   19.557808   21.192509 H          1 MOL1         0.0752
      19    C7      19.782682   20.711309   20.875488 C.3        1 MOL1        -0.1834
      20    H11     20.598923   20.039815   20.575351 H          1 MOL1         0.0752
      21    H12     19.255863   20.983293   19.950400 H          1 MOL1         0.0752
      22    C8      20.353941   22.005072   21.497667 C.3        1 MOL1        -0.2849
      23    H13     20.902798   21.804387   22.424813 H          1 MOL1         0.0764
      24    H14     21.043779   22.495322   20.798678 H          1 MOL1         0.0764
      25    H15     19.549130   22.715123   21.728291 H          1 MOL1         0.0764
@<TRIPOS>BOND
    1     1     2    1
    2     1     3    2
    3     1     4    1
    4     4     5    1
    5     4     6    1
    6     4     7    1
    7     7     8    1
    8     7     9    1
    9     7    10    1
   10    10    11    1
   11    10    12    1
   12    10    13    1
   13    13    14    1
   14    13    15    1
   15    13    16    1
   16    16    17    1
   17    16    18    1
   18    16    19    1
   19    19    20    1
   20    19    21    1
   21    19    22    1
   22    22    23    1
   23    22    24    1
   24    22    25    1
@<TRIPOS>SUBSTRUCTURE
       1 MOL1            1 RESIDUE      1      MOL     
@<SCITEGIC>MOL_PROPERTY
VConf Rank
SciTegic.value.IntegerValue
932

@<SCITEGIC>MOL_PROPERTY
Conf_Id
SciTegic.value.IntegerValue
19

@<SCITEGIC>MOL_PROPERTY
Delta U+W
SciTegic.value.DoubleValue
3.222

@<SCITEGIC>MOL_PROPERTY
U+W
SciTegic.value.DoubleValue
-48.407

@<SCITEGIC>MOL_PROPERTY
Grad RMS
SciTegic.value.DoubleValue
0.000000

@<SCITEGIC>MOL_PROPERTY
U
SciTegic.value.DoubleValue
10.617

@<SCITEGIC>MOL_PROPERTY
W
SciTegic.value.DoubleValue
-59.025

@<SCITEGIC>MOL_PROPERTY
W(PB)
SciTegic.value.DoubleValue
-61.462

@<SCITEGIC>MOL_PROPERTY
W(SA)
SciTegic.value.DoubleValue
2.437

@<SCITEGIC>MOL_PROPERTY
Valence
SciTegic.value.DoubleValue
11.188

@<SCITEGIC>MOL_PROPERTY
Coulomb
SciTegic.value.DoubleValue
-1.778

@<SCITEGIC>MOL_PROPERTY
VdW
SciTegic.value.DoubleValue
1.208

@<SCITEGIC>MOL_PROPERTY
VdW6
SciTegic.value.DoubleValue
-9.786

@<SCITEGIC>MOL_PROPERTY
VdW12
SciTegic.value.DoubleValue
10.993

@<SCITEGIC>MOL_PROPERTY
Bond
SciTegic.value.DoubleValue
0.241

@<SCITEGIC>MOL_PROPERTY
Angle
SciTegic.value.DoubleValue
3.294

@<SCITEGIC>MOL_PROPERTY
Pdih
SciTegic.value.DoubleValue
7.653

@<SCITEGIC>MOL_PROPERTY
Idih
SciTegic.value.DoubleValue
0.001

@<SCITEGIC>MOL_PROPERTY
Tether
SciTegic.value.DoubleValue
0.000

@<TRIPOS>MOLECULE
guest-8_confgen4.mol2 : confsearch ligand conformer 933
          25          24           1
SMALL
USER_CHARGES
 
@<TRIPOS>ATOM
       1    C1      23.664271   20.988513   24.600253 C.2        1 MOL1         0.6168
       2    O1      23.674598   22.198077   24.483684 O.co2      1 MOL1        -0.6703
       3    O2      24.668589   20.315796   24.725022 O.co2      1 MOL1        -0.6703
       4    C2      22.318522   20.273058   24.564631 C.3        1 MOL1        -0.1963
       5    H1      21.576863   20.937857   25.020873 H          1 MOL1         0.0750
       6    H2      22.390895   19.381572   25.198952 H          1 MOL1         0.0750
       7    C3      21.889902   19.874332   23.128271 C.3        1 MOL1        -0.1860
       8    H3      21.773570   20.778009   22.514171 H          1 MOL1         0.0752
       9    H4      22.700832   19.291129   22.670327 H          1 MOL1         0.0752
      10    C4      20.590302   19.035623   23.077852 C.3        1 MOL1        -0.1858
      11    H5      20.699769   18.145694   23.712379 H          1 MOL1         0.0752
      12    H6      20.461354   18.676660   22.049015 H          1 MOL1         0.0752
      13    C5      19.328561   19.827615   23.496447 C.3        1 MOL1        -0.1858
      14    H7      19.474847   20.248172   24.499049 H          1 MOL1         0.0752
      15    H8      19.193832   20.682351   22.819785 H          1 MOL1         0.0752
      16    C6      18.029193   18.983596   23.523785 C.3        1 MOL1        -0.1858
      17    H9      17.220746   19.634187   23.884362 H          1 MOL1         0.0752
      18    H10     18.118484   18.179893   24.267421 H          1 MOL1         0.0752
      19    C7      17.603319   18.401357   22.152715 C.3        1 MOL1        -0.1834
      20    H11     16.507812   18.441870   22.078393 H          1 MOL1         0.0752
      21    H12     17.987676   19.028014   21.336133 H          1 MOL1         0.0752
      22    C8      18.041427   16.933115   21.953738 C.3        1 MOL1        -0.2849
      23    H13     17.596815   16.286188   22.721128 H          1 MOL1         0.0764
      24    H14     17.714151   16.564148   20.973146 H          1 MOL1         0.0764
      25    H15     19.130318   16.821146   22.007560 H          1 MOL1         0.0764
@<TRIPOS>BOND
    1     1     2    1
    2     1     3    2
    3     1     4    1
    4     4     5    1
    5     4     6    1
    6     4     7    1
    7     7     8    1
    8     7     9    1
    9     7    10    1
   10    10    11    1
   11    10    12    1
   12    10    13    1
   13    13    14    1
   14    13    15    1
   15    13    16    1
   16    16    17    1
   17    16    18    1
   18    16    19    1
   19    19    20    1
   20    19    21    1
   21    19    22    1
   22    22    23    1
   23    22    24    1
   24    22    25    1
@<TRIPOS>SUBSTRUCTURE
       1 MOL1            1 RESIDUE      1      MOL     
@<SCITEGIC>MOL_PROPERTY
VConf Rank
SciTegic.value.IntegerValue
933

@<SCITEGIC>MOL_PROPERTY
Conf_Id
SciTegic.value.IntegerValue
20

@<SCITEGIC>MOL_PROPERTY
Delta U+W
SciTegic.value.DoubleValue
3.224

@<SCITEGIC>MOL_PROPERTY
U+W
SciTegic.value.DoubleValue
-48.406

@<SCITEGIC>MOL_PROPERTY
Grad RMS
SciTegic.value.DoubleValue
0.000000

@<SCITEGIC>MOL_PROPERTY
U
SciTegic.value.DoubleValue
10.617

@<SCITEGIC>MOL_PROPERTY
W
SciTegic.value.DoubleValue
-59.023

@<SCITEGIC>MOL_PROPERTY
W(PB)
SciTegic.value.DoubleValue
-61.467

@<SCITEGIC>MOL_PROPERTY
W(SA)
SciTegic.value.DoubleValue
2.444

@<SCITEGIC>MOL_PROPERTY
Valence
SciTegic.value.DoubleValue
11.188

@<SCITEGIC>MOL_PROPERTY
Coulomb
SciTegic.value.DoubleValue
-1.778

@<SCITEGIC>MOL_PROPERTY
VdW
SciTegic.value.DoubleValue
1.208

@<SCITEGIC>MOL_PROPERTY
VdW6
SciTegic.value.DoubleValue
-9.786

@<SCITEGIC>MOL_PROPERTY
VdW12
SciTegic.value.DoubleValue
10.993

@<SCITEGIC>MOL_PROPERTY
Bond
SciTegic.value.DoubleValue
0.241

@<SCITEGIC>MOL_PROPERTY
Angle
SciTegic.value.DoubleValue
3.294

@<SCITEGIC>MOL_PROPERTY
Pdih
SciTegic.value.DoubleValue
7.653

@<SCITEGIC>MOL_PROPERTY
Idih
SciTegic.value.DoubleValue
0.001

@<SCITEGIC>MOL_PROPERTY
Tether
SciTegic.value.DoubleValue
0.000

@<TRIPOS>MOLECULE
guest-8_confgen4.mol2 : confsearch ligand conformer 934
          25          24           1
SMALL
USER_CHARGES
 
@<TRIPOS>ATOM
       1    C1      21.925131   19.754736   21.144961 C.2        1 MOL1         0.6168
       2    O1      23.025430   19.873176   21.647912 O.co2      1 MOL1        -0.6703
       3    O2      21.264631   20.694525   20.747779 O.co2      1 MOL1        -0.6703
       4    C2      21.369419   18.346702   20.939986 C.3        1 MOL1        -0.1963
       5    H1      22.051616   17.844620   20.244292 H          1 MOL1         0.0750
       6    H2      20.399493   18.416565   20.432884 H          1 MOL1         0.0750
       7    C3      21.241912   17.489432   22.230698 C.3        1 MOL1        -0.1860
       8    H3      21.196415   16.433144   21.933018 H          1 MOL1         0.0752
       9    H4      22.150579   17.592468   22.840044 H          1 MOL1         0.0752
      10    C4      19.989231   17.791520   23.090126 C.3        1 MOL1        -0.1858
      11    H5      19.926227   17.031975   23.881393 H          1 MOL1         0.0752
      12    H6      19.084268   17.675343   22.478260 H          1 MOL1         0.0752
      13    C5      19.996945   19.191336   23.745172 C.3        1 MOL1        -0.1858
      14    H7      20.948805   19.347253   24.271194 H          1 MOL1         0.0752
      15    H8      19.926824   19.965582   22.970813 H          1 MOL1         0.0752
      16    C6      18.824193   19.365494   24.734560 C.3        1 MOL1        -0.1858
      17    H9      18.888663   18.600127   25.520069 H          1 MOL1         0.0752
      18    H10     17.873553   19.204463   24.207887 H          1 MOL1         0.0752
      19    C7      18.824377   20.766913   25.380625 C.3        1 MOL1        -0.1834
      20    H11     19.773803   20.930829   25.909000 H          1 MOL1         0.0752
      21    H12     18.758284   21.535322   24.597819 H          1 MOL1         0.0752
      22    C8      17.652056   20.938097   26.367553 C.3        1 MOL1        -0.2849
      23    H13     17.711208   20.201250   27.179297 H          1 MOL1         0.0764
      24    H14     17.667798   21.939495   26.817017 H          1 MOL1         0.0764
      25    H15     16.687949   20.810356   25.858088 H          1 MOL1         0.0764
@<TRIPOS>BOND
    1     1     2    1
    2     1     3    2
    3     1     4    1
    4     4     5    1
    5     4     6    1
    6     4     7    1
    7     7     8    1
    8     7     9    1
    9     7    10    1
   10    10    11    1
   11    10    12    1
   12    10    13    1
   13    13    14    1
   14    13    15    1
   15    13    16    1
   16    16    17    1
   17    16    18    1
   18    16    19    1
   19    19    20    1
   20    19    21    1
   21    19    22    1
   22    22    23    1
   23    22    24    1
   24    22    25    1
@<TRIPOS>SUBSTRUCTURE
       1 MOL1            1 RESIDUE      1      MOL     
@<SCITEGIC>MOL_PROPERTY
VConf Rank
SciTegic.value.IntegerValue
934

@<SCITEGIC>MOL_PROPERTY
Conf_Id
SciTegic.value.IntegerValue
24

@<SCITEGIC>MOL_PROPERTY
Delta U+W
SciTegic.value.DoubleValue
1.784

@<SCITEGIC>MOL_PROPERTY
U+W
SciTegic.value.DoubleValue
-49.846

@<SCITEGIC>MOL_PROPERTY
Grad RMS
SciTegic.value.DoubleValue
0.000000

@<SCITEGIC>MOL_PROPERTY
U
SciTegic.value.DoubleValue
10.904

@<SCITEGIC>MOL_PROPERTY
W
SciTegic.value.DoubleValue
-60.749

@<SCITEGIC>MOL_PROPERTY
W(PB)
SciTegic.value.DoubleValue
-63.220

@<SCITEGIC>MOL_PROPERTY
W(SA)
SciTegic.value.DoubleValue
2.471

@<SCITEGIC>MOL_PROPERTY
Valence
SciTegic.value.DoubleValue
9.445

@<SCITEGIC>MOL_PROPERTY
Coulomb
SciTegic.value.DoubleValue
0.780

@<SCITEGIC>MOL_PROPERTY
VdW
SciTegic.value.DoubleValue
0.679

@<SCITEGIC>MOL_PROPERTY
VdW6
SciTegic.value.DoubleValue
-10.008

@<SCITEGIC>MOL_PROPERTY
VdW12
SciTegic.value.DoubleValue
10.687

@<SCITEGIC>MOL_PROPERTY
Bond
SciTegic.value.DoubleValue
0.201

@<SCITEGIC>MOL_PROPERTY
Angle
SciTegic.value.DoubleValue
3.198

@<SCITEGIC>MOL_PROPERTY
Pdih
SciTegic.value.DoubleValue
6.039

@<SCITEGIC>MOL_PROPERTY
Idih
SciTegic.value.DoubleValue
0.006

@<SCITEGIC>MOL_PROPERTY
Tether
SciTegic.value.DoubleValue
0.000

@<TRIPOS>MOLECULE
guest-8_confgen4.mol2 : confsearch ligand conformer 935
          25          24           1
SMALL
USER_CHARGES
 
@<TRIPOS>ATOM
       1    C1      20.198196   16.388709   21.714062 C.2        1 MOL1         0.6168
       2    O1      19.567550   16.673777   20.714730 O.co2      1 MOL1        -0.6703
       3    O2      21.412488   16.355242   21.753953 O.co2      1 MOL1        -0.6703
       4    C2      19.425468   15.986183   22.968755 C.3        1 MOL1        -0.1963
       5    H1      20.139627   15.713352   23.755092 H          1 MOL1         0.0750
       6    H2      18.876751   15.072517   22.712649 H          1 MOL1         0.0750
       7    C3      18.420857   17.047994   23.498299 C.3        1 MOL1        -0.1860
       8    H3      17.846281   17.469860   22.661946 H          1 MOL1         0.0752
       9    H4      17.690204   16.534311   24.137598 H          1 MOL1         0.0752
      10    C4      19.058680   18.186824   24.332166 C.3        1 MOL1        -0.1858
      11    H5      19.621305   17.758848   25.173074 H          1 MOL1         0.0752
      12    H6      18.248018   18.781972   24.774442 H          1 MOL1         0.0752
      13    C5      19.976761   19.126182   23.517697 C.3        1 MOL1        -0.1858
      14    H7      20.863620   18.577182   23.176980 H          1 MOL1         0.0752
      15    H8      19.447151   19.471841   22.619320 H          1 MOL1         0.0752
      16    C6      20.431688   20.343986   24.351101 C.3        1 MOL1        -0.1858
      17    H9      20.956734   19.996311   25.251367 H          1 MOL1         0.0752
      18    H10     19.551530   20.906768   24.691050 H          1 MOL1         0.0752
      19    C7      21.357718   21.276626   23.542384 C.3        1 MOL1        -0.1834
      20    H11     22.240390   20.717455   23.202060 H          1 MOL1         0.0752
      21    H12     20.835138   21.626738   22.641391 H          1 MOL1         0.0752
      22    C8      21.810666   22.491406   24.377139 C.3        1 MOL1        -0.2849
      23    H13     22.364120   22.170449   25.269355 H          1 MOL1         0.0764
      24    H14     22.467901   23.143058   23.786836 H          1 MOL1         0.0764
      25    H15     20.948167   23.086710   24.704370 H          1 MOL1         0.0764
@<TRIPOS>BOND
    1     1     2    1
    2     1     3    2
    3     1     4    1
    4     4     5    1
    5     4     6    1
    6     4     7    1
    7     7     8    1
    8     7     9    1
    9     7    10    1
   10    10    11    1
   11    10    12    1
   12    10    13    1
   13    13    14    1
   14    13    15    1
   15    13    16    1
   16    16    17    1
   17    16    18    1
   18    16    19    1
   19    19    20    1
   20    19    21    1
   21    19    22    1
   22    22    23    1
   23    22    24    1
   24    22    25    1
@<TRIPOS>SUBSTRUCTURE
       1 MOL1            1 RESIDUE      1      MOL     
@<SCITEGIC>MOL_PROPERTY
VConf Rank
SciTegic.value.IntegerValue
935

@<SCITEGIC>MOL_PROPERTY
Conf_Id
SciTegic.value.IntegerValue
9

@<SCITEGIC>MOL_PROPERTY
Delta U+W
SciTegic.value.DoubleValue
1.764

@<SCITEGIC>MOL_PROPERTY
U+W
SciTegic.value.DoubleValue
-49.865

@<SCITEGIC>MOL_PROPERTY
Grad RMS
SciTegic.value.DoubleValue
0.000000

@<SCITEGIC>MOL_PROPERTY
U
SciTegic.value.DoubleValue
10.902

@<SCITEGIC>MOL_PROPERTY
W
SciTegic.value.DoubleValue
-60.768

@<SCITEGIC>MOL_PROPERTY
W(PB)
SciTegic.value.DoubleValue
-63.223

@<SCITEGIC>MOL_PROPERTY
W(SA)
SciTegic.value.DoubleValue
2.456

@<SCITEGIC>MOL_PROPERTY
Valence
SciTegic.value.DoubleValue
9.445

@<SCITEGIC>MOL_PROPERTY
Coulomb
SciTegic.value.DoubleValue
0.778

@<SCITEGIC>MOL_PROPERTY
VdW
SciTegic.value.DoubleValue
0.679

@<SCITEGIC>MOL_PROPERTY
VdW6
SciTegic.value.DoubleValue
-10.007

@<SCITEGIC>MOL_PROPERTY
VdW12
SciTegic.value.DoubleValue
10.687

@<SCITEGIC>MOL_PROPERTY
Bond
SciTegic.value.DoubleValue
0.201

@<SCITEGIC>MOL_PROPERTY
Angle
SciTegic.value.DoubleValue
3.198

@<SCITEGIC>MOL_PROPERTY
Pdih
SciTegic.value.DoubleValue
6.040

@<SCITEGIC>MOL_PROPERTY
Idih
SciTegic.value.DoubleValue
0.006

@<SCITEGIC>MOL_PROPERTY
Tether
SciTegic.value.DoubleValue
0.000

@<TRIPOS>MOLECULE
guest-8_confgen4.mol2 : confsearch ligand conformer 936
          25          24           1
SMALL
USER_CHARGES
 
@<TRIPOS>ATOM
       1    C1      19.569640   22.611571   22.149175 C.2        1 MOL1         0.6168
       2    O1      20.164257   23.068601   23.105291 O.co2      1 MOL1        -0.6703
       3    O2      19.346789   23.238632   21.132327 O.co2      1 MOL1        -0.6703
       4    C2      19.094589   21.164884   22.220859 C.3        1 MOL1        -0.1963
       5    H1      18.163448   21.086205   21.647235 H          1 MOL1         0.0750
       6    H2      18.846108   20.945668   23.263771 H          1 MOL1         0.0750
       7    C3      20.143452   20.161600   21.672264 C.3        1 MOL1        -0.1860
       8    H3      20.347248   20.425288   20.625186 H          1 MOL1         0.0752
       9    H4      21.095800   20.279225   22.207627 H          1 MOL1         0.0752
      10    C4      19.675078   18.685214   21.728825 C.3        1 MOL1        -0.1858
      11    H5      20.076345   18.165999   20.847736 H          1 MOL1         0.0752
      12    H6      18.581909   18.627974   21.636383 H          1 MOL1         0.0752
      13    C5      20.145830   17.905225   22.982128 C.3        1 MOL1        -0.1858
      14    H7      19.830787   16.858386   22.875237 H          1 MOL1         0.0752
      15    H8      21.243430   17.896789   23.007196 H          1 MOL1         0.0752
      16    C6      19.598163   18.459914   24.318374 C.3        1 MOL1        -0.1858
      17    H9      18.513765   18.609355   24.228124 H          1 MOL1         0.0752
      18    H10     20.039990   19.444388   24.520480 H          1 MOL1         0.0752
      19    C7      19.869097   17.529709   25.523715 C.3        1 MOL1        -0.1834
      20    H11     19.366752   17.943649   26.408852 H          1 MOL1         0.0752
      21    H12     19.416249   16.545232   25.342141 H          1 MOL1         0.0752
      22    C8      21.371581   17.360273   25.837017 C.3        1 MOL1        -0.2849
      23    H13     21.851462   18.334490   25.997516 H          1 MOL1         0.0764
      24    H14     21.509249   16.761434   26.746572 H          1 MOL1         0.0764
      25    H15     21.895335   16.848906   25.019669 H          1 MOL1         0.0764
@<TRIPOS>BOND
    1     1     2    1
    2     1     3    2
    3     1     4    1
    4     4     5    1
    5     4     6    1
    6     4     7    1
    7     7     8    1
    8     7     9    1
    9     7    10    1
   10    10    11    1
   11    10    12    1
   12    10    13    1
   13    13    14    1
   14    13    15    1
   15    13    16    1
   16    16    17    1
   17    16    18    1
   18    16    19    1
   19    19    20    1
   20    19    21    1
   21    19    22    1
   22    22    23    1
   23    22    24    1
   24    22    25    1
@<TRIPOS>SUBSTRUCTURE
       1 MOL1            1 RESIDUE      1      MOL     
@<SCITEGIC>MOL_PROPERTY
VConf Rank
SciTegic.value.IntegerValue
936

@<SCITEGIC>MOL_PROPERTY
Conf_Id
SciTegic.value.IntegerValue
89

@<SCITEGIC>MOL_PROPERTY
Delta U+W
SciTegic.value.DoubleValue
2.903

@<SCITEGIC>MOL_PROPERTY
U+W
SciTegic.value.DoubleValue
-48.726

@<SCITEGIC>MOL_PROPERTY
Grad RMS
SciTegic.value.DoubleValue
0.000000

@<SCITEGIC>MOL_PROPERTY
U
SciTegic.value.DoubleValue
10.996

@<SCITEGIC>MOL_PROPERTY
W
SciTegic.value.DoubleValue
-59.723

@<SCITEGIC>MOL_PROPERTY
W(PB)
SciTegic.value.DoubleValue
-62.151

@<SCITEGIC>MOL_PROPERTY
W(SA)
SciTegic.value.DoubleValue
2.428

@<SCITEGIC>MOL_PROPERTY
Valence
SciTegic.value.DoubleValue
10.985

@<SCITEGIC>MOL_PROPERTY
Coulomb
SciTegic.value.DoubleValue
-0.995

@<SCITEGIC>MOL_PROPERTY
VdW
SciTegic.value.DoubleValue
1.006

@<SCITEGIC>MOL_PROPERTY
VdW6
SciTegic.value.DoubleValue
-10.062

@<SCITEGIC>MOL_PROPERTY
VdW12
SciTegic.value.DoubleValue
11.069

@<SCITEGIC>MOL_PROPERTY
Bond
SciTegic.value.DoubleValue
0.238

@<SCITEGIC>MOL_PROPERTY
Angle
SciTegic.value.DoubleValue
3.202

@<SCITEGIC>MOL_PROPERTY
Pdih
SciTegic.value.DoubleValue
7.544

@<SCITEGIC>MOL_PROPERTY
Idih
SciTegic.value.DoubleValue
0.001

@<SCITEGIC>MOL_PROPERTY
Tether
SciTegic.value.DoubleValue
0.000

@<TRIPOS>MOLECULE
guest-8_confgen4.mol2 : confsearch ligand conformer 937
          25          24           1
SMALL
USER_CHARGES
 
@<TRIPOS>ATOM
       1    C1      19.309928   21.842631   25.354855 C.2        1 MOL1         0.6168
       2    O1      18.592622   21.321174   26.186008 O.co2      1 MOL1        -0.6703
       3    O2      20.376187   22.362291   25.620662 O.co2      1 MOL1        -0.6703
       4    C2      18.813046   21.903708   23.911725 C.3        1 MOL1        -0.1963
       5    H1      18.675111   22.965932   23.679060 H          1 MOL1         0.0750
       6    H2      17.821169   21.439149   23.855722 H          1 MOL1         0.0750
       7    C3      19.763927   21.274224   22.854769 C.3        1 MOL1        -0.1860
       8    H3      19.512121   21.703918   21.875790 H          1 MOL1         0.0752
       9    H4      20.801544   21.573931   23.057502 H          1 MOL1         0.0752
      10    C4      19.671038   19.732945   22.729207 C.3        1 MOL1        -0.1858
      11    H5      20.252733   19.435977   21.847754 H          1 MOL1         0.0752
      12    H6      18.631774   19.440865   22.526298 H          1 MOL1         0.0752
      13    C5      20.193805   18.967237   23.968880 C.3        1 MOL1        -0.1858
      14    H7      21.211731   19.300839   24.212409 H          1 MOL1         0.0752
      15    H8      19.568998   19.213969   24.835815 H          1 MOL1         0.0752
      16    C6      20.176630   17.429096   23.797989 C.3        1 MOL1        -0.1858
      17    H9      19.165284   17.100278   23.522519 H          1 MOL1         0.0752
      18    H10     20.396857   16.970914   24.771885 H          1 MOL1         0.0752
      19    C7      21.197431   16.908079   22.760711 C.3        1 MOL1        -0.1834
      20    H11     20.950075   17.286254   21.760446 H          1 MOL1         0.0752
      21    H12     22.200138   17.283847   23.006806 H          1 MOL1         0.0752
      22    C8      21.224551   15.366758   22.719612 C.3        1 MOL1        -0.2849
      23    H13     20.239623   14.964094   22.449156 H          1 MOL1         0.0764
      24    H14     21.951196   15.012370   21.977018 H          1 MOL1         0.0764
      25    H15     21.508377   14.952111   23.695755 H          1 MOL1         0.0764
@<TRIPOS>BOND
    1     1     2    1
    2     1     3    2
    3     1     4    1
    4     4     5    1
    5     4     6    1
    6     4     7    1
    7     7     8    1
    8     7     9    1
    9     7    10    1
   10    10    11    1
   11    10    12    1
   12    10    13    1
   13    13    14    1
   14    13    15    1
   15    13    16    1
   16    16    17    1
   17    16    18    1
   18    16    19    1
   19    19    20    1
   20    19    21    1
   21    19    22    1
   22    22    23    1
   23    22    24    1
   24    22    25    1
@<TRIPOS>SUBSTRUCTURE
       1 MOL1            1 RESIDUE      1      MOL     
@<SCITEGIC>MOL_PROPERTY
VConf Rank
SciTegic.value.IntegerValue
937

@<SCITEGIC>MOL_PROPERTY
Conf_Id
SciTegic.value.IntegerValue
114

@<SCITEGIC>MOL_PROPERTY
Delta U+W
SciTegic.value.DoubleValue
2.758

@<SCITEGIC>MOL_PROPERTY
U+W
SciTegic.value.DoubleValue
-48.871

@<SCITEGIC>MOL_PROPERTY
Grad RMS
SciTegic.value.DoubleValue
0.000000

@<SCITEGIC>MOL_PROPERTY
U
SciTegic.value.DoubleValue
11.422

@<SCITEGIC>MOL_PROPERTY
W
SciTegic.value.DoubleValue
-60.293

@<SCITEGIC>MOL_PROPERTY
W(PB)
SciTegic.value.DoubleValue
-62.719

@<SCITEGIC>MOL_PROPERTY
W(SA)
SciTegic.value.DoubleValue
2.425

@<SCITEGIC>MOL_PROPERTY
Valence
SciTegic.value.DoubleValue
10.135

@<SCITEGIC>MOL_PROPERTY
Coulomb
SciTegic.value.DoubleValue
0.369

@<SCITEGIC>MOL_PROPERTY
VdW
SciTegic.value.DoubleValue
0.918

@<SCITEGIC>MOL_PROPERTY
VdW6
SciTegic.value.DoubleValue
-10.482

@<SCITEGIC>MOL_PROPERTY
VdW12
SciTegic.value.DoubleValue
11.400

@<SCITEGIC>MOL_PROPERTY
Bond
SciTegic.value.DoubleValue
0.245

@<SCITEGIC>MOL_PROPERTY
Angle
SciTegic.value.DoubleValue
3.539

@<SCITEGIC>MOL_PROPERTY
Pdih
SciTegic.value.DoubleValue
6.346

@<SCITEGIC>MOL_PROPERTY
Idih
SciTegic.value.DoubleValue
0.006

@<SCITEGIC>MOL_PROPERTY
Tether
SciTegic.value.DoubleValue
0.000

@<TRIPOS>MOLECULE
guest-8_confgen4.mol2 : confsearch ligand conformer 938
          25          24           1
SMALL
USER_CHARGES
 
@<TRIPOS>ATOM
       1    C1      22.819533   19.320145   20.609079 C.2        1 MOL1         0.6168
       2    O1      22.191095   19.295159   19.569125 O.co2      1 MOL1        -0.6703
       3    O2      23.514486   20.256063   20.952874 O.co2      1 MOL1        -0.6703
       4    C2      22.750001   18.101829   21.525496 C.3        1 MOL1        -0.1963
       5    H1      23.773053   17.874028   21.847130 H          1 MOL1         0.0750
       6    H2      22.402832   17.242362   20.939351 H          1 MOL1         0.0750
       7    C3      21.847703   18.301985   22.770797 C.3        1 MOL1        -0.1860
       8    H3      21.958015   17.433804   23.434381 H          1 MOL1         0.0752
       9    H4      22.204086   19.177003   23.329959 H          1 MOL1         0.0752
      10    C4      20.355410   18.474372   22.398511 C.3        1 MOL1        -0.1858
      11    H5      20.048700   17.633791   21.761176 H          1 MOL1         0.0752
      12    H6      20.223117   19.383258   21.795414 H          1 MOL1         0.0752
      13    C5      19.413394   18.527955   23.625059 C.3        1 MOL1        -0.1858
      14    H7      18.379205   18.502243   23.259029 H          1 MOL1         0.0752
      15    H8      19.550649   17.624529   24.234573 H          1 MOL1         0.0752
      16    C6      19.616123   19.787348   24.503337 C.3        1 MOL1        -0.1858
      17    H9      19.482303   20.690452   23.892454 H          1 MOL1         0.0752
      18    H10     20.648704   19.812105   24.873778 H          1 MOL1         0.0752
      19    C7      18.668768   19.843742   25.724720 C.3        1 MOL1        -0.1834
      20    H11     18.791618   18.936308   26.331976 H          1 MOL1         0.0752
      21    H12     18.968397   20.686466   26.362904 H          1 MOL1         0.0752
      22    C8      17.182636   20.017008   25.342235 C.3        1 MOL1        -0.2849
      23    H13     16.567911   20.147775   26.242189 H          1 MOL1         0.0764
      24    H14     17.041104   20.899942   24.705439 H          1 MOL1         0.0764
      25    H15     16.800970   19.139849   24.805271 H          1 MOL1         0.0764
@<TRIPOS>BOND
    1     1     2    1
    2     1     3    2
    3     1     4    1
    4     4     5    1
    5     4     6    1
    6     4     7    1
    7     7     8    1
    8     7     9    1
    9     7    10    1
   10    10    11    1
   11    10    12    1
   12    10    13    1
   13    13    14    1
   14    13    15    1
   15    13    16    1
   16    16    17    1
   17    16    18    1
   18    16    19    1
   19    19    20    1
   20    19    21    1
   21    19    22    1
   22    22    23    1
   23    22    24    1
   24    22    25    1
@<TRIPOS>SUBSTRUCTURE
       1 MOL1            1 RESIDUE      1      MOL     
@<SCITEGIC>MOL_PROPERTY
VConf Rank
SciTegic.value.IntegerValue
938

@<SCITEGIC>MOL_PROPERTY
Conf_Id
SciTegic.value.IntegerValue
87

@<SCITEGIC>MOL_PROPERTY
Delta U+W
SciTegic.value.DoubleValue
1.453

@<SCITEGIC>MOL_PROPERTY
U+W
SciTegic.value.DoubleValue
-50.176

@<SCITEGIC>MOL_PROPERTY
Grad RMS
SciTegic.value.DoubleValue
0.000000

@<SCITEGIC>MOL_PROPERTY
U
SciTegic.value.DoubleValue
9.763

@<SCITEGIC>MOL_PROPERTY
W
SciTegic.value.DoubleValue
-59.940

@<SCITEGIC>MOL_PROPERTY
W(PB)
SciTegic.value.DoubleValue
-62.392

@<SCITEGIC>MOL_PROPERTY
W(SA)
SciTegic.value.DoubleValue
2.452

@<SCITEGIC>MOL_PROPERTY
Valence
SciTegic.value.DoubleValue
8.883

@<SCITEGIC>MOL_PROPERTY
Coulomb
SciTegic.value.DoubleValue
-0.122

@<SCITEGIC>MOL_PROPERTY
VdW
SciTegic.value.DoubleValue
1.003

@<SCITEGIC>MOL_PROPERTY
VdW6
SciTegic.value.DoubleValue
-9.782

@<SCITEGIC>MOL_PROPERTY
VdW12
SciTegic.value.DoubleValue
10.785

@<SCITEGIC>MOL_PROPERTY
Bond
SciTegic.value.DoubleValue
0.212

@<SCITEGIC>MOL_PROPERTY
Angle
SciTegic.value.DoubleValue
2.940

@<SCITEGIC>MOL_PROPERTY
Pdih
SciTegic.value.DoubleValue
5.730

@<SCITEGIC>MOL_PROPERTY
Idih
SciTegic.value.DoubleValue
0.001

@<SCITEGIC>MOL_PROPERTY
Tether
SciTegic.value.DoubleValue
0.000

@<TRIPOS>MOLECULE
guest-8_confgen4.mol2 : confsearch ligand conformer 939
          25          24           1
SMALL
USER_CHARGES
 
@<TRIPOS>ATOM
       1    C1      19.104247   22.705042   24.670427 C.2        1 MOL1         0.6168
       2    O1      18.487011   22.441892   25.683568 O.co2      1 MOL1        -0.6703
       3    O2      19.780411   23.705605   24.534702 O.co2      1 MOL1        -0.6703
       4    C2      19.041674   21.716063   23.511906 C.3        1 MOL1        -0.1963
       5    H1      19.113416   22.282922   22.575954 H          1 MOL1         0.0750
       6    H2      18.055608   21.236434   23.526205 H          1 MOL1         0.0750
       7    C3      20.157380   20.644099   23.575484 C.3        1 MOL1        -0.1860
       8    H3      21.138203   21.139162   23.568979 H          1 MOL1         0.0752
       9    H4      20.077097   20.104181   24.528284 H          1 MOL1         0.0752
      10    C4      20.066557   19.650802   22.394070 C.3        1 MOL1        -0.1858
      11    H5      20.078469   20.214650   21.451437 H          1 MOL1         0.0752
      12    H6      19.102500   19.126230   22.422778 H          1 MOL1         0.0752
      13    C5      21.225367   18.622947   22.362227 C.3        1 MOL1        -0.1858
      14    H7      21.120021   17.997602   21.466000 H          1 MOL1         0.0752
      15    H8      22.173922   19.162562   22.237609 H          1 MOL1         0.0752
      16    C6      21.336138   17.710061   23.612103 C.3        1 MOL1        -0.1858
      17    H9      21.605194   18.319623   24.484633 H          1 MOL1         0.0752
      18    H10     22.175203   17.016581   23.465326 H          1 MOL1         0.0752
      19    C7      20.064918   16.890757   23.945074 C.3        1 MOL1        -0.1834
      20    H11     20.253209   16.306999   24.856490 H          1 MOL1         0.0752
      21    H12     19.232130   17.565658   24.183415 H          1 MOL1         0.0752
      22    C8      19.647204   15.925999   22.814234 C.3        1 MOL1        -0.2849
      23    H13     20.471826   15.251988   22.548446 H          1 MOL1         0.0764
      24    H14     18.794715   15.310606   23.129324 H          1 MOL1         0.0764
      25    H15     19.346587   16.474906   21.912971 H          1 MOL1         0.0764
@<TRIPOS>BOND
    1     1     2    1
    2     1     3    2
    3     1     4    1
    4     4     5    1
    5     4     6    1
    6     4     7    1
    7     7     8    1
    8     7     9    1
    9     7    10    1
   10    10    11    1
   11    10    12    1
   12    10    13    1
   13    13    14    1
   14    13    15    1
   15    13    16    1
   16    16    17    1
   17    16    18    1
   18    16    19    1
   19    19    20    1
   20    19    21    1
   21    19    22    1
   22    22    23    1
   23    22    24    1
   24    22    25    1
@<TRIPOS>SUBSTRUCTURE
       1 MOL1            1 RESIDUE      1      MOL     
@<SCITEGIC>MOL_PROPERTY
VConf Rank
SciTegic.value.IntegerValue
939

@<SCITEGIC>MOL_PROPERTY
Conf_Id
SciTegic.value.IntegerValue
29

@<SCITEGIC>MOL_PROPERTY
Delta U+W
SciTegic.value.DoubleValue
0.850

@<SCITEGIC>MOL_PROPERTY
U+W
SciTegic.value.DoubleValue
-50.780

@<SCITEGIC>MOL_PROPERTY
Grad RMS
SciTegic.value.DoubleValue
0.000000

@<SCITEGIC>MOL_PROPERTY
U
SciTegic.value.DoubleValue
8.646

@<SCITEGIC>MOL_PROPERTY
W
SciTegic.value.DoubleValue
-59.426

@<SCITEGIC>MOL_PROPERTY
W(PB)
SciTegic.value.DoubleValue
-61.868

@<SCITEGIC>MOL_PROPERTY
W(SA)
SciTegic.value.DoubleValue
2.442

@<SCITEGIC>MOL_PROPERTY
Valence
SciTegic.value.DoubleValue
8.924

@<SCITEGIC>MOL_PROPERTY
Coulomb
SciTegic.value.DoubleValue
-1.171

@<SCITEGIC>MOL_PROPERTY
VdW
SciTegic.value.DoubleValue
0.894

@<SCITEGIC>MOL_PROPERTY
VdW6
SciTegic.value.DoubleValue
-10.223

@<SCITEGIC>MOL_PROPERTY
VdW12
SciTegic.value.DoubleValue
11.117

@<SCITEGIC>MOL_PROPERTY
Bond
SciTegic.value.DoubleValue
0.231

@<SCITEGIC>MOL_PROPERTY
Angle
SciTegic.value.DoubleValue
3.232

@<SCITEGIC>MOL_PROPERTY
Pdih
SciTegic.value.DoubleValue
5.461

@<SCITEGIC>MOL_PROPERTY
Idih
SciTegic.value.DoubleValue
0.001

@<SCITEGIC>MOL_PROPERTY
Tether
SciTegic.value.DoubleValue
0.000

@<TRIPOS>MOLECULE
guest-8_confgen4.mol2 : confsearch ligand conformer 940
          25          24           1
SMALL
USER_CHARGES
 
@<TRIPOS>ATOM
       1    C1      16.705378   20.313104   21.443962 C.2        1 MOL1         0.6168
       2    O1      16.401930   21.320899   22.051379 O.co2      1 MOL1        -0.6703
       3    O2      15.895023   19.563662   20.935631 O.co2      1 MOL1        -0.6703
       4    C2      18.183822   19.959178   21.329454 C.3        1 MOL1        -0.1963
       5    H1      18.756516   20.893858   21.298359 H          1 MOL1         0.0750
       6    H2      18.339112   19.451230   20.370102 H          1 MOL1         0.0750
       7    C3      18.680628   19.067531   22.493973 C.3        1 MOL1        -0.1860
       8    H3      18.496575   19.588071   23.443155 H          1 MOL1         0.0752
       9    H4      18.092898   18.139552   22.517828 H          1 MOL1         0.0752
      10    C4      20.183291   18.729965   22.357261 C.3        1 MOL1        -0.1858
      11    H5      20.774947   19.654672   22.373605 H          1 MOL1         0.0752
      12    H6      20.358934   18.273425   21.373725 H          1 MOL1         0.0752
      13    C5      20.697905   17.755453   23.446222 C.3        1 MOL1        -0.1858
      14    H7      20.159420   16.802773   23.351851 H          1 MOL1         0.0752
      15    H8      21.751393   17.521915   23.243726 H          1 MOL1         0.0752
      16    C6      20.558052   18.260094   24.906908 C.3        1 MOL1        -0.1858
      17    H9      20.971479   17.497963   25.581241 H          1 MOL1         0.0752
      18    H10     19.493619   18.337033   25.164450 H          1 MOL1         0.0752
      19    C7      21.245715   19.615198   25.205147 C.3        1 MOL1        -0.1834
      20    H11     20.786688   20.411983   24.604928 H          1 MOL1         0.0752
      21    H12     21.058426   19.879458   26.254906 H          1 MOL1         0.0752
      22    C8      22.770425   19.592115   24.962739 C.3        1 MOL1        -0.2849
      23    H13     23.002871   19.436248   23.901787 H          1 MOL1         0.0764
      24    H14     23.222344   20.545210   25.266233 H          1 MOL1         0.0764
      25    H15     23.248029   18.791058   25.541650 H          1 MOL1         0.0764
@<TRIPOS>BOND
    1     1     2    1
    2     1     3    2
    3     1     4    1
    4     4     5    1
    5     4     6    1
    6     4     7    1
    7     7     8    1
    8     7     9    1
    9     7    10    1
   10    10    11    1
   11    10    12    1
   12    10    13    1
   13    13    14    1
   14    13    15    1
   15    13    16    1
   16    16    17    1
   17    16    18    1
   18    16    19    1
   19    19    20    1
   20    19    21    1
   21    19    22    1
   22    22    23    1
   23    22    24    1
   24    22    25    1
@<TRIPOS>SUBSTRUCTURE
       1 MOL1            1 RESIDUE      1      MOL     
@<SCITEGIC>MOL_PROPERTY
VConf Rank
SciTegic.value.IntegerValue
940

@<SCITEGIC>MOL_PROPERTY
Conf_Id
SciTegic.value.IntegerValue
30

@<SCITEGIC>MOL_PROPERTY
Delta U+W
SciTegic.value.DoubleValue
0.843

@<SCITEGIC>MOL_PROPERTY
U+W
SciTegic.value.DoubleValue
-50.787

@<SCITEGIC>MOL_PROPERTY
Grad RMS
SciTegic.value.DoubleValue
0.000000

@<SCITEGIC>MOL_PROPERTY
U
SciTegic.value.DoubleValue
8.647

@<SCITEGIC>MOL_PROPERTY
W
SciTegic.value.DoubleValue
-59.434

@<SCITEGIC>MOL_PROPERTY
W(PB)
SciTegic.value.DoubleValue
-61.861

@<SCITEGIC>MOL_PROPERTY
W(SA)
SciTegic.value.DoubleValue
2.428

@<SCITEGIC>MOL_PROPERTY
Valence
SciTegic.value.DoubleValue
8.924

@<SCITEGIC>MOL_PROPERTY
Coulomb
SciTegic.value.DoubleValue
-1.170

@<SCITEGIC>MOL_PROPERTY
VdW
SciTegic.value.DoubleValue
0.894

@<SCITEGIC>MOL_PROPERTY
VdW6
SciTegic.value.DoubleValue
-10.224

@<SCITEGIC>MOL_PROPERTY
VdW12
SciTegic.value.DoubleValue
11.118

@<SCITEGIC>MOL_PROPERTY
Bond
SciTegic.value.DoubleValue
0.231

@<SCITEGIC>MOL_PROPERTY
Angle
SciTegic.value.DoubleValue
3.232

@<SCITEGIC>MOL_PROPERTY
Pdih
SciTegic.value.DoubleValue
5.460

@<SCITEGIC>MOL_PROPERTY
Idih
SciTegic.value.DoubleValue
0.000

@<SCITEGIC>MOL_PROPERTY
Tether
SciTegic.value.DoubleValue
0.000

@<TRIPOS>MOLECULE
guest-8_confgen4.mol2 : confsearch ligand conformer 941
          25          24           1
SMALL
USER_CHARGES
 
@<TRIPOS>ATOM
       1    C1      20.491606   15.307086   20.485075 C.2        1 MOL1         0.6168
       2    O1      21.574271   15.635477   20.039432 O.co2      1 MOL1        -0.6703
       3    O2      19.934002   14.271987   20.178866 O.co2      1 MOL1        -0.6703
       4    C2      19.772437   16.219383   21.480016 C.3        1 MOL1        -0.1963
       5    H1      19.591764   15.633663   22.388970 H          1 MOL1         0.0750
       6    H2      18.791811   16.460068   21.052993 H          1 MOL1         0.0750
       7    C3      20.523531   17.528774   21.840252 C.3        1 MOL1        -0.1860
       8    H3      21.507577   17.280402   22.261524 H          1 MOL1         0.0752
       9    H4      20.706856   18.107592   20.924355 H          1 MOL1         0.0752
      10    C4      19.729004   18.388152   22.847646 C.3        1 MOL1        -0.1858
      11    H5      19.546875   17.807468   23.762399 H          1 MOL1         0.0752
      12    H6      18.745664   18.635192   22.424384 H          1 MOL1         0.0752
      13    C5      20.477978   19.690119   23.204585 C.3        1 MOL1        -0.1858
      14    H7      21.461353   19.443386   23.627906 H          1 MOL1         0.0752
      15    H8      20.660209   20.271041   22.290022 H          1 MOL1         0.0752
      16    C6      19.684102   20.549852   24.211826 C.3        1 MOL1        -0.1858
      17    H9      19.501801   19.969134   25.126499 H          1 MOL1         0.0752
      18    H10     18.700717   20.796794   23.788662 H          1 MOL1         0.0752
      19    C7      20.432668   21.851251   24.568713 C.3        1 MOL1        -0.1834
      20    H11     21.416238   21.608132   24.994120 H          1 MOL1         0.0752
      21    H12     20.615157   22.435791   23.656299 H          1 MOL1         0.0752
      22    C8      19.636745   22.706910   25.574675 C.3        1 MOL1        -0.2849
      23    H13     19.467006   22.157418   26.509899 H          1 MOL1         0.0764
      24    H14     20.183271   23.627595   25.817028 H          1 MOL1         0.0764
      25    H15     18.659907   22.991324   25.162007 H          1 MOL1         0.0764
@<TRIPOS>BOND
    1     1     2    1
    2     1     3    2
    3     1     4    1
    4     4     5    1
    5     4     6    1
    6     4     7    1
    7     7     8    1
    8     7     9    1
    9     7    10    1
   10    10    11    1
   11    10    12    1
   12    10    13    1
   13    13    14    1
   14    13    15    1
   15    13    16    1
   16    16    17    1
   17    16    18    1
   18    16    19    1
   19    19    20    1
   20    19    21    1
   21    19    22    1
   22    22    23    1
   23    22    24    1
   24    22    25    1
@<TRIPOS>SUBSTRUCTURE
       1 MOL1            1 RESIDUE      1      MOL     
@<SCITEGIC>MOL_PROPERTY
VConf Rank
SciTegic.value.IntegerValue
941

@<SCITEGIC>MOL_PROPERTY
Conf_Id
SciTegic.value.IntegerValue
0

@<SCITEGIC>MOL_PROPERTY
Delta U+W
SciTegic.value.DoubleValue
0.000

@<SCITEGIC>MOL_PROPERTY
U+W
SciTegic.value.DoubleValue
-51.629

@<SCITEGIC>MOL_PROPERTY
Grad RMS
SciTegic.value.DoubleValue
0.000000

@<SCITEGIC>MOL_PROPERTY
U
SciTegic.value.DoubleValue
6.586

@<SCITEGIC>MOL_PROPERTY
W
SciTegic.value.DoubleValue
-58.216

@<SCITEGIC>MOL_PROPERTY
W(PB)
SciTegic.value.DoubleValue
-60.757

@<SCITEGIC>MOL_PROPERTY
W(SA)
SciTegic.value.DoubleValue
2.541

@<SCITEGIC>MOL_PROPERTY
Valence
SciTegic.value.DoubleValue
8.027

@<SCITEGIC>MOL_PROPERTY
Coulomb
SciTegic.value.DoubleValue
-2.892

@<SCITEGIC>MOL_PROPERTY
VdW
SciTegic.value.DoubleValue
1.451

@<SCITEGIC>MOL_PROPERTY
VdW6
SciTegic.value.DoubleValue
-7.931

@<SCITEGIC>MOL_PROPERTY
VdW12
SciTegic.value.DoubleValue
9.383

@<SCITEGIC>MOL_PROPERTY
Bond
SciTegic.value.DoubleValue
0.149

@<SCITEGIC>MOL_PROPERTY
Angle
SciTegic.value.DoubleValue
2.726

@<SCITEGIC>MOL_PROPERTY
Pdih
SciTegic.value.DoubleValue
5.152

@<SCITEGIC>MOL_PROPERTY
Idih
SciTegic.value.DoubleValue
0.000

@<SCITEGIC>MOL_PROPERTY
Tether
SciTegic.value.DoubleValue
0.000

@<TRIPOS>MOLECULE
guest-8_confgen4.mol2 : confsearch ligand conformer 942
          25          24           1
SMALL
USER_CHARGES
 
@<TRIPOS>ATOM
       1    C1      24.331671   18.076016   24.856362 C.2        1 MOL1         0.6168
       2    O1      24.390086   16.991964   25.402292 O.co2      1 MOL1        -0.6703
       3    O2      25.261582   18.579573   24.257766 O.co2      1 MOL1        -0.6703
       4    C2      23.011219   18.836322   24.905569 C.3        1 MOL1        -0.1963
       5    H1      23.236227   19.909598   24.913014 H          1 MOL1         0.0750
       6    H2      22.518320   18.601669   25.856670 H          1 MOL1         0.0750
       7    C3      22.075824   18.494235   23.719805 C.3        1 MOL1        -0.1860
       8    H3      22.588963   18.722478   22.775249 H          1 MOL1         0.0752
       9    H4      21.871208   17.414548   23.718802 H          1 MOL1         0.0752
      10    C4      20.746330   19.276046   23.792202 C.3        1 MOL1        -0.1858
      11    H5      20.954392   20.354883   23.794144 H          1 MOL1         0.0752
      12    H6      20.236547   19.046751   24.738101 H          1 MOL1         0.0752
      13    C5      19.815873   18.932827   22.609021 C.3        1 MOL1        -0.1858
      14    H7      20.325408   19.162104   21.663024 H          1 MOL1         0.0752
      15    H8      19.607676   17.854053   22.606906 H          1 MOL1         0.0752
      16    C6      18.486153   19.714220   22.680781 C.3        1 MOL1        -0.1858
      17    H9      18.694003   20.793057   22.682808 H          1 MOL1         0.0752
      18    H10     17.976361   19.485138   23.626682 H          1 MOL1         0.0752
      19    C7      17.555941   19.371217   21.498235 C.3        1 MOL1        -0.1834
      20    H11     18.061884   19.600848   20.550195 H          1 MOL1         0.0752
      21    H12     17.344223   18.292955   21.494077 H          1 MOL1         0.0752
      22    C8      16.229294   20.153486   21.573494 C.3        1 MOL1        -0.2849
      23    H13     15.580597   19.897586   20.725677 H          1 MOL1         0.0764
      24    H14     15.686586   19.918432   22.498489 H          1 MOL1         0.0764
      25    H15     16.409655   21.236164   21.547503 H          1 MOL1         0.0764
@<TRIPOS>BOND
    1     1     2    1
    2     1     3    2
    3     1     4    1
    4     4     5    1
    5     4     6    1
    6     4     7    1
    7     7     8    1
    8     7     9    1
    9     7    10    1
   10    10    11    1
   11    10    12    1
   12    10    13    1
   13    13    14    1
   14    13    15    1
   15    13    16    1
   16    16    17    1
   17    16    18    1
   18    16    19    1
   19    19    20    1
   20    19    21    1
   21    19    22    1
   22    22    23    1
   23    22    24    1
   24    22    25    1
@<TRIPOS>SUBSTRUCTURE
       1 MOL1            1 RESIDUE      1      MOL     
@<SCITEGIC>MOL_PROPERTY
VConf Rank
SciTegic.value.IntegerValue
942

@<SCITEGIC>MOL_PROPERTY
Conf_Id
SciTegic.value.IntegerValue
27

@<SCITEGIC>MOL_PROPERTY
Delta U+W
SciTegic.value.DoubleValue
-1.297

@<SCITEGIC>MOL_PROPERTY
U+W
SciTegic.value.DoubleValue
-52.926

@<SCITEGIC>MOL_PROPERTY
Grad RMS
SciTegic.value.DoubleValue
0.000000

@<SCITEGIC>MOL_PROPERTY
U
SciTegic.value.DoubleValue
5.617

@<SCITEGIC>MOL_PROPERTY
W
SciTegic.value.DoubleValue
-58.543

@<SCITEGIC>MOL_PROPERTY
W(PB)
SciTegic.value.DoubleValue
-61.065

@<SCITEGIC>MOL_PROPERTY
W(SA)
SciTegic.value.DoubleValue
2.522

@<SCITEGIC>MOL_PROPERTY
Valence
SciTegic.value.DoubleValue
7.531

@<SCITEGIC>MOL_PROPERTY
Coulomb
SciTegic.value.DoubleValue
-2.818

@<SCITEGIC>MOL_PROPERTY
VdW
SciTegic.value.DoubleValue
0.904

@<SCITEGIC>MOL_PROPERTY
VdW6
SciTegic.value.DoubleValue
-7.640

@<SCITEGIC>MOL_PROPERTY
VdW12
SciTegic.value.DoubleValue
8.544

@<SCITEGIC>MOL_PROPERTY
Bond
SciTegic.value.DoubleValue
0.115

@<SCITEGIC>MOL_PROPERTY
Angle
SciTegic.value.DoubleValue
2.271

@<SCITEGIC>MOL_PROPERTY
Pdih
SciTegic.value.DoubleValue
5.144

@<SCITEGIC>MOL_PROPERTY
Idih
SciTegic.value.DoubleValue
0.001

@<SCITEGIC>MOL_PROPERTY
Tether
SciTegic.value.DoubleValue
0.000

@<TRIPOS>MOLECULE
guest-8_confgen4.mol2 : confsearch ligand conformer 943
          25          24           1
SMALL
USER_CHARGES
 
@<TRIPOS>ATOM
       1    C1      20.616079   15.101688   23.734758 C.2        1 MOL1         0.6168
       2    O1      21.767449   14.717004   23.676099 O.co2      1 MOL1        -0.6703
       3    O2      19.934484   15.034078   24.738660 O.co2      1 MOL1        -0.6703
       4    C2      19.988382   15.685976   22.472392 C.3        1 MOL1        -0.1963
       5    H1      18.897207   15.659700   22.579591 H          1 MOL1         0.0750
       6    H2      20.241844   15.017963   21.640827 H          1 MOL1         0.0750
       7    C3      20.459823   17.126069   22.142515 C.3        1 MOL1        -0.1860
       8    H3      21.555968   17.141543   22.065722 H          1 MOL1         0.0752
       9    H4      20.069792   17.411613   21.156163 H          1 MOL1         0.0752
      10    C4      19.994128   18.159119   23.193088 C.3        1 MOL1        -0.1858
      11    H5      20.395024   17.889883   24.180113 H          1 MOL1         0.0752
      12    H6      18.898982   18.130265   23.275842 H          1 MOL1         0.0752
      13    C5      20.446907   19.589374   22.828408 C.3        1 MOL1        -0.1858
      14    H7      21.542127   19.617233   22.745904 H          1 MOL1         0.0752
      15    H8      20.044661   19.861924   21.843039 H          1 MOL1         0.0752
      16    C6      19.982660   20.622023   23.878156 C.3        1 MOL1        -0.1858
      17    H9      20.384788   20.349553   24.863642 H          1 MOL1         0.0752
      18    H10     18.887478   20.594079   23.961079 H          1 MOL1         0.0752
      19    C7      20.435441   22.051710   23.514351 C.3        1 MOL1        -0.1834
      20    H11     21.530764   22.083805   23.432366 H          1 MOL1         0.0752
      21    H12     20.033374   22.328389   22.529836 H          1 MOL1         0.0752
      22    C8      19.970022   23.079733   24.565142 C.3        1 MOL1        -0.2849
      23    H13     20.383784   22.844854   25.554602 H          1 MOL1         0.0764
      24    H14     20.300365   24.090034   24.290833 H          1 MOL1         0.0764
      25    H15     18.875111   23.091261   24.645328 H          1 MOL1         0.0764
@<TRIPOS>BOND
    1     1     2    1
    2     1     3    2
    3     1     4    1
    4     4     5    1
    5     4     6    1
    6     4     7    1
    7     7     8    1
    8     7     9    1
    9     7    10    1
   10    10    11    1
   11    10    12    1
   12    10    13    1
   13    13    14    1
   14    13    15    1
   15    13    16    1
   16    16    17    1
   17    16    18    1
   18    16    19    1
   19    19    20    1
   20    19    21    1
   21    19    22    1
   22    22    23    1
   23    22    24    1
   24    22    25    1
@<TRIPOS>SUBSTRUCTURE
       1 MOL1            1 RESIDUE      1      MOL     
@<SCITEGIC>MOL_PROPERTY
VConf Rank
SciTegic.value.IntegerValue
943

@<SCITEGIC>MOL_PROPERTY
Conf_Id
SciTegic.value.IntegerValue
37

@<SCITEGIC>MOL_PROPERTY
Delta U+W
SciTegic.value.DoubleValue
-0.230

@<SCITEGIC>MOL_PROPERTY
U+W
SciTegic.value.DoubleValue
-51.860

@<SCITEGIC>MOL_PROPERTY
Grad RMS
SciTegic.value.DoubleValue
0.000000

@<SCITEGIC>MOL_PROPERTY
U
SciTegic.value.DoubleValue
7.816

@<SCITEGIC>MOL_PROPERTY
W
SciTegic.value.DoubleValue
-59.675

@<SCITEGIC>MOL_PROPERTY
W(PB)
SciTegic.value.DoubleValue
-62.180

@<SCITEGIC>MOL_PROPERTY
W(SA)
SciTegic.value.DoubleValue
2.505

@<SCITEGIC>MOL_PROPERTY
Valence
SciTegic.value.DoubleValue
7.785

@<SCITEGIC>MOL_PROPERTY
Coulomb
SciTegic.value.DoubleValue
-0.713

@<SCITEGIC>MOL_PROPERTY
VdW
SciTegic.value.DoubleValue
0.744

@<SCITEGIC>MOL_PROPERTY
VdW6
SciTegic.value.DoubleValue
-8.514

@<SCITEGIC>MOL_PROPERTY
VdW12
SciTegic.value.DoubleValue
9.259

@<SCITEGIC>MOL_PROPERTY
Bond
SciTegic.value.DoubleValue
0.136

@<SCITEGIC>MOL_PROPERTY
Angle
SciTegic.value.DoubleValue
2.433

@<SCITEGIC>MOL_PROPERTY
Pdih
SciTegic.value.DoubleValue
5.216

@<SCITEGIC>MOL_PROPERTY
Idih
SciTegic.value.DoubleValue
0.000

@<SCITEGIC>MOL_PROPERTY
Tether
SciTegic.value.DoubleValue
0.000

@<TRIPOS>MOLECULE
guest-8_confgen4.mol2 : confsearch ligand conformer 944
          25          24           1
SMALL
USER_CHARGES
 
@<TRIPOS>ATOM
       1    C1      16.782011   21.234474   21.807316 C.2        1 MOL1         0.6168
       2    O1      17.058755   22.261808   21.219886 O.co2      1 MOL1        -0.6703
       3    O2      16.145433   21.201720   22.842042 O.co2      1 MOL1        -0.6703
       4    C2      17.246555   19.912910   21.201811 C.3        1 MOL1        -0.1963
       5    H1      17.015588   19.943982   20.130517 H          1 MOL1         0.0750
       6    H2      16.647958   19.101000   21.632310 H          1 MOL1         0.0750
       7    C3      18.757962   19.626391   21.398028 C.3        1 MOL1        -0.1860
       8    H3      19.029754   18.733953   20.818171 H          1 MOL1         0.0752
       9    H4      19.342954   20.460914   20.986899 H          1 MOL1         0.0752
      10    C4      19.133184   19.404488   22.880504 C.3        1 MOL1        -0.1858
      11    H5      18.536290   18.578247   23.290462 H          1 MOL1         0.0752
      12    H6      18.880138   20.300191   23.464548 H          1 MOL1         0.0752
      13    C5      20.635212   19.089716   23.049200 C.3        1 MOL1        -0.1858
      14    H7      20.889970   18.192643   22.468343 H          1 MOL1         0.0752
      15    H8      21.231251   19.916536   22.639083 H          1 MOL1         0.0752
      16    C6      21.011012   18.868564   24.530322 C.3        1 MOL1        -0.1858
      17    H9      20.414869   18.041963   24.940721 H          1 MOL1         0.0752
      18    H10     20.756182   19.765544   25.111368 H          1 MOL1         0.0752
      19    C7      22.512382   18.554510   24.699508 C.3        1 MOL1        -0.1834
      20    H11     22.770536   17.656642   24.121003 H          1 MOL1         0.0752
      21    H12     23.111815   19.380280   24.291750 H          1 MOL1         0.0752
      22    C8      22.883472   18.334392   26.179860 C.3        1 MOL1        -0.2849
      23    H13     22.320932   17.492792   26.604892 H          1 MOL1         0.0764
      24    H14     23.953741   18.112453   26.281596 H          1 MOL1         0.0764
      25    H15     22.664700   19.229402   26.776931 H          1 MOL1         0.0764
@<TRIPOS>BOND
    1     1     2    1
    2     1     3    2
    3     1     4    1
    4     4     5    1
    5     4     6    1
    6     4     7    1
    7     7     8    1
    8     7     9    1
    9     7    10    1
   10    10    11    1
   11    10    12    1
   12    10    13    1
   13    13    14    1
   14    13    15    1
   15    13    16    1
   16    16    17    1
   17    16    18    1
   18    16    19    1
   19    19    20    1
   20    19    21    1
   21    19    22    1
   22    22    23    1
   23    22    24    1
   24    22    25    1
@<TRIPOS>SUBSTRUCTURE
       1 MOL1            1 RESIDUE      1      MOL     
@<SCITEGIC>MOL_PROPERTY
VConf Rank
SciTegic.value.IntegerValue
944

@<SCITEGIC>MOL_PROPERTY
Conf_Id
SciTegic.value.IntegerValue
54

@<SCITEGIC>MOL_PROPERTY
Delta U+W
SciTegic.value.DoubleValue
-0.224

@<SCITEGIC>MOL_PROPERTY
U+W
SciTegic.value.DoubleValue
-51.854

@<SCITEGIC>MOL_PROPERTY
Grad RMS
SciTegic.value.DoubleValue
0.000000

@<SCITEGIC>MOL_PROPERTY
U
SciTegic.value.DoubleValue
7.816

@<SCITEGIC>MOL_PROPERTY
W
SciTegic.value.DoubleValue
-59.670

@<SCITEGIC>MOL_PROPERTY
W(PB)
SciTegic.value.DoubleValue
-62.157

@<SCITEGIC>MOL_PROPERTY
W(SA)
SciTegic.value.DoubleValue
2.487

@<SCITEGIC>MOL_PROPERTY
Valence
SciTegic.value.DoubleValue
7.785

@<SCITEGIC>MOL_PROPERTY
Coulomb
SciTegic.value.DoubleValue
-0.713

@<SCITEGIC>MOL_PROPERTY
VdW
SciTegic.value.DoubleValue
0.744

@<SCITEGIC>MOL_PROPERTY
VdW6
SciTegic.value.DoubleValue
-8.515

@<SCITEGIC>MOL_PROPERTY
VdW12
SciTegic.value.DoubleValue
9.259

@<SCITEGIC>MOL_PROPERTY
Bond
SciTegic.value.DoubleValue
0.136

@<SCITEGIC>MOL_PROPERTY
Angle
SciTegic.value.DoubleValue
2.433

@<SCITEGIC>MOL_PROPERTY
Pdih
SciTegic.value.DoubleValue
5.215

@<SCITEGIC>MOL_PROPERTY
Idih
SciTegic.value.DoubleValue
0.000

@<SCITEGIC>MOL_PROPERTY
Tether
SciTegic.value.DoubleValue
0.000

@<TRIPOS>MOLECULE
guest-8_confgen4.mol2 : confsearch ligand conformer 945
          25          24           1
SMALL
USER_CHARGES
 
@<TRIPOS>ATOM
       1    C1      19.509150   22.684300   21.479259 C.2        1 MOL1         0.6168
       2    O1      18.617620   22.470676   20.681394 O.co2      1 MOL1        -0.6703
       3    O2      19.497160   23.607115   22.270068 O.co2      1 MOL1        -0.6703
       4    C2      20.719712   21.754934   21.477201 C.3        1 MOL1        -0.1963
       5    H1      21.615907   22.385655   21.508748 H          1 MOL1         0.0750
       6    H2      20.745235   21.214582   20.523158 H          1 MOL1         0.0750
       7    C3      20.749985   20.753198   22.660955 C.3        1 MOL1        -0.1860
       8    H3      21.722276   20.244816   22.659766 H          1 MOL1         0.0752
       9    H4      20.682113   21.306855   23.607663 H          1 MOL1         0.0752
      10    C4      19.612319   19.706548   22.582266 C.3        1 MOL1        -0.1858
      11    H5      19.708070   19.122703   21.656667 H          1 MOL1         0.0752
      12    H6      18.647798   20.228759   22.519231 H          1 MOL1         0.0752
      13    C5      19.565895   18.749030   23.797156 C.3        1 MOL1        -0.1858
      14    H7      19.489179   19.334064   24.723669 H          1 MOL1         0.0752
      15    H8      18.644557   18.157221   23.725964 H          1 MOL1         0.0752
      16    C6      20.783097   17.794871   23.879800 C.3        1 MOL1        -0.1858
      17    H9      21.705240   18.384219   23.958509 H          1 MOL1         0.0752
      18    H10     20.862268   17.213769   22.951000 H          1 MOL1         0.0752
      19    C7      20.727707   16.831938   25.089006 C.3        1 MOL1        -0.1834
      20    H11     21.682772   16.292405   25.152257 H          1 MOL1         0.0752
      21    H12     20.635884   17.409253   26.019369 H          1 MOL1         0.0752
      22    C8      19.581904   15.800259   25.001196 C.3        1 MOL1        -0.2849
      23    H13     18.599435   16.284908   25.058409 H          1 MOL1         0.0764
      24    H14     19.633464   15.234649   24.061761 H          1 MOL1         0.0764
      25    H15     19.646623   15.084009   25.830475 H          1 MOL1         0.0764
@<TRIPOS>BOND
    1     1     2    1
    2     1     3    2
    3     1     4    1
    4     4     5    1
    5     4     6    1
    6     4     7    1
    7     7     8    1
    8     7     9    1
    9     7    10    1
   10    10    11    1
   11    10    12    1
   12    10    13    1
   13    13    14    1
   14    13    15    1
   15    13    16    1
   16    16    17    1
   17    16    18    1
   18    16    19    1
   19    19    20    1
   20    19    21    1
   21    19    22    1
   22    22    23    1
   23    22    24    1
   24    22    25    1
@<TRIPOS>SUBSTRUCTURE
       1 MOL1            1 RESIDUE      1      MOL     
@<SCITEGIC>MOL_PROPERTY
VConf Rank
SciTegic.value.IntegerValue
945

@<SCITEGIC>MOL_PROPERTY
Conf_Id
SciTegic.value.IntegerValue
101

@<SCITEGIC>MOL_PROPERTY
Delta U+W
SciTegic.value.DoubleValue
1.534

@<SCITEGIC>MOL_PROPERTY
U+W
SciTegic.value.DoubleValue
-50.095

@<SCITEGIC>MOL_PROPERTY
Grad RMS
SciTegic.value.DoubleValue
0.000000

@<SCITEGIC>MOL_PROPERTY
U
SciTegic.value.DoubleValue
9.416

@<SCITEGIC>MOL_PROPERTY
W
SciTegic.value.DoubleValue
-59.512

@<SCITEGIC>MOL_PROPERTY
W(PB)
SciTegic.value.DoubleValue
-61.988

@<SCITEGIC>MOL_PROPERTY
W(SA)
SciTegic.value.DoubleValue
2.476

@<SCITEGIC>MOL_PROPERTY
Valence
SciTegic.value.DoubleValue
8.939

@<SCITEGIC>MOL_PROPERTY
Coulomb
SciTegic.value.DoubleValue
-0.615

@<SCITEGIC>MOL_PROPERTY
VdW
SciTegic.value.DoubleValue
1.092

@<SCITEGIC>MOL_PROPERTY
VdW6
SciTegic.value.DoubleValue
-9.710

@<SCITEGIC>MOL_PROPERTY
VdW12
SciTegic.value.DoubleValue
10.802

@<SCITEGIC>MOL_PROPERTY
Bond
SciTegic.value.DoubleValue
0.216

@<SCITEGIC>MOL_PROPERTY
Angle
SciTegic.value.DoubleValue
2.979

@<SCITEGIC>MOL_PROPERTY
Pdih
SciTegic.value.DoubleValue
5.743

@<SCITEGIC>MOL_PROPERTY
Idih
SciTegic.value.DoubleValue
0.000

@<SCITEGIC>MOL_PROPERTY
Tether
SciTegic.value.DoubleValue
0.000

@<TRIPOS>MOLECULE
guest-8_confgen4.mol2 : confsearch ligand conformer 946
          25          24           1
SMALL
USER_CHARGES
 
@<TRIPOS>ATOM
       1    C1      17.766339   21.642763   25.752087 C.2        1 MOL1         0.6168
       2    O1      17.665698   21.081930   26.825434 O.co2      1 MOL1        -0.6703
       3    O2      17.588205   22.834715   25.596217 O.co2      1 MOL1        -0.6703
       4    C2      18.159918   20.808999   24.537962 C.3        1 MOL1        -0.1963
       5    H1      17.687929   21.252909   23.653366 H          1 MOL1         0.0750
       6    H2      17.731560   19.809094   24.668576 H          1 MOL1         0.0750
       7    C3      19.696044   20.726450   24.340332 C.3        1 MOL1        -0.1860
       8    H3      20.101546   21.747330   24.312067 H          1 MOL1         0.0752
       9    H4      20.153045   20.235767   25.210781 H          1 MOL1         0.0752
      10    C4      20.117161   19.991878   23.045043 C.3        1 MOL1        -0.1858
      11    H5      21.201544   20.111498   22.925481 H          1 MOL1         0.0752
      12    H6      19.651382   20.478130   22.177186 H          1 MOL1         0.0752
      13    C5      19.766277   18.483652   23.050850 C.3        1 MOL1        -0.1858
      14    H7      20.232382   17.997518   23.917704 H          1 MOL1         0.0752
      15    H8      18.683543   18.361060   23.178825 H          1 MOL1         0.0752
      16    C6      20.174631   17.748549   21.748841 C.3        1 MOL1        -0.1858
      17    H9      19.631277   18.193538   20.904194 H          1 MOL1         0.0752
      18    H10     19.832795   16.706574   21.812921 H          1 MOL1         0.0752
      19    C7      21.689652   17.755512   21.426159 C.3        1 MOL1        -0.1834
      20    H11     21.848349   17.210787   20.485344 H          1 MOL1         0.0752
      21    H12     22.034336   18.781579   21.242528 H          1 MOL1         0.0752
      22    C8      22.553745   17.104720   22.527864 C.3        1 MOL1        -0.2849
      23    H13     22.210865   16.084806   22.745090 H          1 MOL1         0.0764
      24    H14     23.603040   17.049078   22.210612 H          1 MOL1         0.0764
      25    H15     22.518038   17.686286   23.457695 H          1 MOL1         0.0764
@<TRIPOS>BOND
    1     1     2    1
    2     1     3    2
    3     1     4    1
    4     4     5    1
    5     4     6    1
    6     4     7    1
    7     7     8    1
    8     7     9    1
    9     7    10    1
   10    10    11    1
   11    10    12    1
   12    10    13    1
   13    13    14    1
   14    13    15    1
   15    13    16    1
   16    16    17    1
   17    16    18    1
   18    16    19    1
   19    19    20    1
   20    19    21    1
   21    19    22    1
   22    22    23    1
   23    22    24    1
   24    22    25    1
@<TRIPOS>SUBSTRUCTURE
       1 MOL1            1 RESIDUE      1      MOL     
@<SCITEGIC>MOL_PROPERTY
VConf Rank
SciTegic.value.IntegerValue
946

@<SCITEGIC>MOL_PROPERTY
Conf_Id
SciTegic.value.IntegerValue
75

@<SCITEGIC>MOL_PROPERTY
Delta U+W
SciTegic.value.DoubleValue
1.014

@<SCITEGIC>MOL_PROPERTY
U+W
SciTegic.value.DoubleValue
-50.615

@<SCITEGIC>MOL_PROPERTY
Grad RMS
SciTegic.value.DoubleValue
0.000000

@<SCITEGIC>MOL_PROPERTY
U
SciTegic.value.DoubleValue
8.474

@<SCITEGIC>MOL_PROPERTY
W
SciTegic.value.DoubleValue
-59.089

@<SCITEGIC>MOL_PROPERTY
W(PB)
SciTegic.value.DoubleValue
-61.530

@<SCITEGIC>MOL_PROPERTY
W(SA)
SciTegic.value.DoubleValue
2.441

@<SCITEGIC>MOL_PROPERTY
Valence
SciTegic.value.DoubleValue
9.080

@<SCITEGIC>MOL_PROPERTY
Coulomb
SciTegic.value.DoubleValue
-1.772

@<SCITEGIC>MOL_PROPERTY
VdW
SciTegic.value.DoubleValue
1.165

@<SCITEGIC>MOL_PROPERTY
VdW6
SciTegic.value.DoubleValue
-9.830

@<SCITEGIC>MOL_PROPERTY
VdW12
SciTegic.value.DoubleValue
10.996

@<SCITEGIC>MOL_PROPERTY
Bond
SciTegic.value.DoubleValue
0.240

@<SCITEGIC>MOL_PROPERTY
Angle
SciTegic.value.DoubleValue
3.225

@<SCITEGIC>MOL_PROPERTY
Pdih
SciTegic.value.DoubleValue
5.615

@<SCITEGIC>MOL_PROPERTY
Idih
SciTegic.value.DoubleValue
0.001

@<SCITEGIC>MOL_PROPERTY
Tether
SciTegic.value.DoubleValue
0.000

@<TRIPOS>MOLECULE
guest-8_confgen4.mol2 : confsearch ligand conformer 947
          25          24           1
SMALL
USER_CHARGES
 
@<TRIPOS>ATOM
       1    C1      22.828192   20.855141   26.043759 C.2        1 MOL1         0.6168
       2    O1      22.336170   20.792007   27.153074 O.co2      1 MOL1        -0.6703
       3    O2      24.025465   20.892715   25.839319 O.co2      1 MOL1        -0.6703
       4    C2      21.891947   20.866307   24.840680 C.3        1 MOL1        -0.1963
       5    H1      22.359897   21.465420   24.050334 H          1 MOL1         0.0750
       6    H2      20.967999   21.379693   25.132850 H          1 MOL1         0.0750
       7    C3      21.570684   19.445458   24.315267 C.3        1 MOL1        -0.1860
       8    H3      22.506618   18.940152   24.039245 H          1 MOL1         0.0752
       9    H4      21.115015   18.854828   25.122148 H          1 MOL1         0.0752
      10    C4      20.620351   19.483508   23.098892 C.3        1 MOL1        -0.1858
      11    H5      21.079632   20.075163   22.295264 H          1 MOL1         0.0752
      12    H6      19.693938   19.998952   23.378695 H          1 MOL1         0.0752
      13    C5      20.307374   18.062427   22.574194 C.3        1 MOL1        -0.1858
      14    H7      21.254192   17.592086   22.275478 H          1 MOL1         0.0752
      15    H8      19.896719   17.438878   23.380028 H          1 MOL1         0.0752
      16    C6      19.349321   18.054575   21.355794 C.3        1 MOL1        -0.1858
      17    H9      19.660253   17.244186   20.682399 H          1 MOL1         0.0752
      18    H10     19.460463   18.981953   20.777475 H          1 MOL1         0.0752
      19    C7      17.858799   17.821914   21.706676 C.3        1 MOL1        -0.1834
      20    H11     17.287054   17.753849   20.770916 H          1 MOL1         0.0752
      21    H12     17.745752   16.850201   22.206906 H          1 MOL1         0.0752
      22    C8      17.236408   18.925833   22.586656 C.3        1 MOL1        -0.2849
      23    H13     17.392640   19.917981   22.143716 H          1 MOL1         0.0764
      24    H14     16.155322   18.768358   22.692530 H          1 MOL1         0.0764
      25    H15     17.670972   18.920464   23.594004 H          1 MOL1         0.0764
@<TRIPOS>BOND
    1     1     2    1
    2     1     3    2
    3     1     4    1
    4     4     5    1
    5     4     6    1
    6     4     7    1
    7     7     8    1
    8     7     9    1
    9     7    10    1
   10    10    11    1
   11    10    12    1
   12    10    13    1
   13    13    14    1
   14    13    15    1
   15    13    16    1
   16    16    17    1
   17    16    18    1
   18    16    19    1
   19    19    20    1
   20    19    21    1
   21    19    22    1
   22    22    23    1
   23    22    24    1
   24    22    25    1
@<TRIPOS>SUBSTRUCTURE
       1 MOL1            1 RESIDUE      1      MOL     
@<SCITEGIC>MOL_PROPERTY
VConf Rank
SciTegic.value.IntegerValue
947

@<SCITEGIC>MOL_PROPERTY
Conf_Id
SciTegic.value.IntegerValue
125

@<SCITEGIC>MOL_PROPERTY
Delta U+W
SciTegic.value.DoubleValue
2.314

@<SCITEGIC>MOL_PROPERTY
U+W
SciTegic.value.DoubleValue
-49.315

@<SCITEGIC>MOL_PROPERTY
Grad RMS
SciTegic.value.DoubleValue
0.000000

@<SCITEGIC>MOL_PROPERTY
U
SciTegic.value.DoubleValue
9.740

@<SCITEGIC>MOL_PROPERTY
W
SciTegic.value.DoubleValue
-59.054

@<SCITEGIC>MOL_PROPERTY
W(PB)
SciTegic.value.DoubleValue
-61.488

@<SCITEGIC>MOL_PROPERTY
W(SA)
SciTegic.value.DoubleValue
2.433

@<SCITEGIC>MOL_PROPERTY
Valence
SciTegic.value.DoubleValue
10.506

@<SCITEGIC>MOL_PROPERTY
Coulomb
SciTegic.value.DoubleValue
-1.761

@<SCITEGIC>MOL_PROPERTY
VdW
SciTegic.value.DoubleValue
0.994

@<SCITEGIC>MOL_PROPERTY
VdW6
SciTegic.value.DoubleValue
-9.209

@<SCITEGIC>MOL_PROPERTY
VdW12
SciTegic.value.DoubleValue
10.203

@<SCITEGIC>MOL_PROPERTY
Bond
SciTegic.value.DoubleValue
0.193

@<SCITEGIC>MOL_PROPERTY
Angle
SciTegic.value.DoubleValue
2.979

@<SCITEGIC>MOL_PROPERTY
Pdih
SciTegic.value.DoubleValue
7.334

@<SCITEGIC>MOL_PROPERTY
Idih
SciTegic.value.DoubleValue
0.001

@<SCITEGIC>MOL_PROPERTY
Tether
SciTegic.value.DoubleValue
0.000

@<TRIPOS>MOLECULE
guest-8_confgen4.mol2 : confsearch ligand conformer 948
          25          24           1
SMALL
USER_CHARGES
 
@<TRIPOS>ATOM
       1    C1      20.667697   17.232698   26.871172 C.2        1 MOL1         0.6168
       2    O1      21.855326   16.979520   26.917323 O.co2      1 MOL1        -0.6703
       3    O2      19.861426   16.829963   27.686325 O.co2      1 MOL1        -0.6703
       4    C2      20.157040   18.082585   25.713182 C.3        1 MOL1        -0.1963
       5    H1      20.945707   18.796923   25.451563 H          1 MOL1         0.0750
       6    H2      19.297429   18.662316   26.070026 H          1 MOL1         0.0750
       7    C3      19.755313   17.234349   24.478535 C.3        1 MOL1        -0.1860
       8    H3      20.635363   16.694821   24.102037 H          1 MOL1         0.0752
       9    H4      19.034691   16.468214   24.796633 H          1 MOL1         0.0752
      10    C4      19.123272   18.065281   23.336507 C.3        1 MOL1        -0.1858
      11    H5      18.238226   18.595787   23.713638 H          1 MOL1         0.0752
      12    H6      18.764666   17.374585   22.561102 H          1 MOL1         0.0752
      13    C5      20.102820   19.076283   22.696543 C.3        1 MOL1        -0.1858
      14    H7      20.414058   19.812102   23.447761 H          1 MOL1         0.0752
      15    H8      21.008367   18.550330   22.364998 H          1 MOL1         0.0752
      16    C6      19.461507   19.807588   21.494413 C.3        1 MOL1        -0.1858
      17    H9      18.582024   20.372918   21.831755 H          1 MOL1         0.0752
      18    H10     19.095076   19.061820   20.775802 H          1 MOL1         0.0752
      19    C7      20.436715   20.757452   20.760556 C.3        1 MOL1        -0.1834
      20    H11     21.315270   20.194090   20.416941 H          1 MOL1         0.0752
      21    H12     19.941980   21.141354   19.857736 H          1 MOL1         0.0752
      22    C8      20.891991   21.953827   21.624265 C.3        1 MOL1        -0.2849
      23    H13     21.494416   21.624264   22.479929 H          1 MOL1         0.0764
      24    H14     21.507014   22.643104   21.031359 H          1 MOL1         0.0764
      25    H15     20.028560   22.514239   22.005751 H          1 MOL1         0.0764
@<TRIPOS>BOND
    1     1     2    1
    2     1     3    2
    3     1     4    1
    4     4     5    1
    5     4     6    1
    6     4     7    1
    7     7     8    1
    8     7     9    1
    9     7    10    1
   10    10    11    1
   11    10    12    1
   12    10    13    1
   13    13    14    1
   14    13    15    1
   15    13    16    1
   16    16    17    1
   17    16    18    1
   18    16    19    1
   19    19    20    1
   20    19    21    1
   21    19    22    1
   22    22    23    1
   23    22    24    1
   24    22    25    1
@<TRIPOS>SUBSTRUCTURE
       1 MOL1            1 RESIDUE      1      MOL     
@<SCITEGIC>MOL_PROPERTY
VConf Rank
SciTegic.value.IntegerValue
948

@<SCITEGIC>MOL_PROPERTY
Conf_Id
SciTegic.value.IntegerValue
4

@<SCITEGIC>MOL_PROPERTY
Delta U+W
SciTegic.value.DoubleValue
0.189

@<SCITEGIC>MOL_PROPERTY
U+W
SciTegic.value.DoubleValue
-51.441

@<SCITEGIC>MOL_PROPERTY
Grad RMS
SciTegic.value.DoubleValue
0.000000

@<SCITEGIC>MOL_PROPERTY
U
SciTegic.value.DoubleValue
7.701

@<SCITEGIC>MOL_PROPERTY
W
SciTegic.value.DoubleValue
-59.141

@<SCITEGIC>MOL_PROPERTY
W(PB)
SciTegic.value.DoubleValue
-61.609

@<SCITEGIC>MOL_PROPERTY
W(SA)
SciTegic.value.DoubleValue
2.467

@<SCITEGIC>MOL_PROPERTY
Valence
SciTegic.value.DoubleValue
8.550

@<SCITEGIC>MOL_PROPERTY
Coulomb
SciTegic.value.DoubleValue
-1.988

@<SCITEGIC>MOL_PROPERTY
VdW
SciTegic.value.DoubleValue
1.139

@<SCITEGIC>MOL_PROPERTY
VdW6
SciTegic.value.DoubleValue
-8.988

@<SCITEGIC>MOL_PROPERTY
VdW12
SciTegic.value.DoubleValue
10.127

@<SCITEGIC>MOL_PROPERTY
Bond
SciTegic.value.DoubleValue
0.191

@<SCITEGIC>MOL_PROPERTY
Angle
SciTegic.value.DoubleValue
2.738

@<SCITEGIC>MOL_PROPERTY
Pdih
SciTegic.value.DoubleValue
5.621

@<SCITEGIC>MOL_PROPERTY
Idih
SciTegic.value.DoubleValue
0.001

@<SCITEGIC>MOL_PROPERTY
Tether
SciTegic.value.DoubleValue
0.000

@<TRIPOS>MOLECULE
guest-8_confgen4.mol2 : confsearch ligand conformer 949
          25          24           1
SMALL
USER_CHARGES
 
@<TRIPOS>ATOM
       1    C1      22.381235   19.709901   19.986044 C.2        1 MOL1         0.6168
       2    O1      21.608801   19.931989   19.074607 O.co2      1 MOL1        -0.6703
       3    O2      23.589090   19.790301   19.879438 O.co2      1 MOL1        -0.6703
       4    C2      21.802284   19.332380   21.344835 C.3        1 MOL1        -0.1963
       5    H1      22.512509   18.661433   21.842599 H          1 MOL1         0.0750
       6    H2      20.883804   18.761480   21.168235 H          1 MOL1         0.0750
       7    C3      21.515934   20.567131   22.238499 C.3        1 MOL1        -0.1860
       8    H3      22.433772   21.166246   22.316486 H          1 MOL1         0.0752
       9    H4      20.768225   21.207619   21.750609 H          1 MOL1         0.0752
      10    C4      21.040370   20.201334   23.664748 C.3        1 MOL1        -0.1858
      11    H5      20.976840   21.124039   24.257614 H          1 MOL1         0.0752
      12    H6      21.794466   19.569228   24.153373 H          1 MOL1         0.0752
      13    C5      19.667788   19.489662   23.691926 C.3        1 MOL1        -0.1858
      14    H7      18.926797   20.101058   23.159301 H          1 MOL1         0.0752
      15    H8      19.739241   18.533391   23.159886 H          1 MOL1         0.0752
      16    C6      19.185145   19.238635   25.139422 C.3        1 MOL1        -0.1858
      17    H9      19.177000   20.192416   25.684472 H          1 MOL1         0.0752
      18    H10     19.901221   18.588619   25.660575 H          1 MOL1         0.0752
      19    C7      17.770960   18.617500   25.217454 C.3        1 MOL1        -0.1834
      20    H11     17.458863   18.583372   26.270382 H          1 MOL1         0.0752
      21    H12     17.051083   19.267848   24.701574 H          1 MOL1         0.0752
      22    C8      17.695771   17.191108   24.630648 C.3        1 MOL1        -0.2849
      23    H13     18.429554   16.529905   25.109694 H          1 MOL1         0.0764
      24    H14     16.698384   16.761982   24.791786 H          1 MOL1         0.0764
      25    H15     17.885925   17.191608   23.550126 H          1 MOL1         0.0764
@<TRIPOS>BOND
    1     1     2    1
    2     1     3    2
    3     1     4    1
    4     4     5    1
    5     4     6    1
    6     4     7    1
    7     7     8    1
    8     7     9    1
    9     7    10    1
   10    10    11    1
   11    10    12    1
   12    10    13    1
   13    13    14    1
   14    13    15    1
   15    13    16    1
   16    16    17    1
   17    16    18    1
   18    16    19    1
   19    19    20    1
   20    19    21    1
   21    19    22    1
   22    22    23    1
   23    22    24    1
   24    22    25    1
@<TRIPOS>SUBSTRUCTURE
       1 MOL1            1 RESIDUE      1      MOL     
@<SCITEGIC>MOL_PROPERTY
VConf Rank
SciTegic.value.IntegerValue
949

@<SCITEGIC>MOL_PROPERTY
Conf_Id
SciTegic.value.IntegerValue
17

@<SCITEGIC>MOL_PROPERTY
Delta U+W
SciTegic.value.DoubleValue
0.219

@<SCITEGIC>MOL_PROPERTY
U+W
SciTegic.value.DoubleValue
-51.411

@<SCITEGIC>MOL_PROPERTY
Grad RMS
SciTegic.value.DoubleValue
0.000000

@<SCITEGIC>MOL_PROPERTY
U
SciTegic.value.DoubleValue
7.701

@<SCITEGIC>MOL_PROPERTY
W
SciTegic.value.DoubleValue
-59.111

@<SCITEGIC>MOL_PROPERTY
W(PB)
SciTegic.value.DoubleValue
-61.599

@<SCITEGIC>MOL_PROPERTY
W(SA)
SciTegic.value.DoubleValue
2.488

@<SCITEGIC>MOL_PROPERTY
Valence
SciTegic.value.DoubleValue
8.550

@<SCITEGIC>MOL_PROPERTY
Coulomb
SciTegic.value.DoubleValue
-1.988

@<SCITEGIC>MOL_PROPERTY
VdW
SciTegic.value.DoubleValue
1.139

@<SCITEGIC>MOL_PROPERTY
VdW6
SciTegic.value.DoubleValue
-8.988

@<SCITEGIC>MOL_PROPERTY
VdW12
SciTegic.value.DoubleValue
10.127

@<SCITEGIC>MOL_PROPERTY
Bond
SciTegic.value.DoubleValue
0.191

@<SCITEGIC>MOL_PROPERTY
Angle
SciTegic.value.DoubleValue
2.738

@<SCITEGIC>MOL_PROPERTY
Pdih
SciTegic.value.DoubleValue
5.621

@<SCITEGIC>MOL_PROPERTY
Idih
SciTegic.value.DoubleValue
0.001

@<SCITEGIC>MOL_PROPERTY
Tether
SciTegic.value.DoubleValue
0.000

@<TRIPOS>MOLECULE
guest-8_confgen4.mol2 : confsearch ligand conformer 950
          25          24           1
SMALL
USER_CHARGES
 
@<TRIPOS>ATOM
       1    C1      22.870265   21.429842   24.665112 C.2        1 MOL1         0.6168
       2    O1      23.195333   22.249200   23.828426 O.co2      1 MOL1        -0.6703
       3    O2      23.594319   20.529359   25.041876 O.co2      1 MOL1        -0.6703
       4    C2      21.484156   21.547873   25.292570 C.3        1 MOL1        -0.1963
       5    H1      21.113571   22.567712   25.133295 H          1 MOL1         0.0750
       6    H2      21.601528   21.418387   26.374901 H          1 MOL1         0.0750
       7    C3      20.460259   20.514623   24.755050 C.3        1 MOL1        -0.1860
       8    H3      20.861523   19.504058   24.908063 H          1 MOL1         0.0752
       9    H4      19.538463   20.583984   25.348132 H          1 MOL1         0.0752
      10    C4      20.124406   20.736463   23.260814 C.3        1 MOL1        -0.1858
      11    H5      21.027948   20.599172   22.650828 H          1 MOL1         0.0752
      12    H6      19.809807   21.779099   23.116646 H          1 MOL1         0.0752
      13    C5      19.003139   19.808011   22.736925 C.3        1 MOL1        -0.1858
      14    H7      18.095834   19.949970   23.339831 H          1 MOL1         0.0752
      15    H8      18.747356   20.115139   21.713643 H          1 MOL1         0.0752
      16    C6      19.395490   18.312341   22.729060 C.3        1 MOL1        -0.1858
      17    H9      19.581649   17.968290   23.754683 H          1 MOL1         0.0752
      18    H10     20.333050   18.181794   22.171536 H          1 MOL1         0.0752
      19    C7      18.293472   17.436976   22.095783 C.3        1 MOL1        -0.1834
      20    H11     17.353648   17.566715   22.650180 H          1 MOL1         0.0752
      21    H12     18.104292   17.766930   21.064879 H          1 MOL1         0.0752
      22    C8      18.684588   15.945421   22.092046 C.3        1 MOL1        -0.2849
      23    H13     18.848588   15.579773   23.114195 H          1 MOL1         0.0764
      24    H14     17.890521   15.338303   21.638261 H          1 MOL1         0.0764
      25    H15     19.605997   15.782497   21.517727 H          1 MOL1         0.0764
@<TRIPOS>BOND
    1     1     2    1
    2     1     3    2
    3     1     4    1
    4     4     5    1
    5     4     6    1
    6     4     7    1
    7     7     8    1
    8     7     9    1
    9     7    10    1
   10    10    11    1
   11    10    12    1
   12    10    13    1
   13    13    14    1
   14    13    15    1
   15    13    16    1
   16    16    17    1
   17    16    18    1
   18    16    19    1
   19    19    20    1
   20    19    21    1
   21    19    22    1
   22    22    23    1
   23    22    24    1
   24    22    25    1
@<TRIPOS>SUBSTRUCTURE
       1 MOL1            1 RESIDUE      1      MOL     
@<SCITEGIC>MOL_PROPERTY
VConf Rank
SciTegic.value.IntegerValue
950

@<SCITEGIC>MOL_PROPERTY
Conf_Id
SciTegic.value.IntegerValue
142

@<SCITEGIC>MOL_PROPERTY
Delta U+W
SciTegic.value.DoubleValue
0.593

@<SCITEGIC>MOL_PROPERTY
U+W
SciTegic.value.DoubleValue
-51.037

@<SCITEGIC>MOL_PROPERTY
Grad RMS
SciTegic.value.DoubleValue
0.000000

@<SCITEGIC>MOL_PROPERTY
U
SciTegic.value.DoubleValue
8.903

@<SCITEGIC>MOL_PROPERTY
W
SciTegic.value.DoubleValue
-59.940

@<SCITEGIC>MOL_PROPERTY
W(PB)
SciTegic.value.DoubleValue
-62.418

@<SCITEGIC>MOL_PROPERTY
W(SA)
SciTegic.value.DoubleValue
2.478

@<SCITEGIC>MOL_PROPERTY
Valence
SciTegic.value.DoubleValue
8.305

@<SCITEGIC>MOL_PROPERTY
Coulomb
SciTegic.value.DoubleValue
-0.223

@<SCITEGIC>MOL_PROPERTY
VdW
SciTegic.value.DoubleValue
0.821

@<SCITEGIC>MOL_PROPERTY
VdW6
SciTegic.value.DoubleValue
-9.236

@<SCITEGIC>MOL_PROPERTY
VdW12
SciTegic.value.DoubleValue
10.057

@<SCITEGIC>MOL_PROPERTY
Bond
SciTegic.value.DoubleValue
0.173

@<SCITEGIC>MOL_PROPERTY
Angle
SciTegic.value.DoubleValue
2.663

@<SCITEGIC>MOL_PROPERTY
Pdih
SciTegic.value.DoubleValue
5.469

@<SCITEGIC>MOL_PROPERTY
Idih
SciTegic.value.DoubleValue
0.001

@<SCITEGIC>MOL_PROPERTY
Tether
SciTegic.value.DoubleValue
0.000

@<TRIPOS>MOLECULE
guest-8_confgen4.mol2 : confsearch ligand conformer 951
          25          24           1
SMALL
USER_CHARGES
 
@<TRIPOS>ATOM
       1    C1      20.571016   20.779136   20.298551 C.2        1 MOL1         0.6168
       2    O1      21.434038   21.292629   19.613659 O.co2      1 MOL1        -0.6703
       3    O2      19.709856   20.044837   19.855534 O.co2      1 MOL1        -0.6703
       4    C2      20.553938   21.097672   21.790925 C.3        1 MOL1        -0.1963
       5    H1      19.583552   20.798102   22.203125 H          1 MOL1         0.0750
       6    H2      20.611415   22.187567   21.892632 H          1 MOL1         0.0750
       7    C3      21.713204   20.444456   22.591887 C.3        1 MOL1        -0.1860
       8    H3      22.667958   20.818939   22.197700 H          1 MOL1         0.0752
       9    H4      21.666404   20.781265   23.635543 H          1 MOL1         0.0752
      10    C4      21.731352   18.894612   22.543945 C.3        1 MOL1        -0.1858
      11    H5      22.586411   18.533664   23.131473 H          1 MOL1         0.0752
      12    H6      21.917736   18.571084   21.510661 H          1 MOL1         0.0752
      13    C5      20.443341   18.201402   23.054644 C.3        1 MOL1        -0.1858
      14    H7      19.595991   18.464362   22.407338 H          1 MOL1         0.0752
      15    H8      20.573867   17.115243   22.955879 H          1 MOL1         0.0752
      16    C6      20.103367   18.535033   24.525621 C.3        1 MOL1        -0.1858
      17    H9      19.898402   19.608727   24.626986 H          1 MOL1         0.0752
      18    H10     20.969930   18.311297   25.162556 H          1 MOL1         0.0752
      19    C7      18.878309   17.738942   25.022519 C.3        1 MOL1        -0.1834
      20    H11     18.010874   17.959334   24.384977 H          1 MOL1         0.0752
      21    H12     19.074924   16.661578   24.933061 H          1 MOL1         0.0752
      22    C8      18.536845   18.077277   26.487655 C.3        1 MOL1        -0.2849
      23    H13     18.304066   19.144277   26.600315 H          1 MOL1         0.0764
      24    H14     17.664187   17.502611   26.824197 H          1 MOL1         0.0764
      25    H15     19.377360   17.837715   27.152108 H          1 MOL1         0.0764
@<TRIPOS>BOND
    1     1     2    1
    2     1     3    2
    3     1     4    1
    4     4     5    1
    5     4     6    1
    6     4     7    1
    7     7     8    1
    8     7     9    1
    9     7    10    1
   10    10    11    1
   11    10    12    1
   12    10    13    1
   13    13    14    1
   14    13    15    1
   15    13    16    1
   16    16    17    1
   17    16    18    1
   18    16    19    1
   19    19    20    1
   20    19    21    1
   21    19    22    1
   22    22    23    1
   23    22    24    1
   24    22    25    1
@<TRIPOS>SUBSTRUCTURE
       1 MOL1            1 RESIDUE      1      MOL     
@<SCITEGIC>MOL_PROPERTY
VConf Rank
SciTegic.value.IntegerValue
951

@<SCITEGIC>MOL_PROPERTY
Conf_Id
SciTegic.value.IntegerValue
135

@<SCITEGIC>MOL_PROPERTY
Delta U+W
SciTegic.value.DoubleValue
1.314

@<SCITEGIC>MOL_PROPERTY
U+W
SciTegic.value.DoubleValue
-50.316

@<SCITEGIC>MOL_PROPERTY
Grad RMS
SciTegic.value.DoubleValue
0.000000

@<SCITEGIC>MOL_PROPERTY
U
SciTegic.value.DoubleValue
9.773

@<SCITEGIC>MOL_PROPERTY
W
SciTegic.value.DoubleValue
-60.088

@<SCITEGIC>MOL_PROPERTY
W(PB)
SciTegic.value.DoubleValue
-62.535

@<SCITEGIC>MOL_PROPERTY
W(SA)
SciTegic.value.DoubleValue
2.447

@<SCITEGIC>MOL_PROPERTY
Valence
SciTegic.value.DoubleValue
8.741

@<SCITEGIC>MOL_PROPERTY
Coulomb
SciTegic.value.DoubleValue
0.479

@<SCITEGIC>MOL_PROPERTY
VdW
SciTegic.value.DoubleValue
0.552

@<SCITEGIC>MOL_PROPERTY
VdW6
SciTegic.value.DoubleValue
-10.627

@<SCITEGIC>MOL_PROPERTY
VdW12
SciTegic.value.DoubleValue
11.179

@<SCITEGIC>MOL_PROPERTY
Bond
SciTegic.value.DoubleValue
0.227

@<SCITEGIC>MOL_PROPERTY
Angle
SciTegic.value.DoubleValue
3.155

@<SCITEGIC>MOL_PROPERTY
Pdih
SciTegic.value.DoubleValue
5.358

@<SCITEGIC>MOL_PROPERTY
Idih
SciTegic.value.DoubleValue
0.001

@<SCITEGIC>MOL_PROPERTY
Tether
SciTegic.value.DoubleValue
0.000

@<TRIPOS>MOLECULE
guest-8_confgen4.mol2 : confsearch ligand conformer 952
          25          24           1
SMALL
USER_CHARGES
 
@<TRIPOS>ATOM
       1    C1      22.243986   19.969790   19.718369 C.2        1 MOL1         0.6168
       2    O1      23.169529   20.742366   19.870812 O.co2      1 MOL1        -0.6703
       3    O2      22.151752   19.207514   18.776457 O.co2      1 MOL1        -0.6703
       4    C2      21.149421   19.939022   20.779105 C.3        1 MOL1        -0.1963
       5    H1      20.205904   19.676262   20.286074 H          1 MOL1         0.0750
       6    H2      21.039229   20.955673   21.172106 H          1 MOL1         0.0750
       7    C3      21.452318   18.936819   21.923514 C.3        1 MOL1        -0.1860
       8    H3      21.652462   17.950949   21.481418 H          1 MOL1         0.0752
       9    H4      22.373734   19.236565   22.441612 H          1 MOL1         0.0752
      10    C4      20.299233   18.793774   22.945701 C.3        1 MOL1        -0.1858
      11    H5      20.544428   17.959357   23.614743 H          1 MOL1         0.0752
      12    H6      19.373389   18.518678   22.422525 H          1 MOL1         0.0752
      13    C5      20.065361   20.066829   23.793697 C.3        1 MOL1        -0.1858
      14    H7      20.977704   20.300675   24.358977 H          1 MOL1         0.0752
      15    H8      19.885934   20.922008   23.130410 H          1 MOL1         0.0752
      16    C6      18.866433   19.967641   24.770529 C.3        1 MOL1        -0.1858
      17    H9      17.933493   19.827125   24.207693 H          1 MOL1         0.0752
      18    H10     18.767980   20.940235   25.271769 H          1 MOL1         0.0752
      19    C7      19.005058   18.875915   25.860996 C.3        1 MOL1        -0.1834
      20    H11     20.065444   18.674430   26.066474 H          1 MOL1         0.0752
      21    H12     18.580330   19.259712   26.798870 H          1 MOL1         0.0752
      22    C8      18.269267   17.564769   25.504941 C.3        1 MOL1        -0.2849
      23    H13     18.651509   17.120707   24.578757 H          1 MOL1         0.0764
      24    H14     18.391781   16.825576   26.307057 H          1 MOL1         0.0764
      25    H15     17.194034   17.743984   25.375181 H          1 MOL1         0.0764
@<TRIPOS>BOND
    1     1     2    1
    2     1     3    2
    3     1     4    1
    4     4     5    1
    5     4     6    1
    6     4     7    1
    7     7     8    1
    8     7     9    1
    9     7    10    1
   10    10    11    1
   11    10    12    1
   12    10    13    1
   13    13    14    1
   14    13    15    1
   15    13    16    1
   16    16    17    1
   17    16    18    1
   18    16    19    1
   19    19    20    1
   20    19    21    1
   21    19    22    1
   22    22    23    1
   23    22    24    1
   24    22    25    1
@<TRIPOS>SUBSTRUCTURE
       1 MOL1            1 RESIDUE      1      MOL     
@<SCITEGIC>MOL_PROPERTY
VConf Rank
SciTegic.value.IntegerValue
952

@<SCITEGIC>MOL_PROPERTY
Conf_Id
SciTegic.value.IntegerValue
19

@<SCITEGIC>MOL_PROPERTY
Delta U+W
SciTegic.value.DoubleValue
3.222

@<SCITEGIC>MOL_PROPERTY
U+W
SciTegic.value.DoubleValue
-48.407

@<SCITEGIC>MOL_PROPERTY
Grad RMS
SciTegic.value.DoubleValue
0.000000

@<SCITEGIC>MOL_PROPERTY
U
SciTegic.value.DoubleValue
10.617

@<SCITEGIC>MOL_PROPERTY
W
SciTegic.value.DoubleValue
-59.025

@<SCITEGIC>MOL_PROPERTY
W(PB)
SciTegic.value.DoubleValue
-61.462

@<SCITEGIC>MOL_PROPERTY
W(SA)
SciTegic.value.DoubleValue
2.437

@<SCITEGIC>MOL_PROPERTY
Valence
SciTegic.value.DoubleValue
11.188

@<SCITEGIC>MOL_PROPERTY
Coulomb
SciTegic.value.DoubleValue
-1.778

@<SCITEGIC>MOL_PROPERTY
VdW
SciTegic.value.DoubleValue
1.208

@<SCITEGIC>MOL_PROPERTY
VdW6
SciTegic.value.DoubleValue
-9.786

@<SCITEGIC>MOL_PROPERTY
VdW12
SciTegic.value.DoubleValue
10.993

@<SCITEGIC>MOL_PROPERTY
Bond
SciTegic.value.DoubleValue
0.241

@<SCITEGIC>MOL_PROPERTY
Angle
SciTegic.value.DoubleValue
3.294

@<SCITEGIC>MOL_PROPERTY
Pdih
SciTegic.value.DoubleValue
7.653

@<SCITEGIC>MOL_PROPERTY
Idih
SciTegic.value.DoubleValue
0.001

@<SCITEGIC>MOL_PROPERTY
Tether
SciTegic.value.DoubleValue
0.000

@<TRIPOS>MOLECULE
guest-8_confgen4.mol2 : confsearch ligand conformer 953
          25          24           1
SMALL
USER_CHARGES
 
@<TRIPOS>ATOM
       1    C1      17.125074   21.558251   21.424339 C.2        1 MOL1         0.6168
       2    O1      17.526500   22.182888   20.462348 O.co2      1 MOL1        -0.6703
       3    O2      16.113960   21.841082   22.036242 O.co2      1 MOL1        -0.6703
       4    C2      17.947774   20.367948   21.904469 C.3        1 MOL1        -0.1963
       5    H1      18.408698   19.906253   21.024378 H          1 MOL1         0.0750
       6    H2      17.259630   19.631369   22.336042 H          1 MOL1         0.0750
       7    C3      19.026707   20.766225   22.945193 C.3        1 MOL1        -0.1860
       8    H3      19.738698   21.467204   22.488049 H          1 MOL1         0.0752
       9    H4      18.538106   21.311590   23.764518 H          1 MOL1         0.0752
      10    C4      19.789572   19.559403   23.542316 C.3        1 MOL1        -0.1858
      11    H5      19.074140   18.847871   23.976435 H          1 MOL1         0.0752
      12    H6      20.409388   19.928892   24.368932 H          1 MOL1         0.0752
      13    C5      20.695862   18.834887   22.518510 C.3        1 MOL1        -0.1858
      14    H7      20.096297   18.520471   21.655293 H          1 MOL1         0.0752
      15    H8      21.445811   19.539090   22.133451 H          1 MOL1         0.0752
      16    C6      21.409886   17.579171   23.079600 C.3        1 MOL1        -0.1858
      17    H9      21.974574   17.124374   22.254276 H          1 MOL1         0.0752
      18    H10     20.667378   16.827942   23.381666 H          1 MOL1         0.0752
      19    C7      22.395818   17.856969   24.241911 C.3        1 MOL1        -0.1834
      20    H11     23.267306   17.197361   24.129093 H          1 MOL1         0.0752
      21    H12     22.780667   18.884150   24.178464 H          1 MOL1         0.0752
      22    C8      21.779865   17.600199   25.635444 C.3        1 MOL1        -0.2849
      23    H13     21.464025   16.553602   25.735253 H          1 MOL1         0.0764
      24    H14     22.515162   17.805410   26.424135 H          1 MOL1         0.0764
      25    H15     20.905750   18.235372   25.818733 H          1 MOL1         0.0764
@<TRIPOS>BOND
    1     1     2    1
    2     1     3    2
    3     1     4    1
    4     4     5    1
    5     4     6    1
    6     4     7    1
    7     7     8    1
    8     7     9    1
    9     7    10    1
   10    10    11    1
   11    10    12    1
   12    10    13    1
   13    13    14    1
   14    13    15    1
   15    13    16    1
   16    16    17    1
   17    16    18    1
   18    16    19    1
   19    19    20    1
   20    19    21    1
   21    19    22    1
   22    22    23    1
   23    22    24    1
   24    22    25    1
@<TRIPOS>SUBSTRUCTURE
       1 MOL1            1 RESIDUE      1      MOL     
@<SCITEGIC>MOL_PROPERTY
VConf Rank
SciTegic.value.IntegerValue
953

@<SCITEGIC>MOL_PROPERTY
Conf_Id
SciTegic.value.IntegerValue
20

@<SCITEGIC>MOL_PROPERTY
Delta U+W
SciTegic.value.DoubleValue
3.224

@<SCITEGIC>MOL_PROPERTY
U+W
SciTegic.value.DoubleValue
-48.406

@<SCITEGIC>MOL_PROPERTY
Grad RMS
SciTegic.value.DoubleValue
0.000000

@<SCITEGIC>MOL_PROPERTY
U
SciTegic.value.DoubleValue
10.617

@<SCITEGIC>MOL_PROPERTY
W
SciTegic.value.DoubleValue
-59.023

@<SCITEGIC>MOL_PROPERTY
W(PB)
SciTegic.value.DoubleValue
-61.467

@<SCITEGIC>MOL_PROPERTY
W(SA)
SciTegic.value.DoubleValue
2.444

@<SCITEGIC>MOL_PROPERTY
Valence
SciTegic.value.DoubleValue
11.188

@<SCITEGIC>MOL_PROPERTY
Coulomb
SciTegic.value.DoubleValue
-1.778

@<SCITEGIC>MOL_PROPERTY
VdW
SciTegic.value.DoubleValue
1.208

@<SCITEGIC>MOL_PROPERTY
VdW6
SciTegic.value.DoubleValue
-9.786

@<SCITEGIC>MOL_PROPERTY
VdW12
SciTegic.value.DoubleValue
10.993

@<SCITEGIC>MOL_PROPERTY
Bond
SciTegic.value.DoubleValue
0.241

@<SCITEGIC>MOL_PROPERTY
Angle
SciTegic.value.DoubleValue
3.294

@<SCITEGIC>MOL_PROPERTY
Pdih
SciTegic.value.DoubleValue
7.653

@<SCITEGIC>MOL_PROPERTY
Idih
SciTegic.value.DoubleValue
0.001

@<SCITEGIC>MOL_PROPERTY
Tether
SciTegic.value.DoubleValue
0.000

@<TRIPOS>MOLECULE
guest-8_confgen4.mol2 : confsearch ligand conformer 954
          25          24           1
SMALL
USER_CHARGES
 
@<TRIPOS>ATOM
       1    C1      21.303020   16.406756   23.799948 C.2        1 MOL1         0.6168
       2    O1      22.334581   16.589259   24.416566 O.co2      1 MOL1        -0.6703
       3    O2      21.259235   16.262015   22.593983 O.co2      1 MOL1        -0.6703
       4    C2      19.999406   16.286707   24.587076 C.3        1 MOL1        -0.1963
       5    H1      20.105327   15.401816   25.225211 H          1 MOL1         0.0750
       6    H2      19.180094   16.074387   23.889626 H          1 MOL1         0.0750
       7    C3      19.646027   17.512187   25.476137 C.3        1 MOL1        -0.1860
       8    H3      18.931904   17.180740   26.242035 H          1 MOL1         0.0752
       9    H4      20.538642   17.849205   26.021345 H          1 MOL1         0.0752
      10    C4      19.006213   18.701793   24.718140 C.3        1 MOL1        -0.1858
      11    H5      18.664004   19.435848   25.460459 H          1 MOL1         0.0752
      12    H6      18.108298   18.360599   24.185066 H          1 MOL1         0.0752
      13    C5      19.961842   19.405505   23.728093 C.3        1 MOL1        -0.1858
      14    H7      20.903289   19.653540   24.237212 H          1 MOL1         0.0752
      15    H8      20.211390   18.725543   22.903847 H          1 MOL1         0.0752
      16    C6      19.334874   20.690364   23.144470 C.3        1 MOL1        -0.1858
      17    H9      19.088268   21.383085   23.960736 H          1 MOL1         0.0752
      18    H10     18.391254   20.441082   22.640018 H          1 MOL1         0.0752
      19    C7      20.283787   21.387650   22.147107 C.3        1 MOL1        -0.1834
      20    H11     21.228478   21.639063   22.648911 H          1 MOL1         0.0752
      21    H12     20.531431   20.698142   21.328048 H          1 MOL1         0.0752
      22    C8      19.654933   22.669865   21.565613 C.3        1 MOL1        -0.2849
      23    H13     19.425996   23.390806   22.361353 H          1 MOL1         0.0764
      24    H14     20.342886   23.152085   20.859038 H          1 MOL1         0.0764
      25    H15     18.723632   22.442682   21.030411 H          1 MOL1         0.0764
@<TRIPOS>BOND
    1     1     2    1
    2     1     3    2
    3     1     4    1
    4     4     5    1
    5     4     6    1
    6     4     7    1
    7     7     8    1
    8     7     9    1
    9     7    10    1
   10    10    11    1
   11    10    12    1
   12    10    13    1
   13    13    14    1
   14    13    15    1
   15    13    16    1
   16    16    17    1
   17    16    18    1
   18    16    19    1
   19    19    20    1
   20    19    21    1
   21    19    22    1
   22    22    23    1
   23    22    24    1
   24    22    25    1
@<TRIPOS>SUBSTRUCTURE
       1 MOL1            1 RESIDUE      1      MOL     
@<SCITEGIC>MOL_PROPERTY
VConf Rank
SciTegic.value.IntegerValue
954

@<SCITEGIC>MOL_PROPERTY
Conf_Id
SciTegic.value.IntegerValue
24

@<SCITEGIC>MOL_PROPERTY
Delta U+W
SciTegic.value.DoubleValue
1.784

@<SCITEGIC>MOL_PROPERTY
U+W
SciTegic.value.DoubleValue
-49.846

@<SCITEGIC>MOL_PROPERTY
Grad RMS
SciTegic.value.DoubleValue
0.000000

@<SCITEGIC>MOL_PROPERTY
U
SciTegic.value.DoubleValue
10.904

@<SCITEGIC>MOL_PROPERTY
W
SciTegic.value.DoubleValue
-60.749

@<SCITEGIC>MOL_PROPERTY
W(PB)
SciTegic.value.DoubleValue
-63.220

@<SCITEGIC>MOL_PROPERTY
W(SA)
SciTegic.value.DoubleValue
2.471

@<SCITEGIC>MOL_PROPERTY
Valence
SciTegic.value.DoubleValue
9.445

@<SCITEGIC>MOL_PROPERTY
Coulomb
SciTegic.value.DoubleValue
0.780

@<SCITEGIC>MOL_PROPERTY
VdW
SciTegic.value.DoubleValue
0.679

@<SCITEGIC>MOL_PROPERTY
VdW6
SciTegic.value.DoubleValue
-10.008

@<SCITEGIC>MOL_PROPERTY
VdW12
SciTegic.value.DoubleValue
10.687

@<SCITEGIC>MOL_PROPERTY
Bond
SciTegic.value.DoubleValue
0.201

@<SCITEGIC>MOL_PROPERTY
Angle
SciTegic.value.DoubleValue
3.198

@<SCITEGIC>MOL_PROPERTY
Pdih
SciTegic.value.DoubleValue
6.039

@<SCITEGIC>MOL_PROPERTY
Idih
SciTegic.value.DoubleValue
0.006

@<SCITEGIC>MOL_PROPERTY
Tether
SciTegic.value.DoubleValue
0.000

@<TRIPOS>MOLECULE
guest-8_confgen4.mol2 : confsearch ligand conformer 955
          25          24           1
SMALL
USER_CHARGES
 
@<TRIPOS>ATOM
       1    C1      19.533793   22.137564   23.667075 C.2        1 MOL1         0.6168
       2    O1      20.459289   22.646349   24.268938 O.co2      1 MOL1        -0.6703
       3    O2      19.419481   22.174000   22.457603 O.co2      1 MOL1        -0.6703
       4    C2      18.420177   21.474642   24.475643 C.3        1 MOL1        -0.1963
       5    H1      17.645511   21.115203   23.787541 H          1 MOL1         0.0750
       6    H2      17.961866   22.268281   25.076937 H          1 MOL1         0.0750
       7    C3      18.878276   20.326305   25.418282 C.3        1 MOL1        -0.1860
       8    H3      19.788149   20.624758   25.957402 H          1 MOL1         0.0752
       9    H4      18.104488   20.188401   26.185527 H          1 MOL1         0.0752
      10    C4      19.098495   18.961394   24.719993 C.3        1 MOL1        -0.1858
      11    H5      18.181680   18.663402   24.193224 H          1 MOL1         0.0752
      12    H6      19.268141   18.203354   25.496897 H          1 MOL1         0.0752
      13    C5      20.291557   18.941209   23.737741 C.3        1 MOL1        -0.1858
      14    H7      20.081699   19.596441   22.882967 H          1 MOL1         0.0752
      15    H8      21.186447   19.338587   24.236048 H          1 MOL1         0.0752
      16    C6      20.578795   17.516067   23.217129 C.3        1 MOL1        -0.1858
      17    H9      19.681382   17.118539   22.723519 H          1 MOL1         0.0752
      18    H10     20.798828   16.852174   24.064358 H          1 MOL1         0.0752
      19    C7      21.762626   17.496587   22.227413 C.3        1 MOL1        -0.1834
      20    H11     21.545339   18.158365   21.377448 H          1 MOL1         0.0752
      21    H12     22.662178   17.893060   22.718404 H          1 MOL1         0.0752
      22    C8      22.046846   16.072470   21.708976 C.3        1 MOL1        -0.2849
      23    H13     21.172868   15.663459   21.185289 H          1 MOL1         0.0764
      24    H14     22.890814   16.077560   21.007010 H          1 MOL1         0.0764
      25    H15     22.298282   15.396132   22.536454 H          1 MOL1         0.0764
@<TRIPOS>BOND
    1     1     2    1
    2     1     3    2
    3     1     4    1
    4     4     5    1
    5     4     6    1
    6     4     7    1
    7     7     8    1
    8     7     9    1
    9     7    10    1
   10    10    11    1
   11    10    12    1
   12    10    13    1
   13    13    14    1
   14    13    15    1
   15    13    16    1
   16    16    17    1
   17    16    18    1
   18    16    19    1
   19    19    20    1
   20    19    21    1
   21    19    22    1
   22    22    23    1
   23    22    24    1
   24    22    25    1
@<TRIPOS>SUBSTRUCTURE
       1 MOL1            1 RESIDUE      1      MOL     
@<SCITEGIC>MOL_PROPERTY
VConf Rank
SciTegic.value.IntegerValue
955

@<SCITEGIC>MOL_PROPERTY
Conf_Id
SciTegic.value.IntegerValue
9

@<SCITEGIC>MOL_PROPERTY
Delta U+W
SciTegic.value.DoubleValue
1.764

@<SCITEGIC>MOL_PROPERTY
U+W
SciTegic.value.DoubleValue
-49.865

@<SCITEGIC>MOL_PROPERTY
Grad RMS
SciTegic.value.DoubleValue
0.000000

@<SCITEGIC>MOL_PROPERTY
U
SciTegic.value.DoubleValue
10.902

@<SCITEGIC>MOL_PROPERTY
W
SciTegic.value.DoubleValue
-60.768

@<SCITEGIC>MOL_PROPERTY
W(PB)
SciTegic.value.DoubleValue
-63.223

@<SCITEGIC>MOL_PROPERTY
W(SA)
SciTegic.value.DoubleValue
2.456

@<SCITEGIC>MOL_PROPERTY
Valence
SciTegic.value.DoubleValue
9.445

@<SCITEGIC>MOL_PROPERTY
Coulomb
SciTegic.value.DoubleValue
0.778

@<SCITEGIC>MOL_PROPERTY
VdW
SciTegic.value.DoubleValue
0.679

@<SCITEGIC>MOL_PROPERTY
VdW6
SciTegic.value.DoubleValue
-10.007

@<SCITEGIC>MOL_PROPERTY
VdW12
SciTegic.value.DoubleValue
10.687

@<SCITEGIC>MOL_PROPERTY
Bond
SciTegic.value.DoubleValue
0.201

@<SCITEGIC>MOL_PROPERTY
Angle
SciTegic.value.DoubleValue
3.198

@<SCITEGIC>MOL_PROPERTY
Pdih
SciTegic.value.DoubleValue
6.040

@<SCITEGIC>MOL_PROPERTY
Idih
SciTegic.value.DoubleValue
0.006

@<SCITEGIC>MOL_PROPERTY
Tether
SciTegic.value.DoubleValue
0.000

@<TRIPOS>MOLECULE
guest-8_confgen4.mol2 : confsearch ligand conformer 956
          25          24           1
SMALL
USER_CHARGES
 
@<TRIPOS>ATOM
       1    C1      22.230650   16.688133   21.805093 C.2        1 MOL1         0.6168
       2    O1      22.268615   17.334412   20.776751 O.co2      1 MOL1        -0.6703
       3    O2      23.013498   15.797039   22.069573 O.co2      1 MOL1        -0.6703
       4    C2      21.153983   17.027335   22.829517 C.3        1 MOL1        -0.1963
       5    H1      20.872533   16.100509   23.343362 H          1 MOL1         0.0750
       6    H2      20.269626   17.370743   22.284131 H          1 MOL1         0.0750
       7    C3      21.621555   18.086901   23.862156 C.3        1 MOL1        -0.1860
       8    H3      22.503180   17.686081   24.381306 H          1 MOL1         0.0752
       9    H4      21.958754   18.996033   23.345251 H          1 MOL1         0.0752
      10    C4      20.542861   18.438955   24.917982 C.3        1 MOL1        -0.1858
      11    H5      21.050126   18.628589   25.873827 H          1 MOL1         0.0752
      12    H6      19.886336   17.576116   25.094969 H          1 MOL1         0.0752
      13    C5      19.696685   19.693288   24.584223 C.3        1 MOL1        -0.1858
      14    H7      19.029514   19.895031   25.433182 H          1 MOL1         0.0752
      15    H8      20.362373   20.562381   24.500772 H          1 MOL1         0.0752
      16    C6      18.846665   19.562391   23.298337 C.3        1 MOL1        -0.1858
      17    H9      18.299723   18.610247   23.324278 H          1 MOL1         0.0752
      18    H10     19.504757   19.528278   22.420271 H          1 MOL1         0.0752
      19    C7      17.827603   20.711702   23.119088 C.3        1 MOL1        -0.1834
      20    H11     17.201185   20.494475   22.242973 H          1 MOL1         0.0752
      21    H12     17.150477   20.745778   23.983710 H          1 MOL1         0.0752
      22    C8      18.493135   22.091613   22.926111 C.3        1 MOL1        -0.2849
      23    H13     19.194375   22.074636   22.081648 H          1 MOL1         0.0764
      24    H14     17.735061   22.858477   22.720941 H          1 MOL1         0.0764
      25    H15     19.043084   22.399466   23.824251 H          1 MOL1         0.0764
@<TRIPOS>BOND
    1     1     2    1
    2     1     3    2
    3     1     4    1
    4     4     5    1
    5     4     6    1
    6     4     7    1
    7     7     8    1
    8     7     9    1
    9     7    10    1
   10    10    11    1
   11    10    12    1
   12    10    13    1
   13    13    14    1
   14    13    15    1
   15    13    16    1
   16    16    17    1
   17    16    18    1
   18    16    19    1
   19    19    20    1
   20    19    21    1
   21    19    22    1
   22    22    23    1
   23    22    24    1
   24    22    25    1
@<TRIPOS>SUBSTRUCTURE
       1 MOL1            1 RESIDUE      1      MOL     
@<SCITEGIC>MOL_PROPERTY
VConf Rank
SciTegic.value.IntegerValue
956

@<SCITEGIC>MOL_PROPERTY
Conf_Id
SciTegic.value.IntegerValue
89

@<SCITEGIC>MOL_PROPERTY
Delta U+W
SciTegic.value.DoubleValue
2.903

@<SCITEGIC>MOL_PROPERTY
U+W
SciTegic.value.DoubleValue
-48.726

@<SCITEGIC>MOL_PROPERTY
Grad RMS
SciTegic.value.DoubleValue
0.000000

@<SCITEGIC>MOL_PROPERTY
U
SciTegic.value.DoubleValue
10.996

@<SCITEGIC>MOL_PROPERTY
W
SciTegic.value.DoubleValue
-59.723

@<SCITEGIC>MOL_PROPERTY
W(PB)
SciTegic.value.DoubleValue
-62.151

@<SCITEGIC>MOL_PROPERTY
W(SA)
SciTegic.value.DoubleValue
2.428

@<SCITEGIC>MOL_PROPERTY
Valence
SciTegic.value.DoubleValue
10.985

@<SCITEGIC>MOL_PROPERTY
Coulomb
SciTegic.value.DoubleValue
-0.995

@<SCITEGIC>MOL_PROPERTY
VdW
SciTegic.value.DoubleValue
1.006

@<SCITEGIC>MOL_PROPERTY
VdW6
SciTegic.value.DoubleValue
-10.062

@<SCITEGIC>MOL_PROPERTY
VdW12
SciTegic.value.DoubleValue
11.069

@<SCITEGIC>MOL_PROPERTY
Bond
SciTegic.value.DoubleValue
0.238

@<SCITEGIC>MOL_PROPERTY
Angle
SciTegic.value.DoubleValue
3.202

@<SCITEGIC>MOL_PROPERTY
Pdih
SciTegic.value.DoubleValue
7.544

@<SCITEGIC>MOL_PROPERTY
Idih
SciTegic.value.DoubleValue
0.001

@<SCITEGIC>MOL_PROPERTY
Tether
SciTegic.value.DoubleValue
0.000

@<TRIPOS>MOLECULE
guest-8_confgen4.mol2 : confsearch ligand conformer 957
          25          24           1
SMALL
USER_CHARGES
 
@<TRIPOS>ATOM
       1    C1      20.529650   18.238561   20.130550 C.2        1 MOL1         0.6168
       2    O1      21.066027   19.265831   19.764113 O.co2      1 MOL1        -0.6703
       3    O2      21.080059   17.154779   20.121757 O.co2      1 MOL1        -0.6703
       4    C2      19.066302   18.305377   20.563440 C.3        1 MOL1        -0.1963
       5    H1      18.503349   17.708820   19.836336 H          1 MOL1         0.0750
       6    H2      18.711270   19.338207   20.463517 H          1 MOL1         0.0750
       7    C3      18.771531   17.769628   21.993008 C.3        1 MOL1        -0.1860
       8    H3      17.705526   17.509648   22.042885 H          1 MOL1         0.0752
       9    H4      19.318653   16.831843   22.162687 H          1 MOL1         0.0752
      10    C4      19.065021   18.770594   23.138374 C.3        1 MOL1        -0.1858
      11    H5      18.660068   18.343709   24.064280 H          1 MOL1         0.0752
      12    H6      18.514834   19.704880   22.962427 H          1 MOL1         0.0752
      13    C5      20.568906   19.081566   23.333340 C.3        1 MOL1        -0.1858
      14    H7      21.132212   18.145555   23.448835 H          1 MOL1         0.0752
      15    H8      20.956771   19.569644   22.431022 H          1 MOL1         0.0752
      16    C6      20.856641   20.014280   24.534434 C.3        1 MOL1        -0.1858
      17    H9      20.267769   20.936250   24.434291 H          1 MOL1         0.0752
      18    H10     21.912462   20.314995   24.493020 H          1 MOL1         0.0752
      19    C7      20.578569   19.361843   25.907911 C.3        1 MOL1        -0.1834
      20    H11     19.511222   19.126319   26.008060 H          1 MOL1         0.0752
      21    H12     21.125221   18.411817   25.984134 H          1 MOL1         0.0752
      22    C8      20.997077   20.287416   27.068196 C.3        1 MOL1        -0.2849
      23    H13     20.445341   21.235913   27.032033 H          1 MOL1         0.0764
      24    H14     20.790830   19.811975   28.035909 H          1 MOL1         0.0764
      25    H15     22.070585   20.513140   27.023797 H          1 MOL1         0.0764
@<TRIPOS>BOND
    1     1     2    1
    2     1     3    2
    3     1     4    1
    4     4     5    1
    5     4     6    1
    6     4     7    1
    7     7     8    1
    8     7     9    1
    9     7    10    1
   10    10    11    1
   11    10    12    1
   12    10    13    1
   13    13    14    1
   14    13    15    1
   15    13    16    1
   16    16    17    1
   17    16    18    1
   18    16    19    1
   19    19    20    1
   20    19    21    1
   21    19    22    1
   22    22    23    1
   23    22    24    1
   24    22    25    1
@<TRIPOS>SUBSTRUCTURE
       1 MOL1            1 RESIDUE      1      MOL     
@<SCITEGIC>MOL_PROPERTY
VConf Rank
SciTegic.value.IntegerValue
957

@<SCITEGIC>MOL_PROPERTY
Conf_Id
SciTegic.value.IntegerValue
114

@<SCITEGIC>MOL_PROPERTY
Delta U+W
SciTegic.value.DoubleValue
2.758

@<SCITEGIC>MOL_PROPERTY
U+W
SciTegic.value.DoubleValue
-48.871

@<SCITEGIC>MOL_PROPERTY
Grad RMS
SciTegic.value.DoubleValue
0.000000

@<SCITEGIC>MOL_PROPERTY
U
SciTegic.value.DoubleValue
11.422

@<SCITEGIC>MOL_PROPERTY
W
SciTegic.value.DoubleValue
-60.293

@<SCITEGIC>MOL_PROPERTY
W(PB)
SciTegic.value.DoubleValue
-62.719

@<SCITEGIC>MOL_PROPERTY
W(SA)
SciTegic.value.DoubleValue
2.425

@<SCITEGIC>MOL_PROPERTY
Valence
SciTegic.value.DoubleValue
10.135

@<SCITEGIC>MOL_PROPERTY
Coulomb
SciTegic.value.DoubleValue
0.369

@<SCITEGIC>MOL_PROPERTY
VdW
SciTegic.value.DoubleValue
0.918

@<SCITEGIC>MOL_PROPERTY
VdW6
SciTegic.value.DoubleValue
-10.482

@<SCITEGIC>MOL_PROPERTY
VdW12
SciTegic.value.DoubleValue
11.400

@<SCITEGIC>MOL_PROPERTY
Bond
SciTegic.value.DoubleValue
0.245

@<SCITEGIC>MOL_PROPERTY
Angle
SciTegic.value.DoubleValue
3.539

@<SCITEGIC>MOL_PROPERTY
Pdih
SciTegic.value.DoubleValue
6.346

@<SCITEGIC>MOL_PROPERTY
Idih
SciTegic.value.DoubleValue
0.006

@<SCITEGIC>MOL_PROPERTY
Tether
SciTegic.value.DoubleValue
0.000

@<TRIPOS>MOLECULE
guest-8_confgen4.mol2 : confsearch ligand conformer 958
          25          24           1
SMALL
USER_CHARGES
 
@<TRIPOS>ATOM
       1    C1      23.922039   19.790388   23.972985 C.2        1 MOL1         0.6168
       2    O1      24.030434   21.000799   23.958134 O.co2      1 MOL1        -0.6703
       3    O2      24.192603   19.102479   24.937699 O.co2      1 MOL1        -0.6703
       4    C2      23.439435   19.091936   22.704834 C.3        1 MOL1        -0.1963
       5    H1      24.093652   18.228480   22.536246 H          1 MOL1         0.0750
       6    H2      23.583842   19.770169   21.855175 H          1 MOL1         0.0750
       7    C3      21.963842   18.619277   22.769619 C.3        1 MOL1        -0.1860
       8    H3      21.742237   18.018687   21.877188 H          1 MOL1         0.0752
       9    H4      21.841271   17.957382   23.636913 H          1 MOL1         0.0752
      10    C4      20.967307   19.800608   22.851043 C.3        1 MOL1        -0.1858
      11    H5      21.172588   20.496278   22.025969 H          1 MOL1         0.0752
      12    H6      21.131953   20.365340   23.779090 H          1 MOL1         0.0752
      13    C5      19.484275   19.366562   22.767954 C.3        1 MOL1        -0.1858
      14    H7      18.870487   20.272477   22.685691 H          1 MOL1         0.0752
      15    H8      19.319345   18.793721   21.845363 H          1 MOL1         0.0752
      16    C6      19.015325   18.537694   23.989267 C.3        1 MOL1        -0.1858
      17    H9      19.183850   19.109613   24.911867 H          1 MOL1         0.0752
      18    H10     19.625314   17.629166   24.070220 H          1 MOL1         0.0752
      19    C7      17.530779   18.110968   23.908864 C.3        1 MOL1        -0.1834
      20    H11     17.355964   17.548452   22.981337 H          1 MOL1         0.0752
      21    H12     17.319110   17.418792   24.735501 H          1 MOL1         0.0752
      22    C8      16.545110   19.296895   23.992172 C.3        1 MOL1        -0.2849
      23    H13     15.510024   18.933272   24.027934 H          1 MOL1         0.0764
      24    H14     16.724520   19.894287   24.895526 H          1 MOL1         0.0764
      25    H15     16.634507   19.955796   23.119667 H          1 MOL1         0.0764
@<TRIPOS>BOND
    1     1     2    1
    2     1     3    2
    3     1     4    1
    4     4     5    1
    5     4     6    1
    6     4     7    1
    7     7     8    1
    8     7     9    1
    9     7    10    1
   10    10    11    1
   11    10    12    1
   12    10    13    1
   13    13    14    1
   14    13    15    1
   15    13    16    1
   16    16    17    1
   17    16    18    1
   18    16    19    1
   19    19    20    1
   20    19    21    1
   21    19    22    1
   22    22    23    1
   23    22    24    1
   24    22    25    1
@<TRIPOS>SUBSTRUCTURE
       1 MOL1            1 RESIDUE      1      MOL     
@<SCITEGIC>MOL_PROPERTY
VConf Rank
SciTegic.value.IntegerValue
958

@<SCITEGIC>MOL_PROPERTY
Conf_Id
SciTegic.value.IntegerValue
87

@<SCITEGIC>MOL_PROPERTY
Delta U+W
SciTegic.value.DoubleValue
1.453

@<SCITEGIC>MOL_PROPERTY
U+W
SciTegic.value.DoubleValue
-50.176

@<SCITEGIC>MOL_PROPERTY
Grad RMS
SciTegic.value.DoubleValue
0.000000

@<SCITEGIC>MOL_PROPERTY
U
SciTegic.value.DoubleValue
9.763

@<SCITEGIC>MOL_PROPERTY
W
SciTegic.value.DoubleValue
-59.940

@<SCITEGIC>MOL_PROPERTY
W(PB)
SciTegic.value.DoubleValue
-62.392

@<SCITEGIC>MOL_PROPERTY
W(SA)
SciTegic.value.DoubleValue
2.452

@<SCITEGIC>MOL_PROPERTY
Valence
SciTegic.value.DoubleValue
8.883

@<SCITEGIC>MOL_PROPERTY
Coulomb
SciTegic.value.DoubleValue
-0.122

@<SCITEGIC>MOL_PROPERTY
VdW
SciTegic.value.DoubleValue
1.003

@<SCITEGIC>MOL_PROPERTY
VdW6
SciTegic.value.DoubleValue
-9.782

@<SCITEGIC>MOL_PROPERTY
VdW12
SciTegic.value.DoubleValue
10.785

@<SCITEGIC>MOL_PROPERTY
Bond
SciTegic.value.DoubleValue
0.212

@<SCITEGIC>MOL_PROPERTY
Angle
SciTegic.value.DoubleValue
2.940

@<SCITEGIC>MOL_PROPERTY
Pdih
SciTegic.value.DoubleValue
5.730

@<SCITEGIC>MOL_PROPERTY
Idih
SciTegic.value.DoubleValue
0.001

@<SCITEGIC>MOL_PROPERTY
Tether
SciTegic.value.DoubleValue
0.000

@<TRIPOS>MOLECULE
guest-8_confgen4.mol2 : confsearch ligand conformer 959
          25          24           1
SMALL
USER_CHARGES
 
@<TRIPOS>ATOM
       1    C1      17.328890   16.345715   24.116806 C.2        1 MOL1         0.6168
       2    O1      18.001383   15.449550   24.587261 O.co2      1 MOL1        -0.6703
       3    O2      16.181719   16.571679   24.447986 O.co2      1 MOL1        -0.6703
       4    C2      17.965687   17.248169   23.065981 C.3        1 MOL1        -0.1963
       5    H1      17.180428   17.567785   22.370498 H          1 MOL1         0.0750
       6    H2      18.683389   16.649456   22.492376 H          1 MOL1         0.0750
       7    C3      18.671079   18.482035   23.680753 C.3        1 MOL1        -0.1860
       8    H3      17.942500   19.067014   24.258779 H          1 MOL1         0.0752
       9    H4      19.438016   18.137284   24.386968 H          1 MOL1         0.0752
      10    C4      19.313723   19.375635   22.594882 C.3        1 MOL1        -0.1858
      11    H5      18.545885   19.653097   21.859993 H          1 MOL1         0.0752
      12    H6      20.070777   18.803407   22.042768 H          1 MOL1         0.0752
      13    C5      19.941966   20.675044   23.158072 C.3        1 MOL1        -0.1858
      14    H7      20.320600   21.277147   22.321719 H          1 MOL1         0.0752
      15    H8      19.150595   21.278116   23.623375 H          1 MOL1         0.0752
      16    C6      21.078716   20.466895   24.193588 C.3        1 MOL1        -0.1858
      17    H9      20.663917   20.010238   25.101703 H          1 MOL1         0.0752
      18    H10     21.454808   21.451554   24.502606 H          1 MOL1         0.0752
      19    C7      22.270987   19.610303   23.700769 C.3        1 MOL1        -0.1834
      20    H11     22.994588   19.512063   24.521535 H          1 MOL1         0.0752
      21    H12     21.933895   18.591114   23.469565 H          1 MOL1         0.0752
      22    C8      22.989439   20.212938   22.474107 C.3        1 MOL1        -0.2849
      23    H13     23.320894   21.239309   22.678154 H          1 MOL1         0.0764
      24    H14     23.873688   19.616470   22.215155 H          1 MOL1         0.0764
      25    H15     22.331437   20.231355   21.596246 H          1 MOL1         0.0764
@<TRIPOS>BOND
    1     1     2    1
    2     1     3    2
    3     1     4    1
    4     4     5    1
    5     4     6    1
    6     4     7    1
    7     7     8    1
    8     7     9    1
    9     7    10    1
   10    10    11    1
   11    10    12    1
   12    10    13    1
   13    13    14    1
   14    13    15    1
   15    13    16    1
   16    16    17    1
   17    16    18    1
   18    16    19    1
   19    19    20    1
   20    19    21    1
   21    19    22    1
   22    22    23    1
   23    22    24    1
   24    22    25    1
@<TRIPOS>SUBSTRUCTURE
       1 MOL1            1 RESIDUE      1      MOL     
@<SCITEGIC>MOL_PROPERTY
VConf Rank
SciTegic.value.IntegerValue
959

@<SCITEGIC>MOL_PROPERTY
Conf_Id
SciTegic.value.IntegerValue
29

@<SCITEGIC>MOL_PROPERTY
Delta U+W
SciTegic.value.DoubleValue
0.850

@<SCITEGIC>MOL_PROPERTY
U+W
SciTegic.value.DoubleValue
-50.780

@<SCITEGIC>MOL_PROPERTY
Grad RMS
SciTegic.value.DoubleValue
0.000000

@<SCITEGIC>MOL_PROPERTY
U
SciTegic.value.DoubleValue
8.646

@<SCITEGIC>MOL_PROPERTY
W
SciTegic.value.DoubleValue
-59.426

@<SCITEGIC>MOL_PROPERTY
W(PB)
SciTegic.value.DoubleValue
-61.868

@<SCITEGIC>MOL_PROPERTY
W(SA)
SciTegic.value.DoubleValue
2.442

@<SCITEGIC>MOL_PROPERTY
Valence
SciTegic.value.DoubleValue
8.924

@<SCITEGIC>MOL_PROPERTY
Coulomb
SciTegic.value.DoubleValue
-1.171

@<SCITEGIC>MOL_PROPERTY
VdW
SciTegic.value.DoubleValue
0.894

@<SCITEGIC>MOL_PROPERTY
VdW6
SciTegic.value.DoubleValue
-10.223

@<SCITEGIC>MOL_PROPERTY
VdW12
SciTegic.value.DoubleValue
11.117

@<SCITEGIC>MOL_PROPERTY
Bond
SciTegic.value.DoubleValue
0.231

@<SCITEGIC>MOL_PROPERTY
Angle
SciTegic.value.DoubleValue
3.232

@<SCITEGIC>MOL_PROPERTY
Pdih
SciTegic.value.DoubleValue
5.461

@<SCITEGIC>MOL_PROPERTY
Idih
SciTegic.value.DoubleValue
0.001

@<SCITEGIC>MOL_PROPERTY
Tether
SciTegic.value.DoubleValue
0.000

@<TRIPOS>MOLECULE
guest-8_confgen4.mol2 : confsearch ligand conformer 960
          25          24           1
SMALL
USER_CHARGES
 
@<TRIPOS>ATOM
       1    C1      19.418394   15.511744   24.725700 C.2        1 MOL1         0.6168
       2    O1      19.484352   15.685341   25.926616 O.co2      1 MOL1        -0.6703
       3    O2      19.772922   14.489349   24.172745 O.co2      1 MOL1        -0.6703
       4    C2      18.878529   16.646690   23.862789 C.3        1 MOL1        -0.1963
       5    H1      18.130358   17.193970   24.448707 H          1 MOL1         0.0750
       6    H2      18.358682   16.204361   23.004544 H          1 MOL1         0.0750
       7    C3      19.987173   17.612776   23.377463 C.3        1 MOL1        -0.1860
       8    H3      20.505384   18.026788   24.252584 H          1 MOL1         0.0752
       9    H4      20.732998   17.049655   22.799725 H          1 MOL1         0.0752
      10    C4      19.412004   18.757286   22.511488 C.3        1 MOL1        -0.1858
      11    H5      18.696051   19.345327   23.100577 H          1 MOL1         0.0752
      12    H6      18.839095   18.323505   21.680687 H          1 MOL1         0.0752
      13    C5      20.499256   19.689163   21.920026 C.3        1 MOL1        -0.1858
      14    H7      21.148657   19.100142   21.258358 H          1 MOL1         0.0752
      15    H8      20.015132   20.433596   21.274406 H          1 MOL1         0.0752
      16    C6      21.386850   20.417866   22.963573 C.3        1 MOL1        -0.1858
      17    H9      22.100625   21.058935   22.428740 H          1 MOL1         0.0752
      18    H10     21.996805   19.679720   23.500566 H          1 MOL1         0.0752
      19    C7      20.618733   21.280114   23.995396 C.3        1 MOL1        -0.1834
      20    H11     19.961923   20.644816   24.604357 H          1 MOL1         0.0752
      21    H12     21.344357   21.722361   24.691665 H          1 MOL1         0.0752
      22    C8      19.794443   22.414704   23.349417 C.3        1 MOL1        -0.2849
      23    H13     18.985559   22.014084   22.725593 H          1 MOL1         0.0764
      24    H14     19.337532   23.045931   24.122406 H          1 MOL1         0.0764
      25    H15     20.429609   23.053425   22.722093 H          1 MOL1         0.0764
@<TRIPOS>BOND
    1     1     2    1
    2     1     3    2
    3     1     4    1
    4     4     5    1
    5     4     6    1
    6     4     7    1
    7     7     8    1
    8     7     9    1
    9     7    10    1
   10    10    11    1
   11    10    12    1
   12    10    13    1
   13    13    14    1
   14    13    15    1
   15    13    16    1
   16    16    17    1
   17    16    18    1
   18    16    19    1
   19    19    20    1
   20    19    21    1
   21    19    22    1
   22    22    23    1
   23    22    24    1
   24    22    25    1
@<TRIPOS>SUBSTRUCTURE
       1 MOL1            1 RESIDUE      1      MOL     
@<SCITEGIC>MOL_PROPERTY
VConf Rank
SciTegic.value.IntegerValue
960

@<SCITEGIC>MOL_PROPERTY
Conf_Id
SciTegic.value.IntegerValue
30

@<SCITEGIC>MOL_PROPERTY
Delta U+W
SciTegic.value.DoubleValue
0.843

@<SCITEGIC>MOL_PROPERTY
U+W
SciTegic.value.DoubleValue
-50.787

@<SCITEGIC>MOL_PROPERTY
Grad RMS
SciTegic.value.DoubleValue
0.000000

@<SCITEGIC>MOL_PROPERTY
U
SciTegic.value.DoubleValue
8.647

@<SCITEGIC>MOL_PROPERTY
W
SciTegic.value.DoubleValue
-59.434

@<SCITEGIC>MOL_PROPERTY
W(PB)
SciTegic.value.DoubleValue
-61.861

@<SCITEGIC>MOL_PROPERTY
W(SA)
SciTegic.value.DoubleValue
2.428

@<SCITEGIC>MOL_PROPERTY
Valence
SciTegic.value.DoubleValue
8.924

@<SCITEGIC>MOL_PROPERTY
Coulomb
SciTegic.value.DoubleValue
-1.170

@<SCITEGIC>MOL_PROPERTY
VdW
SciTegic.value.DoubleValue
0.894

@<SCITEGIC>MOL_PROPERTY
VdW6
SciTegic.value.DoubleValue
-10.224

@<SCITEGIC>MOL_PROPERTY
VdW12
SciTegic.value.DoubleValue
11.118

@<SCITEGIC>MOL_PROPERTY
Bond
SciTegic.value.DoubleValue
0.231

@<SCITEGIC>MOL_PROPERTY
Angle
SciTegic.value.DoubleValue
3.232

@<SCITEGIC>MOL_PROPERTY
Pdih
SciTegic.value.DoubleValue
5.460

@<SCITEGIC>MOL_PROPERTY
Idih
SciTegic.value.DoubleValue
0.000

@<SCITEGIC>MOL_PROPERTY
Tether
SciTegic.value.DoubleValue
0.000

@<TRIPOS>MOLECULE
guest-8_confgen4.mol2 : confsearch ligand conformer 961
          25          24           1
SMALL
USER_CHARGES
 
@<TRIPOS>ATOM
       1    C1      21.507383   16.207055   26.483967 C.2        1 MOL1         0.6168
       2    O1      22.627663   16.677741   26.529027 O.co2      1 MOL1        -0.6703
       3    O2      21.147486   15.281756   27.184263 O.co2      1 MOL1        -0.6703
       4    C2      20.480146   16.785535   25.509523 C.3        1 MOL1        -0.1963
       5    H1      19.613839   17.106080   26.100005 H          1 MOL1         0.0750
       6    H2      20.143377   15.965421   24.864615 H          1 MOL1         0.0750
       7    C3      20.986006   17.965174   24.637185 C.3        1 MOL1        -0.1860
       8    H3      21.327764   18.780636   25.289664 H          1 MOL1         0.0752
       9    H4      21.857747   17.638942   24.053107 H          1 MOL1         0.0752
      10    C4      19.888306   18.487209   23.684725 C.3        1 MOL1        -0.1858
      11    H5      19.017855   18.812715   24.270811 H          1 MOL1         0.0752
      12    H6      19.548185   17.670313   23.033468 H          1 MOL1         0.0752
      13    C5      20.393656   19.660598   22.817967 C.3        1 MOL1        -0.1858
      14    H7      20.733816   20.477665   23.468963 H          1 MOL1         0.0752
      15    H8      21.264089   19.335372   22.231726 H          1 MOL1         0.0752
      16    C6      19.296577   20.183051   21.865405 C.3        1 MOL1        -0.1858
      17    H9      18.426057   20.508384   22.451447 H          1 MOL1         0.0752
      18    H10     18.956339   19.366161   21.214235 H          1 MOL1         0.0752
      19    C7      19.801578   21.355952   20.999010 C.3        1 MOL1        -0.1834
      20    H11     20.141072   22.175885   21.647039 H          1 MOL1         0.0752
      21    H12     20.671344   21.033676   20.409831 H          1 MOL1         0.0752
      22    C8      18.703237   21.874802   20.049248 C.3        1 MOL1        -0.2849
      23    H13     17.832721   22.233375   20.614071 H          1 MOL1         0.0764
      24    H14     19.079309   22.707912   19.441313 H          1 MOL1         0.0764
      25    H15     18.366998   21.082582   19.367539 H          1 MOL1         0.0764
@<TRIPOS>BOND
    1     1     2    1
    2     1     3    2
    3     1     4    1
    4     4     5    1
    5     4     6    1
    6     4     7    1
    7     7     8    1
    8     7     9    1
    9     7    10    1
   10    10    11    1
   11    10    12    1
   12    10    13    1
   13    13    14    1
   14    13    15    1
   15    13    16    1
   16    16    17    1
   17    16    18    1
   18    16    19    1
   19    19    20    1
   20    19    21    1
   21    19    22    1
   22    22    23    1
   23    22    24    1
   24    22    25    1
@<TRIPOS>SUBSTRUCTURE
       1 MOL1            1 RESIDUE      1      MOL     
@<SCITEGIC>MOL_PROPERTY
VConf Rank
SciTegic.value.IntegerValue
961

@<SCITEGIC>MOL_PROPERTY
Conf_Id
SciTegic.value.IntegerValue
0

@<SCITEGIC>MOL_PROPERTY
Delta U+W
SciTegic.value.DoubleValue
0.000

@<SCITEGIC>MOL_PROPERTY
U+W
SciTegic.value.DoubleValue
-51.629

@<SCITEGIC>MOL_PROPERTY
Grad RMS
SciTegic.value.DoubleValue
0.000000

@<SCITEGIC>MOL_PROPERTY
U
SciTegic.value.DoubleValue
6.586

@<SCITEGIC>MOL_PROPERTY
W
SciTegic.value.DoubleValue
-58.216

@<SCITEGIC>MOL_PROPERTY
W(PB)
SciTegic.value.DoubleValue
-60.757

@<SCITEGIC>MOL_PROPERTY
W(SA)
SciTegic.value.DoubleValue
2.541

@<SCITEGIC>MOL_PROPERTY
Valence
SciTegic.value.DoubleValue
8.027

@<SCITEGIC>MOL_PROPERTY
Coulomb
SciTegic.value.DoubleValue
-2.892

@<SCITEGIC>MOL_PROPERTY
VdW
SciTegic.value.DoubleValue
1.451

@<SCITEGIC>MOL_PROPERTY
VdW6
SciTegic.value.DoubleValue
-7.931

@<SCITEGIC>MOL_PROPERTY
VdW12
SciTegic.value.DoubleValue
9.383

@<SCITEGIC>MOL_PROPERTY
Bond
SciTegic.value.DoubleValue
0.149

@<SCITEGIC>MOL_PROPERTY
Angle
SciTegic.value.DoubleValue
2.726

@<SCITEGIC>MOL_PROPERTY
Pdih
SciTegic.value.DoubleValue
5.152

@<SCITEGIC>MOL_PROPERTY
Idih
SciTegic.value.DoubleValue
0.000

@<SCITEGIC>MOL_PROPERTY
Tether
SciTegic.value.DoubleValue
0.000

@<TRIPOS>MOLECULE
guest-8_confgen4.mol2 : confsearch ligand conformer 962
          25          24           1
SMALL
USER_CHARGES
 
@<TRIPOS>ATOM
       1    C1      22.655427   15.833115   21.038093 C.2        1 MOL1         0.6168
       2    O1      23.856517   15.958138   21.173636 O.co2      1 MOL1        -0.6703
       3    O2      22.096789   14.758241   20.942218 O.co2      1 MOL1        -0.6703
       4    C2      21.799276   17.094181   21.009834 C.3        1 MOL1        -0.1963
       5    H1      20.938066   16.906648   20.357335 H          1 MOL1         0.0750
       6    H2      22.388185   17.895383   20.547375 H          1 MOL1         0.0750
       7    C3      21.319694   17.527055   22.417187 C.3        1 MOL1        -0.1860
       8    H3      20.743168   16.709277   22.871556 H          1 MOL1         0.0752
       9    H4      22.193264   17.697832   23.061628 H          1 MOL1         0.0752
      10    C4      20.455465   18.805373   22.362113 C.3        1 MOL1        -0.1858
      11    H5      19.583712   18.631715   21.716303 H          1 MOL1         0.0752
      12    H6      21.034165   19.620496   21.906196 H          1 MOL1         0.0752
      13    C5      19.979038   19.234570   23.766490 C.3        1 MOL1        -0.1858
      14    H7      19.400259   18.419641   24.222571 H          1 MOL1         0.0752
      15    H8      20.850627   19.408293   24.412445 H          1 MOL1         0.0752
      16    C6      19.114800   20.512860   23.712209 C.3        1 MOL1        -0.1858
      17    H9      18.243051   20.339429   23.066399 H          1 MOL1         0.0752
      18    H10     19.693319   21.327996   23.256179 H          1 MOL1         0.0752
      19    C7      18.638555   20.942063   25.115896 C.3        1 MOL1        -0.1834
      20    H11     18.057794   20.129742   25.574523 H          1 MOL1         0.0752
      21    H12     19.508041   21.118329   25.764289 H          1 MOL1         0.0752
      22    C8      17.775901   22.218782   25.057434 C.3        1 MOL1        -0.2849
      23    H13     17.446190   22.509360   26.063388 H          1 MOL1         0.0764
      24    H14     18.342938   23.056844   24.631383 H          1 MOL1         0.0764
      25    H15     16.881781   22.060809   24.440190 H          1 MOL1         0.0764
@<TRIPOS>BOND
    1     1     2    1
    2     1     3    2
    3     1     4    1
    4     4     5    1
    5     4     6    1
    6     4     7    1
    7     7     8    1
    8     7     9    1
    9     7    10    1
   10    10    11    1
   11    10    12    1
   12    10    13    1
   13    13    14    1
   14    13    15    1
   15    13    16    1
   16    16    17    1
   17    16    18    1
   18    16    19    1
   19    19    20    1
   20    19    21    1
   21    19    22    1
   22    22    23    1
   23    22    24    1
   24    22    25    1
@<TRIPOS>SUBSTRUCTURE
       1 MOL1            1 RESIDUE      1      MOL     
@<SCITEGIC>MOL_PROPERTY
VConf Rank
SciTegic.value.IntegerValue
962

@<SCITEGIC>MOL_PROPERTY
Conf_Id
SciTegic.value.IntegerValue
27

@<SCITEGIC>MOL_PROPERTY
Delta U+W
SciTegic.value.DoubleValue
-1.297

@<SCITEGIC>MOL_PROPERTY
U+W
SciTegic.value.DoubleValue
-52.926

@<SCITEGIC>MOL_PROPERTY
Grad RMS
SciTegic.value.DoubleValue
0.000000

@<SCITEGIC>MOL_PROPERTY
U
SciTegic.value.DoubleValue
5.617

@<SCITEGIC>MOL_PROPERTY
W
SciTegic.value.DoubleValue
-58.543

@<SCITEGIC>MOL_PROPERTY
W(PB)
SciTegic.value.DoubleValue
-61.065

@<SCITEGIC>MOL_PROPERTY
W(SA)
SciTegic.value.DoubleValue
2.522

@<SCITEGIC>MOL_PROPERTY
Valence
SciTegic.value.DoubleValue
7.531

@<SCITEGIC>MOL_PROPERTY
Coulomb
SciTegic.value.DoubleValue
-2.818

@<SCITEGIC>MOL_PROPERTY
VdW
SciTegic.value.DoubleValue
0.904

@<SCITEGIC>MOL_PROPERTY
VdW6
SciTegic.value.DoubleValue
-7.640

@<SCITEGIC>MOL_PROPERTY
VdW12
SciTegic.value.DoubleValue
8.544

@<SCITEGIC>MOL_PROPERTY
Bond
SciTegic.value.DoubleValue
0.115

@<SCITEGIC>MOL_PROPERTY
Angle
SciTegic.value.DoubleValue
2.271

@<SCITEGIC>MOL_PROPERTY
Pdih
SciTegic.value.DoubleValue
5.144

@<SCITEGIC>MOL_PROPERTY
Idih
SciTegic.value.DoubleValue
0.001

@<SCITEGIC>MOL_PROPERTY
Tether
SciTegic.value.DoubleValue
0.000

@<TRIPOS>MOLECULE
guest-8_confgen4.mol2 : confsearch ligand conformer 963
          25          24           1
SMALL
USER_CHARGES
 
@<TRIPOS>ATOM
       1    C1      22.595855   22.247661   22.539267 C.2        1 MOL1         0.6168
       2    O1      22.348580   23.226438   23.215969 O.co2      1 MOL1        -0.6703
       3    O2      23.631609   21.617228   22.621313 O.co2      1 MOL1        -0.6703
       4    C2      21.553935   21.797325   21.519186 C.3        1 MOL1        -0.1963
       5    H1      22.044076   21.153041   20.779250 H          1 MOL1         0.0750
       6    H2      21.211003   22.690904   20.984490 H          1 MOL1         0.0750
       7    C3      20.336091   21.067060   22.142496 C.3        1 MOL1        -0.1860
       8    H3      19.872906   21.713803   22.900689 H          1 MOL1         0.0752
       9    H4      19.580615   20.903900   21.361995 H          1 MOL1         0.0752
      10    C4      20.716971   19.709451   22.774632 C.3        1 MOL1        -0.1858
      11    H5      21.459954   19.866295   23.568861 H          1 MOL1         0.0752
      12    H6      21.191689   19.071794   22.016305 H          1 MOL1         0.0752
      13    C5      19.485311   18.985768   23.360232 C.3        1 MOL1        -0.1858
      14    H7      19.011306   19.624156   24.118433 H          1 MOL1         0.0752
      15    H8      18.742215   18.825140   22.567109 H          1 MOL1         0.0752
      16    C6      19.865271   17.629539   23.992796 C.3        1 MOL1        -0.1858
      17    H9      20.608452   17.790005   24.785929 H          1 MOL1         0.0752
      18    H10     20.339624   16.991119   23.234844 H          1 MOL1         0.0752
      19    C7      18.634581   16.906041   24.578733 C.3        1 MOL1        -0.1834
      20    H11     18.158573   17.541111   25.338723 H          1 MOL1         0.0752
      21    H12     17.889765   16.742126   23.787620 H          1 MOL1         0.0752
      22    C8      19.018316   15.552364   25.209534 C.3        1 MOL1        -0.2849
      23    H13     19.739369   15.689789   26.025986 H          1 MOL1         0.0764
      24    H14     18.131989   15.052034   25.620843 H          1 MOL1         0.0764
      25    H15     19.468591   14.884782   24.463222 H          1 MOL1         0.0764
@<TRIPOS>BOND
    1     1     2    1
    2     1     3    2
    3     1     4    1
    4     4     5    1
    5     4     6    1
    6     4     7    1
    7     7     8    1
    8     7     9    1
    9     7    10    1
   10    10    11    1
   11    10    12    1
   12    10    13    1
   13    13    14    1
   14    13    15    1
   15    13    16    1
   16    16    17    1
   17    16    18    1
   18    16    19    1
   19    19    20    1
   20    19    21    1
   21    19    22    1
   22    22    23    1
   23    22    24    1
   24    22    25    1
@<TRIPOS>SUBSTRUCTURE
       1 MOL1            1 RESIDUE      1      MOL     
@<SCITEGIC>MOL_PROPERTY
VConf Rank
SciTegic.value.IntegerValue
963

@<SCITEGIC>MOL_PROPERTY
Conf_Id
SciTegic.value.IntegerValue
37

@<SCITEGIC>MOL_PROPERTY
Delta U+W
SciTegic.value.DoubleValue
-0.230

@<SCITEGIC>MOL_PROPERTY
U+W
SciTegic.value.DoubleValue
-51.860

@<SCITEGIC>MOL_PROPERTY
Grad RMS
SciTegic.value.DoubleValue
0.000000

@<SCITEGIC>MOL_PROPERTY
U
SciTegic.value.DoubleValue
7.816

@<SCITEGIC>MOL_PROPERTY
W
SciTegic.value.DoubleValue
-59.675

@<SCITEGIC>MOL_PROPERTY
W(PB)
SciTegic.value.DoubleValue
-62.180

@<SCITEGIC>MOL_PROPERTY
W(SA)
SciTegic.value.DoubleValue
2.505

@<SCITEGIC>MOL_PROPERTY
Valence
SciTegic.value.DoubleValue
7.785

@<SCITEGIC>MOL_PROPERTY
Coulomb
SciTegic.value.DoubleValue
-0.713

@<SCITEGIC>MOL_PROPERTY
VdW
SciTegic.value.DoubleValue
0.744

@<SCITEGIC>MOL_PROPERTY
VdW6
SciTegic.value.DoubleValue
-8.514

@<SCITEGIC>MOL_PROPERTY
VdW12
SciTegic.value.DoubleValue
9.259

@<SCITEGIC>MOL_PROPERTY
Bond
SciTegic.value.DoubleValue
0.136

@<SCITEGIC>MOL_PROPERTY
Angle
SciTegic.value.DoubleValue
2.433

@<SCITEGIC>MOL_PROPERTY
Pdih
SciTegic.value.DoubleValue
5.216

@<SCITEGIC>MOL_PROPERTY
Idih
SciTegic.value.DoubleValue
0.000

@<SCITEGIC>MOL_PROPERTY
Tether
SciTegic.value.DoubleValue
0.000

@<TRIPOS>MOLECULE
guest-8_confgen4.mol2 : confsearch ligand conformer 964
          25          24           1
SMALL
USER_CHARGES
 
@<TRIPOS>ATOM
       1    C1      21.562099   17.945883   19.896824 C.2        1 MOL1         0.6168
       2    O1      21.873186   18.822455   19.114570 O.co2      1 MOL1        -0.6703
       3    O2      20.667185   17.149188   19.693425 O.co2      1 MOL1        -0.6703
       4    C2      22.350727   17.831022   21.198300 C.3        1 MOL1        -0.1963
       5    H1      23.414563   17.908809   20.944956 H          1 MOL1         0.0750
       6    H2      22.195823   16.828063   21.614142 H          1 MOL1         0.0750
       7    C3      21.988685   18.909712   22.252007 C.3        1 MOL1        -0.1860
       8    H3      22.692821   18.837897   23.091998 H          1 MOL1         0.0752
       9    H4      22.122262   19.907744   21.811823 H          1 MOL1         0.0752
      10    C4      20.545228   18.760828   22.783073 C.3        1 MOL1        -0.1858
      11    H5      20.412886   17.757170   23.209898 H          1 MOL1         0.0752
      12    H6      19.833488   18.848950   21.950556 H          1 MOL1         0.0752
      13    C5      20.217092   19.824369   23.853043 C.3        1 MOL1        -0.1858
      14    H7      20.925774   19.736246   24.687932 H          1 MOL1         0.0752
      15    H8      20.349597   20.827632   23.425264 H          1 MOL1         0.0752
      16    C6      18.774697   19.676660   24.383643 C.3        1 MOL1        -0.1858
      17    H9      18.641889   18.673350   24.811209 H          1 MOL1         0.0752
      18    H10     18.065861   19.764632   23.548814 H          1 MOL1         0.0752
      19    C7      18.446039   20.739885   25.452708 C.3        1 MOL1        -0.1834
      20    H11     19.152094   20.653656   26.290282 H          1 MOL1         0.0752
      21    H12     18.575963   21.744913   25.027830 H          1 MOL1         0.0752
      22    C8      17.004896   20.588923   25.979890 C.3        1 MOL1        -0.2849
      23    H13     16.855915   19.602904   26.439199 H          1 MOL1         0.0764
      24    H14     16.788433   21.352316   26.738478 H          1 MOL1         0.0764
      25    H15     16.275453   20.702307   25.167206 H          1 MOL1         0.0764
@<TRIPOS>BOND
    1     1     2    1
    2     1     3    2
    3     1     4    1
    4     4     5    1
    5     4     6    1
    6     4     7    1
    7     7     8    1
    8     7     9    1
    9     7    10    1
   10    10    11    1
   11    10    12    1
   12    10    13    1
   13    13    14    1
   14    13    15    1
   15    13    16    1
   16    16    17    1
   17    16    18    1
   18    16    19    1
   19    19    20    1
   20    19    21    1
   21    19    22    1
   22    22    23    1
   23    22    24    1
   24    22    25    1
@<TRIPOS>SUBSTRUCTURE
       1 MOL1            1 RESIDUE      1      MOL     
@<SCITEGIC>MOL_PROPERTY
VConf Rank
SciTegic.value.IntegerValue
964

@<SCITEGIC>MOL_PROPERTY
Conf_Id
SciTegic.value.IntegerValue
54

@<SCITEGIC>MOL_PROPERTY
Delta U+W
SciTegic.value.DoubleValue
-0.224

@<SCITEGIC>MOL_PROPERTY
U+W
SciTegic.value.DoubleValue
-51.854

@<SCITEGIC>MOL_PROPERTY
Grad RMS
SciTegic.value.DoubleValue
0.000000

@<SCITEGIC>MOL_PROPERTY
U
SciTegic.value.DoubleValue
7.816

@<SCITEGIC>MOL_PROPERTY
W
SciTegic.value.DoubleValue
-59.670

@<SCITEGIC>MOL_PROPERTY
W(PB)
SciTegic.value.DoubleValue
-62.157

@<SCITEGIC>MOL_PROPERTY
W(SA)
SciTegic.value.DoubleValue
2.487

@<SCITEGIC>MOL_PROPERTY
Valence
SciTegic.value.DoubleValue
7.785

@<SCITEGIC>MOL_PROPERTY
Coulomb
SciTegic.value.DoubleValue
-0.713

@<SCITEGIC>MOL_PROPERTY
VdW
SciTegic.value.DoubleValue
0.744

@<SCITEGIC>MOL_PROPERTY
VdW6
SciTegic.value.DoubleValue
-8.515

@<SCITEGIC>MOL_PROPERTY
VdW12
SciTegic.value.DoubleValue
9.259

@<SCITEGIC>MOL_PROPERTY
Bond
SciTegic.value.DoubleValue
0.136

@<SCITEGIC>MOL_PROPERTY
Angle
SciTegic.value.DoubleValue
2.433

@<SCITEGIC>MOL_PROPERTY
Pdih
SciTegic.value.DoubleValue
5.215

@<SCITEGIC>MOL_PROPERTY
Idih
SciTegic.value.DoubleValue
0.000

@<SCITEGIC>MOL_PROPERTY
Tether
SciTegic.value.DoubleValue
0.000

@<TRIPOS>MOLECULE
guest-8_confgen4.mol2 : confsearch ligand conformer 965
          25          24           1
SMALL
USER_CHARGES
 
@<TRIPOS>ATOM
       1    C1      18.181340   15.624472   22.682067 C.2        1 MOL1         0.6168
       2    O1      17.217762   15.668194   23.421429 O.co2      1 MOL1        -0.6703
       3    O2      18.110207   15.351161   21.499971 O.co2      1 MOL1        -0.6703
       4    C2      19.559495   15.909931   23.272310 C.3        1 MOL1        -0.1963
       5    H1      20.239078   15.130972   22.907126 H          1 MOL1         0.0750
       6    H2      19.504306   15.797766   24.361898 H          1 MOL1         0.0750
       7    C3      20.127694   17.305808   22.905783 C.3        1 MOL1        -0.1860
       8    H3      21.171812   17.353333   23.239496 H          1 MOL1         0.0752
       9    H4      20.138022   17.418661   21.812825 H          1 MOL1         0.0752
      10    C4      19.321001   18.461794   23.545231 C.3        1 MOL1        -0.1858
      11    H5      19.349652   18.373680   24.639851 H          1 MOL1         0.0752
      12    H6      18.265572   18.366217   23.255558 H          1 MOL1         0.0752
      13    C5      19.812968   19.867576   23.124875 C.3        1 MOL1        -0.1858
      14    H7      19.802034   19.948609   22.029479 H          1 MOL1         0.0752
      15    H8      19.090353   20.604135   23.498343 H          1 MOL1         0.0752
      16    C6      21.223583   20.215503   23.661479 C.3        1 MOL1        -0.1858
      17    H9      21.949349   19.484611   23.283412 H          1 MOL1         0.0752
      18    H10     21.235244   20.129366   24.756495 H          1 MOL1         0.0752
      19    C7      21.707266   21.625488   23.248587 C.3        1 MOL1        -0.1834
      20    H11     22.758471   21.737736   23.547942 H          1 MOL1         0.0752
      21    H12     21.685125   21.719797   22.154094 H          1 MOL1         0.0752
      22    C8      20.886881   22.767944   23.886320 C.3        1 MOL1        -0.2849
      23    H13     19.852532   22.772446   23.520935 H          1 MOL1         0.0764
      24    H14     20.866133   22.673876   24.979861 H          1 MOL1         0.0764
      25    H15     21.329488   23.741660   23.639580 H          1 MOL1         0.0764
@<TRIPOS>BOND
    1     1     2    1
    2     1     3    2
    3     1     4    1
    4     4     5    1
    5     4     6    1
    6     4     7    1
    7     7     8    1
    8     7     9    1
    9     7    10    1
   10    10    11    1
   11    10    12    1
   12    10    13    1
   13    13    14    1
   14    13    15    1
   15    13    16    1
   16    16    17    1
   17    16    18    1
   18    16    19    1
   19    19    20    1
   20    19    21    1
   21    19    22    1
   22    22    23    1
   23    22    24    1
   24    22    25    1
@<TRIPOS>SUBSTRUCTURE
       1 MOL1            1 RESIDUE      1      MOL     
@<SCITEGIC>MOL_PROPERTY
VConf Rank
SciTegic.value.IntegerValue
965

@<SCITEGIC>MOL_PROPERTY
Conf_Id
SciTegic.value.IntegerValue
101

@<SCITEGIC>MOL_PROPERTY
Delta U+W
SciTegic.value.DoubleValue
1.534

@<SCITEGIC>MOL_PROPERTY
U+W
SciTegic.value.DoubleValue
-50.095

@<SCITEGIC>MOL_PROPERTY
Grad RMS
SciTegic.value.DoubleValue
0.000000

@<SCITEGIC>MOL_PROPERTY
U
SciTegic.value.DoubleValue
9.416

@<SCITEGIC>MOL_PROPERTY
W
SciTegic.value.DoubleValue
-59.512

@<SCITEGIC>MOL_PROPERTY
W(PB)
SciTegic.value.DoubleValue
-61.988

@<SCITEGIC>MOL_PROPERTY
W(SA)
SciTegic.value.DoubleValue
2.476

@<SCITEGIC>MOL_PROPERTY
Valence
SciTegic.value.DoubleValue
8.939

@<SCITEGIC>MOL_PROPERTY
Coulomb
SciTegic.value.DoubleValue
-0.615

@<SCITEGIC>MOL_PROPERTY
VdW
SciTegic.value.DoubleValue
1.092

@<SCITEGIC>MOL_PROPERTY
VdW6
SciTegic.value.DoubleValue
-9.710

@<SCITEGIC>MOL_PROPERTY
VdW12
SciTegic.value.DoubleValue
10.802

@<SCITEGIC>MOL_PROPERTY
Bond
SciTegic.value.DoubleValue
0.216

@<SCITEGIC>MOL_PROPERTY
Angle
SciTegic.value.DoubleValue
2.979

@<SCITEGIC>MOL_PROPERTY
Pdih
SciTegic.value.DoubleValue
5.743

@<SCITEGIC>MOL_PROPERTY
Idih
SciTegic.value.DoubleValue
0.000

@<SCITEGIC>MOL_PROPERTY
Tether
SciTegic.value.DoubleValue
0.000

@<TRIPOS>MOLECULE
guest-8_confgen4.mol2 : confsearch ligand conformer 966
          25          24           1
SMALL
USER_CHARGES
 
@<TRIPOS>ATOM
       1    C1      21.225956   21.997646   20.368440 C.2        1 MOL1         0.6168
       2    O1      20.463251   22.939778   20.454489 O.co2      1 MOL1        -0.6703
       3    O2      22.320845   22.063696   19.845340 O.co2      1 MOL1        -0.6703
       4    C2      20.794880   20.664787   20.969961 C.3        1 MOL1        -0.1963
       5    H1      21.244623   19.861673   20.374077 H          1 MOL1         0.0750
       6    H2      19.708069   20.585101   20.856584 H          1 MOL1         0.0750
       7    C3      21.203447   20.519428   22.459088 C.3        1 MOL1        -0.1860
       8    H3      22.283412   20.702539   22.546114 H          1 MOL1         0.0752
       9    H4      20.708264   21.299156   23.054166 H          1 MOL1         0.0752
      10    C4      20.889045   19.126944   23.056457 C.3        1 MOL1        -0.1858
      11    H5      21.340240   19.077688   24.055700 H          1 MOL1         0.0752
      12    H6      21.377017   18.348550   22.454334 H          1 MOL1         0.0752
      13    C5      19.372815   18.831525   23.164502 C.3        1 MOL1        -0.1858
      14    H7      18.885242   19.608972   23.766885 H          1 MOL1         0.0752
      15    H8      18.917685   18.888539   22.167845 H          1 MOL1         0.0752
      16    C6      19.055498   17.431816   23.749721 C.3        1 MOL1        -0.1858
      17    H9      19.477716   16.665111   23.085965 H          1 MOL1         0.0752
      18    H10     17.967383   17.282491   23.730321 H          1 MOL1         0.0752
      19    C7      19.566003   17.179912   25.190343 C.3        1 MOL1        -0.1834
      20    H11     19.284285   16.160228   25.486865 H          1 MOL1         0.0752
      21    H12     20.663215   17.209066   25.215204 H          1 MOL1         0.0752
      22    C8      18.994636   18.173079   26.225282 C.3        1 MOL1        -0.2849
      23    H13     17.897204   18.178121   26.200881 H          1 MOL1         0.0764
      24    H14     19.309738   17.895153   27.239301 H          1 MOL1         0.0764
      25    H15     19.348832   19.194123   26.035295 H          1 MOL1         0.0764
@<TRIPOS>BOND
    1     1     2    1
    2     1     3    2
    3     1     4    1
    4     4     5    1
    5     4     6    1
    6     4     7    1
    7     7     8    1
    8     7     9    1
    9     7    10    1
   10    10    11    1
   11    10    12    1
   12    10    13    1
   13    13    14    1
   14    13    15    1
   15    13    16    1
   16    16    17    1
   17    16    18    1
   18    16    19    1
   19    19    20    1
   20    19    21    1
   21    19    22    1
   22    22    23    1
   23    22    24    1
   24    22    25    1
@<TRIPOS>SUBSTRUCTURE
       1 MOL1            1 RESIDUE      1      MOL     
@<SCITEGIC>MOL_PROPERTY
VConf Rank
SciTegic.value.IntegerValue
966

@<SCITEGIC>MOL_PROPERTY
Conf_Id
SciTegic.value.IntegerValue
75

@<SCITEGIC>MOL_PROPERTY
Delta U+W
SciTegic.value.DoubleValue
1.014

@<SCITEGIC>MOL_PROPERTY
U+W
SciTegic.value.DoubleValue
-50.615

@<SCITEGIC>MOL_PROPERTY
Grad RMS
SciTegic.value.DoubleValue
0.000000

@<SCITEGIC>MOL_PROPERTY
U
SciTegic.value.DoubleValue
8.474

@<SCITEGIC>MOL_PROPERTY
W
SciTegic.value.DoubleValue
-59.089

@<SCITEGIC>MOL_PROPERTY
W(PB)
SciTegic.value.DoubleValue
-61.530

@<SCITEGIC>MOL_PROPERTY
W(SA)
SciTegic.value.DoubleValue
2.441

@<SCITEGIC>MOL_PROPERTY
Valence
SciTegic.value.DoubleValue
9.080

@<SCITEGIC>MOL_PROPERTY
Coulomb
SciTegic.value.DoubleValue
-1.772

@<SCITEGIC>MOL_PROPERTY
VdW
SciTegic.value.DoubleValue
1.165

@<SCITEGIC>MOL_PROPERTY
VdW6
SciTegic.value.DoubleValue
-9.830

@<SCITEGIC>MOL_PROPERTY
VdW12
SciTegic.value.DoubleValue
10.996

@<SCITEGIC>MOL_PROPERTY
Bond
SciTegic.value.DoubleValue
0.240

@<SCITEGIC>MOL_PROPERTY
Angle
SciTegic.value.DoubleValue
3.225

@<SCITEGIC>MOL_PROPERTY
Pdih
SciTegic.value.DoubleValue
5.615

@<SCITEGIC>MOL_PROPERTY
Idih
SciTegic.value.DoubleValue
0.001

@<SCITEGIC>MOL_PROPERTY
Tether
SciTegic.value.DoubleValue
0.000

@<TRIPOS>MOLECULE
guest-8_confgen4.mol2 : confsearch ligand conformer 967
          25          24           1
SMALL
USER_CHARGES
 
@<TRIPOS>ATOM
       1    C1      23.602158   21.059139   24.718457 C.2        1 MOL1         0.6168
       2    O1      23.559157   22.232597   24.405727 O.co2      1 MOL1        -0.6703
       3    O2      24.228712   20.638654   25.670975 O.co2      1 MOL1        -0.6703
       4    C2      22.808703   20.061771   23.881937 C.3        1 MOL1        -0.1963
       5    H1      23.348615   19.107291   23.886898 H          1 MOL1         0.0750
       6    H2      22.794732   20.421150   22.845956 H          1 MOL1         0.0750
       7    C3      21.362367   19.860602   24.397423 C.3        1 MOL1        -0.1860
       8    H3      21.393295   19.513270   25.439488 H          1 MOL1         0.0752
       9    H4      20.839992   20.827379   24.398579 H          1 MOL1         0.0752
      10    C4      20.579654   18.848189   23.533403 C.3        1 MOL1        -0.1858
      11    H5      21.105608   17.883729   23.534799 H          1 MOL1         0.0752
      12    H6      20.562958   19.195684   22.493604 H          1 MOL1         0.0752
      13    C5      19.137783   18.646258   24.055867 C.3        1 MOL1        -0.1858
      14    H7      19.197128   18.268863   25.085900 H          1 MOL1         0.0752
      15    H8      18.612979   19.609677   24.112645 H          1 MOL1         0.0752
      16    C6      18.313468   17.641335   23.211439 C.3        1 MOL1        -0.1858
      17    H9      17.663314   17.075741   23.892815 H          1 MOL1         0.0752
      18    H10     18.977053   16.898827   22.747571 H          1 MOL1         0.0752
      19    C7      17.407654   18.290698   22.135924 C.3        1 MOL1        -0.1834
      20    H11     16.813270   17.500177   21.657430 H          1 MOL1         0.0752
      21    H12     16.688110   18.965756   22.619442 H          1 MOL1         0.0752
      22    C8      18.176687   19.060910   21.042428 C.3        1 MOL1        -0.2849
      23    H13     18.950130   18.429919   20.585701 H          1 MOL1         0.0764
      24    H14     17.492113   19.386081   20.248466 H          1 MOL1         0.0764
      25    H15     18.655539   19.958355   21.453426 H          1 MOL1         0.0764
@<TRIPOS>BOND
    1     1     2    1
    2     1     3    2
    3     1     4    1
    4     4     5    1
    5     4     6    1
    6     4     7    1
    7     7     8    1
    8     7     9    1
    9     7    10    1
   10    10    11    1
   11    10    12    1
   12    10    13    1
   13    13    14    1
   14    13    15    1
   15    13    16    1
   16    16    17    1
   17    16    18    1
   18    16    19    1
   19    19    20    1
   20    19    21    1
   21    19    22    1
   22    22    23    1
   23    22    24    1
   24    22    25    1
@<TRIPOS>SUBSTRUCTURE
       1 MOL1            1 RESIDUE      1      MOL     
@<SCITEGIC>MOL_PROPERTY
VConf Rank
SciTegic.value.IntegerValue
967

@<SCITEGIC>MOL_PROPERTY
Conf_Id
SciTegic.value.IntegerValue
125

@<SCITEGIC>MOL_PROPERTY
Delta U+W
SciTegic.value.DoubleValue
2.314

@<SCITEGIC>MOL_PROPERTY
U+W
SciTegic.value.DoubleValue
-49.315

@<SCITEGIC>MOL_PROPERTY
Grad RMS
SciTegic.value.DoubleValue
0.000000

@<SCITEGIC>MOL_PROPERTY
U
SciTegic.value.DoubleValue
9.740

@<SCITEGIC>MOL_PROPERTY
W
SciTegic.value.DoubleValue
-59.054

@<SCITEGIC>MOL_PROPERTY
W(PB)
SciTegic.value.DoubleValue
-61.488

@<SCITEGIC>MOL_PROPERTY
W(SA)
SciTegic.value.DoubleValue
2.433

@<SCITEGIC>MOL_PROPERTY
Valence
SciTegic.value.DoubleValue
10.506

@<SCITEGIC>MOL_PROPERTY
Coulomb
SciTegic.value.DoubleValue
-1.761

@<SCITEGIC>MOL_PROPERTY
VdW
SciTegic.value.DoubleValue
0.994

@<SCITEGIC>MOL_PROPERTY
VdW6
SciTegic.value.DoubleValue
-9.209

@<SCITEGIC>MOL_PROPERTY
VdW12
SciTegic.value.DoubleValue
10.203

@<SCITEGIC>MOL_PROPERTY
Bond
SciTegic.value.DoubleValue
0.193

@<SCITEGIC>MOL_PROPERTY
Angle
SciTegic.value.DoubleValue
2.979

@<SCITEGIC>MOL_PROPERTY
Pdih
SciTegic.value.DoubleValue
7.334

@<SCITEGIC>MOL_PROPERTY
Idih
SciTegic.value.DoubleValue
0.001

@<SCITEGIC>MOL_PROPERTY
Tether
SciTegic.value.DoubleValue
0.000

@<TRIPOS>MOLECULE
guest-8_confgen4.mol2 : confsearch ligand conformer 968
          25          24           1
SMALL
USER_CHARGES
 
@<TRIPOS>ATOM
       1    C1      16.190966   20.015203   24.096437 C.2        1 MOL1         0.6168
       2    O1      16.096395   19.993651   25.307752 O.co2      1 MOL1        -0.6703
       3    O2      15.239500   20.127515   23.348881 O.co2      1 MOL1        -0.6703
       4    C2      17.577408   19.869012   23.479652 C.3        1 MOL1        -0.1963
       5    H1      18.295187   20.343574   24.158108 H          1 MOL1         0.0750
       6    H2      17.593261   20.434920   22.540583 H          1 MOL1         0.0750
       7    C3      17.965142   18.389999   23.219987 C.3        1 MOL1        -0.1860
       8    H3      17.991479   17.844797   24.173606 H          1 MOL1         0.0752
       9    H4      17.176881   17.919842   22.615799 H          1 MOL1         0.0752
      10    C4      19.317087   18.224870   22.485731 C.3        1 MOL1        -0.1858
      11    H5      19.284170   18.762981   21.528483 H          1 MOL1         0.0752
      12    H6      19.452350   17.162546   22.240616 H          1 MOL1         0.0752
      13    C5      20.529972   18.709126   23.313742 C.3        1 MOL1        -0.1858
      14    H7      20.437770   19.784901   23.505663 H          1 MOL1         0.0752
      15    H8      20.532230   18.205857   24.290102 H          1 MOL1         0.0752
      16    C6      21.864997   18.428669   22.585555 C.3        1 MOL1        -0.1858
      17    H9      21.885202   18.968826   21.629150 H          1 MOL1         0.0752
      18    H10     21.921074   17.359338   22.340136 H          1 MOL1         0.0752
      19    C7      23.111697   18.806169   23.419252 C.3        1 MOL1        -0.1834
      20    H11     23.097501   18.263428   24.374520 H          1 MOL1         0.0752
      21    H12     24.009325   18.467670   22.883611 H          1 MOL1         0.0752
      22    C8      23.234100   20.322406   23.685012 C.3        1 MOL1        -0.2849
      23    H13     22.416175   20.685452   24.319742 H          1 MOL1         0.0764
      24    H14     24.177649   20.546940   24.199012 H          1 MOL1         0.0764
      25    H15     23.218435   20.888720   22.744719 H          1 MOL1         0.0764
@<TRIPOS>BOND
    1     1     2    1
    2     1     3    2
    3     1     4    1
    4     4     5    1
    5     4     6    1
    6     4     7    1
    7     7     8    1
    8     7     9    1
    9     7    10    1
   10    10    11    1
   11    10    12    1
   12    10    13    1
   13    13    14    1
   14    13    15    1
   15    13    16    1
   16    16    17    1
   17    16    18    1
   18    16    19    1
   19    19    20    1
   20    19    21    1
   21    19    22    1
   22    22    23    1
   23    22    24    1
   24    22    25    1
@<TRIPOS>SUBSTRUCTURE
       1 MOL1            1 RESIDUE      1      MOL     
@<SCITEGIC>MOL_PROPERTY
VConf Rank
SciTegic.value.IntegerValue
968

@<SCITEGIC>MOL_PROPERTY
Conf_Id
SciTegic.value.IntegerValue
4

@<SCITEGIC>MOL_PROPERTY
Delta U+W
SciTegic.value.DoubleValue
0.189

@<SCITEGIC>MOL_PROPERTY
U+W
SciTegic.value.DoubleValue
-51.441

@<SCITEGIC>MOL_PROPERTY
Grad RMS
SciTegic.value.DoubleValue
0.000000

@<SCITEGIC>MOL_PROPERTY
U
SciTegic.value.DoubleValue
7.701

@<SCITEGIC>MOL_PROPERTY
W
SciTegic.value.DoubleValue
-59.141

@<SCITEGIC>MOL_PROPERTY
W(PB)
SciTegic.value.DoubleValue
-61.609

@<SCITEGIC>MOL_PROPERTY
W(SA)
SciTegic.value.DoubleValue
2.467

@<SCITEGIC>MOL_PROPERTY
Valence
SciTegic.value.DoubleValue
8.550

@<SCITEGIC>MOL_PROPERTY
Coulomb
SciTegic.value.DoubleValue
-1.988

@<SCITEGIC>MOL_PROPERTY
VdW
SciTegic.value.DoubleValue
1.139

@<SCITEGIC>MOL_PROPERTY
VdW6
SciTegic.value.DoubleValue
-8.988

@<SCITEGIC>MOL_PROPERTY
VdW12
SciTegic.value.DoubleValue
10.127

@<SCITEGIC>MOL_PROPERTY
Bond
SciTegic.value.DoubleValue
0.191

@<SCITEGIC>MOL_PROPERTY
Angle
SciTegic.value.DoubleValue
2.738

@<SCITEGIC>MOL_PROPERTY
Pdih
SciTegic.value.DoubleValue
5.621

@<SCITEGIC>MOL_PROPERTY
Idih
SciTegic.value.DoubleValue
0.001

@<SCITEGIC>MOL_PROPERTY
Tether
SciTegic.value.DoubleValue
0.000

@<TRIPOS>MOLECULE
guest-8_confgen4.mol2 : confsearch ligand conformer 969
          25          24           1
SMALL
USER_CHARGES
 
@<TRIPOS>ATOM
       1    C1      21.584436   16.763138   26.182027 C.2        1 MOL1         0.6168
       2    O1      22.242049   15.935425   25.582751 O.co2      1 MOL1        -0.6703
       3    O2      21.569477   16.862672   27.393064 O.co2      1 MOL1        -0.6703
       4    C2      20.750195   17.746366   25.368808 C.3        1 MOL1        -0.1963
       5    H1      19.861561   18.005779   25.956507 H          1 MOL1         0.0750
       6    H2      20.404857   17.225076   24.468964 H          1 MOL1         0.0750
       7    C3      21.535261   19.029330   24.990769 C.3        1 MOL1        -0.1860
       8    H3      21.946523   19.473907   25.907645 H          1 MOL1         0.0752
       9    H4      22.396335   18.760960   24.363188 H          1 MOL1         0.0752
      10    C4      20.672843   20.091837   24.268640 C.3        1 MOL1        -0.1858
      11    H5      21.273762   21.003415   24.146848 H          1 MOL1         0.0752
      12    H6      19.818371   20.365246   24.902751 H          1 MOL1         0.0752
      13    C5      20.166075   19.633539   22.881433 C.3        1 MOL1        -0.1858
      14    H7      21.018329   19.313686   22.266681 H          1 MOL1         0.0752
      15    H8      19.509028   18.763487   22.999439 H          1 MOL1         0.0752
      16    C6      19.399758   20.762432   22.153725 C.3        1 MOL1        -0.1858
      17    H9      20.042349   21.651570   22.095803 H          1 MOL1         0.0752
      18    H10     18.519901   21.052418   22.744187 H          1 MOL1         0.0752
      19    C7      18.958790   20.382284   20.720947 C.3        1 MOL1        -0.1834
      20    H11     18.531673   21.271105   20.236390 H          1 MOL1         0.0752
      21    H12     19.837207   20.096661   20.125875 H          1 MOL1         0.0752
      22    C8      17.914016   19.245786   20.683416 C.3        1 MOL1        -0.2849
      23    H13     17.039297   19.495647   21.297863 H          1 MOL1         0.0764
      24    H14     17.567774   19.076654   19.655600 H          1 MOL1         0.0764
      25    H15     18.335193   18.301766   21.051009 H          1 MOL1         0.0764
@<TRIPOS>BOND
    1     1     2    1
    2     1     3    2
    3     1     4    1
    4     4     5    1
    5     4     6    1
    6     4     7    1
    7     7     8    1
    8     7     9    1
    9     7    10    1
   10    10    11    1
   11    10    12    1
   12    10    13    1
   13    13    14    1
   14    13    15    1
   15    13    16    1
   16    16    17    1
   17    16    18    1
   18    16    19    1
   19    19    20    1
   20    19    21    1
   21    19    22    1
   22    22    23    1
   23    22    24    1
   24    22    25    1
@<TRIPOS>SUBSTRUCTURE
       1 MOL1            1 RESIDUE      1      MOL     
@<SCITEGIC>MOL_PROPERTY
VConf Rank
SciTegic.value.IntegerValue
969

@<SCITEGIC>MOL_PROPERTY
Conf_Id
SciTegic.value.IntegerValue
17

@<SCITEGIC>MOL_PROPERTY
Delta U+W
SciTegic.value.DoubleValue
0.219

@<SCITEGIC>MOL_PROPERTY
U+W
SciTegic.value.DoubleValue
-51.411

@<SCITEGIC>MOL_PROPERTY
Grad RMS
SciTegic.value.DoubleValue
0.000000

@<SCITEGIC>MOL_PROPERTY
U
SciTegic.value.DoubleValue
7.701

@<SCITEGIC>MOL_PROPERTY
W
SciTegic.value.DoubleValue
-59.111

@<SCITEGIC>MOL_PROPERTY
W(PB)
SciTegic.value.DoubleValue
-61.599

@<SCITEGIC>MOL_PROPERTY
W(SA)
SciTegic.value.DoubleValue
2.488

@<SCITEGIC>MOL_PROPERTY
Valence
SciTegic.value.DoubleValue
8.550

@<SCITEGIC>MOL_PROPERTY
Coulomb
SciTegic.value.DoubleValue
-1.988

@<SCITEGIC>MOL_PROPERTY
VdW
SciTegic.value.DoubleValue
1.139

@<SCITEGIC>MOL_PROPERTY
VdW6
SciTegic.value.DoubleValue
-8.988

@<SCITEGIC>MOL_PROPERTY
VdW12
SciTegic.value.DoubleValue
10.127

@<SCITEGIC>MOL_PROPERTY
Bond
SciTegic.value.DoubleValue
0.191

@<SCITEGIC>MOL_PROPERTY
Angle
SciTegic.value.DoubleValue
2.738

@<SCITEGIC>MOL_PROPERTY
Pdih
SciTegic.value.DoubleValue
5.621

@<SCITEGIC>MOL_PROPERTY
Idih
SciTegic.value.DoubleValue
0.001

@<SCITEGIC>MOL_PROPERTY
Tether
SciTegic.value.DoubleValue
0.000

@<TRIPOS>MOLECULE
guest-8_confgen4.mol2 : confsearch ligand conformer 970
          25          24           1
SMALL
USER_CHARGES
 
@<TRIPOS>ATOM
       1    C1      19.867865   19.575409   27.177113 C.2        1 MOL1         0.6168
       2    O1      18.962288   20.307462   27.525092 O.co2      1 MOL1        -0.6703
       3    O2      21.042295   19.816684   27.376052 O.co2      1 MOL1        -0.6703
       4    C2      19.512017   18.271592   26.468336 C.3        1 MOL1        -0.1963
       5    H1      18.463507   18.031705   26.682470 H          1 MOL1         0.0750
       6    H2      20.117787   17.476782   26.919228 H          1 MOL1         0.0750
       7    C3      19.753772   18.301863   24.936821 C.3        1 MOL1        -0.1860
       8    H3      20.803547   18.562507   24.747866 H          1 MOL1         0.0752
       9    H4      19.598517   17.293143   24.531057 H          1 MOL1         0.0752
      10    C4      18.816444   19.295201   24.209189 C.3        1 MOL1        -0.1858
      11    H5      19.013813   20.318312   24.557919 H          1 MOL1         0.0752
      12    H6      17.776540   19.070657   24.483098 H          1 MOL1         0.0752
      13    C5      18.940729   19.243286   22.667898 C.3        1 MOL1        -0.1858
      14    H7      18.735116   18.223094   22.316073 H          1 MOL1         0.0752
      15    H8      18.160970   19.884406   22.234540 H          1 MOL1         0.0752
      16    C6      20.320105   19.707216   22.145286 C.3        1 MOL1        -0.1858
      17    H9      21.105116   19.031184   22.508146 H          1 MOL1         0.0752
      18    H10     20.546753   20.705549   22.543853 H          1 MOL1         0.0752
      19    C7      20.361856   19.746633   20.603064 C.3        1 MOL1        -0.1834
      20    H11     20.133709   18.749709   20.201131 H          1 MOL1         0.0752
      21    H12     19.585128   20.427523   20.228223 H          1 MOL1         0.0752
      22    C8      21.739103   20.205857   20.083422 C.3        1 MOL1        -0.2849
      23    H13     22.532142   19.523718   20.416825 H          1 MOL1         0.0764
      24    H14     21.750735   20.228436   18.985966 H          1 MOL1         0.0764
      25    H15     21.979346   21.214000   20.445793 H          1 MOL1         0.0764
@<TRIPOS>BOND
    1     1     2    1
    2     1     3    2
    3     1     4    1
    4     4     5    1
    5     4     6    1
    6     4     7    1
    7     7     8    1
    8     7     9    1
    9     7    10    1
   10    10    11    1
   11    10    12    1
   12    10    13    1
   13    13    14    1
   14    13    15    1
   15    13    16    1
   16    16    17    1
   17    16    18    1
   18    16    19    1
   19    19    20    1
   20    19    21    1
   21    19    22    1
   22    22    23    1
   23    22    24    1
   24    22    25    1
@<TRIPOS>SUBSTRUCTURE
       1 MOL1            1 RESIDUE      1      MOL     
@<SCITEGIC>MOL_PROPERTY
VConf Rank
SciTegic.value.IntegerValue
970

@<SCITEGIC>MOL_PROPERTY
Conf_Id
SciTegic.value.IntegerValue
142

@<SCITEGIC>MOL_PROPERTY
Delta U+W
SciTegic.value.DoubleValue
0.593

@<SCITEGIC>MOL_PROPERTY
U+W
SciTegic.value.DoubleValue
-51.037

@<SCITEGIC>MOL_PROPERTY
Grad RMS
SciTegic.value.DoubleValue
0.000000

@<SCITEGIC>MOL_PROPERTY
U
SciTegic.value.DoubleValue
8.903

@<SCITEGIC>MOL_PROPERTY
W
SciTegic.value.DoubleValue
-59.940

@<SCITEGIC>MOL_PROPERTY
W(PB)
SciTegic.value.DoubleValue
-62.418

@<SCITEGIC>MOL_PROPERTY
W(SA)
SciTegic.value.DoubleValue
2.478

@<SCITEGIC>MOL_PROPERTY
Valence
SciTegic.value.DoubleValue
8.305

@<SCITEGIC>MOL_PROPERTY
Coulomb
SciTegic.value.DoubleValue
-0.223

@<SCITEGIC>MOL_PROPERTY
VdW
SciTegic.value.DoubleValue
0.821

@<SCITEGIC>MOL_PROPERTY
VdW6
SciTegic.value.DoubleValue
-9.236

@<SCITEGIC>MOL_PROPERTY
VdW12
SciTegic.value.DoubleValue
10.057

@<SCITEGIC>MOL_PROPERTY
Bond
SciTegic.value.DoubleValue
0.173

@<SCITEGIC>MOL_PROPERTY
Angle
SciTegic.value.DoubleValue
2.663

@<SCITEGIC>MOL_PROPERTY
Pdih
SciTegic.value.DoubleValue
5.469

@<SCITEGIC>MOL_PROPERTY
Idih
SciTegic.value.DoubleValue
0.001

@<SCITEGIC>MOL_PROPERTY
Tether
SciTegic.value.DoubleValue
0.000

@<TRIPOS>MOLECULE
guest-8_confgen4.mol2 : confsearch ligand conformer 971
          25          24           1
SMALL
USER_CHARGES
 
@<TRIPOS>ATOM
       1    C1      19.796159   18.218057   26.773655 C.2        1 MOL1         0.6168
       2    O1      20.178168   18.541040   27.881495 O.co2      1 MOL1        -0.6703
       3    O2      18.642105   17.937126   26.516177 O.co2      1 MOL1        -0.6703
       4    C2      20.829149   18.134958   25.653403 C.3        1 MOL1        -0.1963
       5    H1      20.395513   17.575965   24.816274 H          1 MOL1         0.0750
       6    H2      21.667380   17.535107   26.026317 H          1 MOL1         0.0750
       7    C3      21.357066   19.514753   25.174235 C.3        1 MOL1        -0.1860
       8    H3      21.845244   20.017828   26.020270 H          1 MOL1         0.0752
       9    H4      22.142270   19.360474   24.422902 H          1 MOL1         0.0752
      10    C4      20.264800   20.455120   24.602128 C.3        1 MOL1        -0.1858
      11    H5      20.736178   21.400064   24.299671 H          1 MOL1         0.0752
      12    H6      19.559591   20.713366   25.404047 H          1 MOL1         0.0752
      13    C5      19.464305   19.887526   23.403223 C.3        1 MOL1        -0.1858
      14    H7      18.895744   19.002633   23.719227 H          1 MOL1         0.0752
      15    H8      18.717947   20.635003   23.101960 H          1 MOL1         0.0752
      16    C6      20.345434   19.536643   22.182093 C.3        1 MOL1        -0.1858
      17    H9      21.049868   18.737611   22.447469 H          1 MOL1         0.0752
      18    H10     20.944446   20.412448   21.897797 H          1 MOL1         0.0752
      19    C7      19.495391   19.079750   20.977887 C.3        1 MOL1        -0.1834
      20    H11     18.893320   18.205207   21.261014 H          1 MOL1         0.0752
      21    H12     18.791061   19.875307   20.697920 H          1 MOL1         0.0752
      22    C8      20.375875   18.724383   19.762916 C.3        1 MOL1        -0.2849
      23    H13     21.068907   17.908152   20.005485 H          1 MOL1         0.0764
      24    H14     19.755529   18.402047   18.916567 H          1 MOL1         0.0764
      25    H15     20.966893   19.591195   19.439360 H          1 MOL1         0.0764
@<TRIPOS>BOND
    1     1     2    1
    2     1     3    2
    3     1     4    1
    4     4     5    1
    5     4     6    1
    6     4     7    1
    7     7     8    1
    8     7     9    1
    9     7    10    1
   10    10    11    1
   11    10    12    1
   12    10    13    1
   13    13    14    1
   14    13    15    1
   15    13    16    1
   16    16    17    1
   17    16    18    1
   18    16    19    1
   19    19    20    1
   20    19    21    1
   21    19    22    1
   22    22    23    1
   23    22    24    1
   24    22    25    1
@<TRIPOS>SUBSTRUCTURE
       1 MOL1            1 RESIDUE      1      MOL     
@<SCITEGIC>MOL_PROPERTY
VConf Rank
SciTegic.value.IntegerValue
971

@<SCITEGIC>MOL_PROPERTY
Conf_Id
SciTegic.value.IntegerValue
135

@<SCITEGIC>MOL_PROPERTY
Delta U+W
SciTegic.value.DoubleValue
1.314

@<SCITEGIC>MOL_PROPERTY
U+W
SciTegic.value.DoubleValue
-50.316

@<SCITEGIC>MOL_PROPERTY
Grad RMS
SciTegic.value.DoubleValue
0.000000

@<SCITEGIC>MOL_PROPERTY
U
SciTegic.value.DoubleValue
9.773

@<SCITEGIC>MOL_PROPERTY
W
SciTegic.value.DoubleValue
-60.088

@<SCITEGIC>MOL_PROPERTY
W(PB)
SciTegic.value.DoubleValue
-62.535

@<SCITEGIC>MOL_PROPERTY
W(SA)
SciTegic.value.DoubleValue
2.447

@<SCITEGIC>MOL_PROPERTY
Valence
SciTegic.value.DoubleValue
8.741

@<SCITEGIC>MOL_PROPERTY
Coulomb
SciTegic.value.DoubleValue
0.479

@<SCITEGIC>MOL_PROPERTY
VdW
SciTegic.value.DoubleValue
0.552

@<SCITEGIC>MOL_PROPERTY
VdW6
SciTegic.value.DoubleValue
-10.627

@<SCITEGIC>MOL_PROPERTY
VdW12
SciTegic.value.DoubleValue
11.179

@<SCITEGIC>MOL_PROPERTY
Bond
SciTegic.value.DoubleValue
0.227

@<SCITEGIC>MOL_PROPERTY
Angle
SciTegic.value.DoubleValue
3.155

@<SCITEGIC>MOL_PROPERTY
Pdih
SciTegic.value.DoubleValue
5.358

@<SCITEGIC>MOL_PROPERTY
Idih
SciTegic.value.DoubleValue
0.001

@<SCITEGIC>MOL_PROPERTY
Tether
SciTegic.value.DoubleValue
0.000

@<TRIPOS>MOLECULE
guest-8_confgen4.mol2 : confsearch ligand conformer 972
          25          24           1
SMALL
USER_CHARGES
 
@<TRIPOS>ATOM
       1    C1      16.815010   16.561568   23.497173 C.2        1 MOL1         0.6168
       2    O1      15.871646   17.013617   24.115603 O.co2      1 MOL1        -0.6703
       3    O2      16.725704   15.635532   22.715347 O.co2      1 MOL1        -0.6703
       4    C2      18.182034   17.206483   23.695954 C.3        1 MOL1        -0.1963
       5    H1      18.945794   16.430444   23.566409 H          1 MOL1         0.0750
       6    H2      18.239443   17.549503   24.734806 H          1 MOL1         0.0750
       7    C3      18.439363   18.379585   22.714404 C.3        1 MOL1        -0.1860
       8    H3      18.277128   18.019763   21.688902 H          1 MOL1         0.0752
       9    H4      17.698016   19.172373   22.885202 H          1 MOL1         0.0752
      10    C4      19.867434   18.968120   22.810174 C.3        1 MOL1        -0.1858
      11    H5      19.996528   19.674333   21.980361 H          1 MOL1         0.0752
      12    H6      20.607091   18.169270   22.664143 H          1 MOL1         0.0752
      13    C5      20.143562   19.702701   24.143818 C.3        1 MOL1        -0.1858
      14    H7      19.437063   20.536631   24.253425 H          1 MOL1         0.0752
      15    H8      19.951574   19.023559   24.983688 H          1 MOL1         0.0752
      16    C6      21.592242   20.233726   24.288063 C.3        1 MOL1        -0.1858
      17    H9      22.302907   19.396074   24.273899 H          1 MOL1         0.0752
      18    H10     21.681144   20.682555   25.286824 H          1 MOL1         0.0752
      19    C7      22.000263   21.301539   23.242359 C.3        1 MOL1        -0.1834
      20    H11     21.113404   21.840505   22.881483 H          1 MOL1         0.0752
      21    H12     22.633704   22.052137   23.734960 H          1 MOL1         0.0752
      22    C8      22.792366   20.715003   22.052480 C.3        1 MOL1        -0.2849
      23    H13     22.212464   19.961131   21.507952 H          1 MOL1         0.0764
      24    H14     23.062552   21.507638   21.342877 H          1 MOL1         0.0764
      25    H15     23.721279   20.242587   22.397482 H          1 MOL1         0.0764
@<TRIPOS>BOND
    1     1     2    1
    2     1     3    2
    3     1     4    1
    4     4     5    1
    5     4     6    1
    6     4     7    1
    7     7     8    1
    8     7     9    1
    9     7    10    1
   10    10    11    1
   11    10    12    1
   12    10    13    1
   13    13    14    1
   14    13    15    1
   15    13    16    1
   16    16    17    1
   17    16    18    1
   18    16    19    1
   19    19    20    1
   20    19    21    1
   21    19    22    1
   22    22    23    1
   23    22    24    1
   24    22    25    1
@<TRIPOS>SUBSTRUCTURE
       1 MOL1            1 RESIDUE      1      MOL     
@<SCITEGIC>MOL_PROPERTY
VConf Rank
SciTegic.value.IntegerValue
972

@<SCITEGIC>MOL_PROPERTY
Conf_Id
SciTegic.value.IntegerValue
19

@<SCITEGIC>MOL_PROPERTY
Delta U+W
SciTegic.value.DoubleValue
3.222

@<SCITEGIC>MOL_PROPERTY
U+W
SciTegic.value.DoubleValue
-48.407

@<SCITEGIC>MOL_PROPERTY
Grad RMS
SciTegic.value.DoubleValue
0.000000

@<SCITEGIC>MOL_PROPERTY
U
SciTegic.value.DoubleValue
10.617

@<SCITEGIC>MOL_PROPERTY
W
SciTegic.value.DoubleValue
-59.025

@<SCITEGIC>MOL_PROPERTY
W(PB)
SciTegic.value.DoubleValue
-61.462

@<SCITEGIC>MOL_PROPERTY
W(SA)
SciTegic.value.DoubleValue
2.437

@<SCITEGIC>MOL_PROPERTY
Valence
SciTegic.value.DoubleValue
11.188

@<SCITEGIC>MOL_PROPERTY
Coulomb
SciTegic.value.DoubleValue
-1.778

@<SCITEGIC>MOL_PROPERTY
VdW
SciTegic.value.DoubleValue
1.208

@<SCITEGIC>MOL_PROPERTY
VdW6
SciTegic.value.DoubleValue
-9.786

@<SCITEGIC>MOL_PROPERTY
VdW12
SciTegic.value.DoubleValue
10.993

@<SCITEGIC>MOL_PROPERTY
Bond
SciTegic.value.DoubleValue
0.241

@<SCITEGIC>MOL_PROPERTY
Angle
SciTegic.value.DoubleValue
3.294

@<SCITEGIC>MOL_PROPERTY
Pdih
SciTegic.value.DoubleValue
7.653

@<SCITEGIC>MOL_PROPERTY
Idih
SciTegic.value.DoubleValue
0.001

@<SCITEGIC>MOL_PROPERTY
Tether
SciTegic.value.DoubleValue
0.000

@<TRIPOS>MOLECULE
guest-8_confgen4.mol2 : confsearch ligand conformer 973
          25          24           1
SMALL
USER_CHARGES
 
@<TRIPOS>ATOM
       1    C1      21.154034   16.000067   25.790249 C.2        1 MOL1         0.6168
       2    O1      20.764428   14.918535   25.396247 O.co2      1 MOL1        -0.6703
       3    O2      21.475624   16.221174   26.941101 O.co2      1 MOL1        -0.6703
       4    C2      21.220965   17.149250   24.790709 C.3        1 MOL1        -0.1963
       5    H1      21.478273   16.725161   23.813922 H          1 MOL1         0.0750
       6    H2      22.045067   17.809265   25.086654 H          1 MOL1         0.0750
       7    C3      19.895713   17.951165   24.710268 C.3        1 MOL1        -0.1860
       8    H3      19.086454   17.292120   24.366694 H          1 MOL1         0.0752
       9    H4      19.621278   18.276058   25.723469 H          1 MOL1         0.0752
      10    C4      19.978585   19.198581   23.798116 C.3        1 MOL1        -0.1858
      11    H5      20.804244   19.843601   24.127990 H          1 MOL1         0.0752
      12    H6      19.054336   19.774755   23.931445 H          1 MOL1         0.0752
      13    C5      20.146180   18.855949   22.298456 C.3        1 MOL1        -0.1858
      14    H7      21.031625   18.222561   22.163245 H          1 MOL1         0.0752
      15    H8      19.286434   18.260466   21.962548 H          1 MOL1         0.0752
      16    C6      20.305886   20.092812   21.378598 C.3        1 MOL1        -0.1858
      17    H9      20.470340   19.724849   20.356625 H          1 MOL1         0.0752
      18    H10     21.216983   20.645257   21.646203 H          1 MOL1         0.0752
      19    C7      19.086234   21.047872   21.355972 C.3        1 MOL1        -0.1834
      20    H11     18.954129   21.425421   20.332591 H          1 MOL1         0.0752
      21    H12     18.166576   20.498042   21.599178 H          1 MOL1         0.0752
      22    C8      19.248891   22.263245   22.296012 C.3        1 MOL1        -0.2849
      23    H13     20.122572   22.863191   22.009957 H          1 MOL1         0.0764
      24    H14     18.364689   22.911406   22.242323 H          1 MOL1         0.0764
      25    H15     19.377105   21.957170   23.340520 H          1 MOL1         0.0764
@<TRIPOS>BOND
    1     1     2    1
    2     1     3    2
    3     1     4    1
    4     4     5    1
    5     4     6    1
    6     4     7    1
    7     7     8    1
    8     7     9    1
    9     7    10    1
   10    10    11    1
   11    10    12    1
   12    10    13    1
   13    13    14    1
   14    13    15    1
   15    13    16    1
   16    16    17    1
   17    16    18    1
   18    16    19    1
   19    19    20    1
   20    19    21    1
   21    19    22    1
   22    22    23    1
   23    22    24    1
   24    22    25    1
@<TRIPOS>SUBSTRUCTURE
       1 MOL1            1 RESIDUE      1      MOL     
@<SCITEGIC>MOL_PROPERTY
VConf Rank
SciTegic.value.IntegerValue
973

@<SCITEGIC>MOL_PROPERTY
Conf_Id
SciTegic.value.IntegerValue
20

@<SCITEGIC>MOL_PROPERTY
Delta U+W
SciTegic.value.DoubleValue
3.224

@<SCITEGIC>MOL_PROPERTY
U+W
SciTegic.value.DoubleValue
-48.406

@<SCITEGIC>MOL_PROPERTY
Grad RMS
SciTegic.value.DoubleValue
0.000000

@<SCITEGIC>MOL_PROPERTY
U
SciTegic.value.DoubleValue
10.617

@<SCITEGIC>MOL_PROPERTY
W
SciTegic.value.DoubleValue
-59.023

@<SCITEGIC>MOL_PROPERTY
W(PB)
SciTegic.value.DoubleValue
-61.467

@<SCITEGIC>MOL_PROPERTY
W(SA)
SciTegic.value.DoubleValue
2.444

@<SCITEGIC>MOL_PROPERTY
Valence
SciTegic.value.DoubleValue
11.188

@<SCITEGIC>MOL_PROPERTY
Coulomb
SciTegic.value.DoubleValue
-1.778

@<SCITEGIC>MOL_PROPERTY
VdW
SciTegic.value.DoubleValue
1.208

@<SCITEGIC>MOL_PROPERTY
VdW6
SciTegic.value.DoubleValue
-9.786

@<SCITEGIC>MOL_PROPERTY
VdW12
SciTegic.value.DoubleValue
10.993

@<SCITEGIC>MOL_PROPERTY
Bond
SciTegic.value.DoubleValue
0.241

@<SCITEGIC>MOL_PROPERTY
Angle
SciTegic.value.DoubleValue
3.294

@<SCITEGIC>MOL_PROPERTY
Pdih
SciTegic.value.DoubleValue
7.653

@<SCITEGIC>MOL_PROPERTY
Idih
SciTegic.value.DoubleValue
0.001

@<SCITEGIC>MOL_PROPERTY
Tether
SciTegic.value.DoubleValue
0.000

@<TRIPOS>MOLECULE
guest-8_confgen4.mol2 : confsearch ligand conformer 974
          25          24           1
SMALL
USER_CHARGES
 
@<TRIPOS>ATOM
       1    C1      21.097492   21.548639   21.670350 C.2        1 MOL1         0.6168
       2    O1      21.699131   20.969112   20.787273 O.co2      1 MOL1        -0.6703
       3    O2      21.643800   22.078245   22.618128 O.co2      1 MOL1        -0.6703
       4    C2      19.580018   21.676429   21.550633 C.3        1 MOL1        -0.1963
       5    H1      19.391070   22.267872   20.647327 H          1 MOL1         0.0750
       6    H2      19.204087   22.265601   22.395820 H          1 MOL1         0.0750
       7    C3      18.807256   20.331476   21.445523 C.3        1 MOL1        -0.1860
       8    H3      17.822501   20.539728   21.005845 H          1 MOL1         0.0752
       9    H4      19.317104   19.660720   20.740019 H          1 MOL1         0.0752
      10    C4      18.577425   19.607076   22.795156 C.3        1 MOL1        -0.1858
      11    H5      17.899210   18.761142   22.617952 H          1 MOL1         0.0752
      12    H6      18.057213   20.278896   23.491483 H          1 MOL1         0.0752
      13    C5      19.870948   19.076713   23.454050 C.3        1 MOL1        -0.1858
      14    H7      20.443504   18.489699   22.722859 H          1 MOL1         0.0752
      15    H8      20.505869   19.918058   23.759037 H          1 MOL1         0.0752
      16    C6      19.565696   18.205685   24.692073 C.3        1 MOL1        -0.1858
      17    H9      18.936826   17.354498   24.397167 H          1 MOL1         0.0752
      18    H10     18.989025   18.792804   25.419929 H          1 MOL1         0.0752
      19    C7      20.857042   17.684996   25.357418 C.3        1 MOL1        -0.1834
      20    H11     21.435864   17.096536   24.632065 H          1 MOL1         0.0752
      21    H12     21.488072   18.533895   25.655372 H          1 MOL1         0.0752
      22    C8      20.549188   16.816120   26.593520 C.3        1 MOL1        -0.2849
      23    H13     19.944867   15.941779   26.318392 H          1 MOL1         0.0764
      24    H14     21.478127   16.454875   27.053560 H          1 MOL1         0.0764
      25    H15     19.997477   17.390128   27.349498 H          1 MOL1         0.0764
@<TRIPOS>BOND
    1     1     2    1
    2     1     3    2
    3     1     4    1
    4     4     5    1
    5     4     6    1
    6     4     7    1
    7     7     8    1
    8     7     9    1
    9     7    10    1
   10    10    11    1
   11    10    12    1
   12    10    13    1
   13    13    14    1
   14    13    15    1
   15    13    16    1
   16    16    17    1
   17    16    18    1
   18    16    19    1
   19    19    20    1
   20    19    21    1
   21    19    22    1
   22    22    23    1
   23    22    24    1
   24    22    25    1
@<TRIPOS>SUBSTRUCTURE
       1 MOL1            1 RESIDUE      1      MOL     
@<SCITEGIC>MOL_PROPERTY
VConf Rank
SciTegic.value.IntegerValue
974

@<SCITEGIC>MOL_PROPERTY
Conf_Id
SciTegic.value.IntegerValue
24

@<SCITEGIC>MOL_PROPERTY
Delta U+W
SciTegic.value.DoubleValue
1.784

@<SCITEGIC>MOL_PROPERTY
U+W
SciTegic.value.DoubleValue
-49.846

@<SCITEGIC>MOL_PROPERTY
Grad RMS
SciTegic.value.DoubleValue
0.000000

@<SCITEGIC>MOL_PROPERTY
U
SciTegic.value.DoubleValue
10.904

@<SCITEGIC>MOL_PROPERTY
W
SciTegic.value.DoubleValue
-60.749

@<SCITEGIC>MOL_PROPERTY
W(PB)
SciTegic.value.DoubleValue
-63.220

@<SCITEGIC>MOL_PROPERTY
W(SA)
SciTegic.value.DoubleValue
2.471

@<SCITEGIC>MOL_PROPERTY
Valence
SciTegic.value.DoubleValue
9.445

@<SCITEGIC>MOL_PROPERTY
Coulomb
SciTegic.value.DoubleValue
0.780

@<SCITEGIC>MOL_PROPERTY
VdW
SciTegic.value.DoubleValue
0.679

@<SCITEGIC>MOL_PROPERTY
VdW6
SciTegic.value.DoubleValue
-10.008

@<SCITEGIC>MOL_PROPERTY
VdW12
SciTegic.value.DoubleValue
10.687

@<SCITEGIC>MOL_PROPERTY
Bond
SciTegic.value.DoubleValue
0.201

@<SCITEGIC>MOL_PROPERTY
Angle
SciTegic.value.DoubleValue
3.198

@<SCITEGIC>MOL_PROPERTY
Pdih
SciTegic.value.DoubleValue
6.039

@<SCITEGIC>MOL_PROPERTY
Idih
SciTegic.value.DoubleValue
0.006

@<SCITEGIC>MOL_PROPERTY
Tether
SciTegic.value.DoubleValue
0.000

@<TRIPOS>MOLECULE
guest-8_confgen4.mol2 : confsearch ligand conformer 975
          25          24           1
SMALL
USER_CHARGES
 
@<TRIPOS>ATOM
       1    C1      23.120066   19.811899   22.694367 C.2        1 MOL1         0.6168
       2    O1      23.033320   20.915156   22.191434 O.co2      1 MOL1        -0.6703
       3    O2      23.530627   19.619331   23.822008 O.co2      1 MOL1        -0.6703
       4    C2      22.757526   18.596501   21.843036 C.3        1 MOL1        -0.1963
       5    H1      22.939127   17.685690   22.426329 H          1 MOL1         0.0750
       6    H2      23.468427   18.581683   21.008849 H          1 MOL1         0.0750
       7    C3      21.310457   18.592565   21.274637 C.3        1 MOL1        -0.1860
       8    H3      21.062962   19.585224   20.873428 H          1 MOL1         0.0752
       9    H4      21.284601   17.905798   20.417834 H          1 MOL1         0.0752
      10    C4      20.220196   18.137889   22.276479 C.3        1 MOL1        -0.1858
      11    H5      20.467440   17.140283   22.664407 H          1 MOL1         0.0752
      12    H6      19.274901   18.029727   21.727206 H          1 MOL1         0.0752
      13    C5      20.000814   19.113506   23.454897 C.3        1 MOL1        -0.1858
      14    H7      20.893448   19.134256   24.092690 H          1 MOL1         0.0752
      15    H8      19.857151   20.131998   23.068785 H          1 MOL1         0.0752
      16    C6      18.782283   18.708408   24.312596 C.3        1 MOL1        -0.1858
      17    H9      18.925520   17.687998   24.693749 H          1 MOL1         0.0752
      18    H10     17.880113   18.692375   23.685860 H          1 MOL1         0.0752
      19    C7      18.569231   19.675396   25.496199 C.3        1 MOL1        -0.1834
      20    H11     19.469215   19.692737   26.126542 H          1 MOL1         0.0752
      21    H12     18.424945   20.697039   25.118197 H          1 MOL1         0.0752
      22    C8      17.352193   19.268224   26.351007 C.3        1 MOL1        -0.2849
      23    H13     17.484383   18.261235   26.767986 H          1 MOL1         0.0764
      24    H14     17.215932   19.966138   27.187317 H          1 MOL1         0.0764
      25    H15     16.432131   19.273245   25.751980 H          1 MOL1         0.0764
@<TRIPOS>BOND
    1     1     2    1
    2     1     3    2
    3     1     4    1
    4     4     5    1
    5     4     6    1
    6     4     7    1
    7     7     8    1
    8     7     9    1
    9     7    10    1
   10    10    11    1
   11    10    12    1
   12    10    13    1
   13    13    14    1
   14    13    15    1
   15    13    16    1
   16    16    17    1
   17    16    18    1
   18    16    19    1
   19    19    20    1
   20    19    21    1
   21    19    22    1
   22    22    23    1
   23    22    24    1
   24    22    25    1
@<TRIPOS>SUBSTRUCTURE
       1 MOL1            1 RESIDUE      1      MOL     
@<SCITEGIC>MOL_PROPERTY
VConf Rank
SciTegic.value.IntegerValue
975

@<SCITEGIC>MOL_PROPERTY
Conf_Id
SciTegic.value.IntegerValue
9

@<SCITEGIC>MOL_PROPERTY
Delta U+W
SciTegic.value.DoubleValue
1.764

@<SCITEGIC>MOL_PROPERTY
U+W
SciTegic.value.DoubleValue
-49.865

@<SCITEGIC>MOL_PROPERTY
Grad RMS
SciTegic.value.DoubleValue
0.000000

@<SCITEGIC>MOL_PROPERTY
U
SciTegic.value.DoubleValue
10.902

@<SCITEGIC>MOL_PROPERTY
W
SciTegic.value.DoubleValue
-60.768

@<SCITEGIC>MOL_PROPERTY
W(PB)
SciTegic.value.DoubleValue
-63.223

@<SCITEGIC>MOL_PROPERTY
W(SA)
SciTegic.value.DoubleValue
2.456

@<SCITEGIC>MOL_PROPERTY
Valence
SciTegic.value.DoubleValue
9.445

@<SCITEGIC>MOL_PROPERTY
Coulomb
SciTegic.value.DoubleValue
0.778

@<SCITEGIC>MOL_PROPERTY
VdW
SciTegic.value.DoubleValue
0.679

@<SCITEGIC>MOL_PROPERTY
VdW6
SciTegic.value.DoubleValue
-10.007

@<SCITEGIC>MOL_PROPERTY
VdW12
SciTegic.value.DoubleValue
10.687

@<SCITEGIC>MOL_PROPERTY
Bond
SciTegic.value.DoubleValue
0.201

@<SCITEGIC>MOL_PROPERTY
Angle
SciTegic.value.DoubleValue
3.198

@<SCITEGIC>MOL_PROPERTY
Pdih
SciTegic.value.DoubleValue
6.040

@<SCITEGIC>MOL_PROPERTY
Idih
SciTegic.value.DoubleValue
0.006

@<SCITEGIC>MOL_PROPERTY
Tether
SciTegic.value.DoubleValue
0.000

@<TRIPOS>MOLECULE
guest-8_confgen4.mol2 : confsearch ligand conformer 976
          25          24           1
SMALL
USER_CHARGES
 
@<TRIPOS>ATOM
       1    C1      22.270947   21.050136   25.613127 C.2        1 MOL1         0.6168
       2    O1      23.223511   20.383312   25.260181 O.co2      1 MOL1        -0.6703
       3    O2      22.371102   22.108445   26.202022 O.co2      1 MOL1        -0.6703
       4    C2      20.872944   20.541273   25.280919 C.3        1 MOL1        -0.1963
       5    H1      20.198063   20.858437   26.084784 H          1 MOL1         0.0750
       6    H2      20.901417   19.447549   25.301426 H          1 MOL1         0.0750
       7    C3      20.354245   21.062459   23.914550 C.3        1 MOL1        -0.1860
       8    H3      20.340715   22.160455   23.955283 H          1 MOL1         0.0752
       9    H4      21.059322   20.795274   23.115242 H          1 MOL1         0.0752
      10    C4      18.929964   20.562529   23.562721 C.3        1 MOL1        -0.1858
      11    H5      18.409783   21.366132   23.023693 H          1 MOL1         0.0752
      12    H6      18.348040   20.392878   24.478921 H          1 MOL1         0.0752
      13    C5      18.891302   19.300228   22.665022 C.3        1 MOL1        -0.1858
      14    H7      17.843444   19.088745   22.412397 H          1 MOL1         0.0752
      15    H8      19.399752   19.519456   21.716948 H          1 MOL1         0.0752
      16    C6      19.515197   18.041190   23.312130 C.3        1 MOL1        -0.1858
      17    H9      19.109544   17.919278   24.325531 H          1 MOL1         0.0752
      18    H10     20.599634   18.176365   23.416875 H          1 MOL1         0.0752
      19    C7      19.244489   16.744935   22.513399 C.3        1 MOL1        -0.1834
      20    H11     19.631814   15.890567   23.085413 H          1 MOL1         0.0752
      21    H12     18.161358   16.587859   22.416506 H          1 MOL1         0.0752
      22    C8      19.896489   16.744303   21.113677 C.3        1 MOL1        -0.2849
      23    H13     20.977033   16.924991   21.183811 H          1 MOL1         0.0764
      24    H14     19.746890   15.775115   20.620579 H          1 MOL1         0.0764
      25    H15     19.459354   17.516699   20.468550 H          1 MOL1         0.0764
@<TRIPOS>BOND
    1     1     2    1
    2     1     3    2
    3     1     4    1
    4     4     5    1
    5     4     6    1
    6     4     7    1
    7     7     8    1
    8     7     9    1
    9     7    10    1
   10    10    11    1
   11    10    12    1
   12    10    13    1
   13    13    14    1
   14    13    15    1
   15    13    16    1
   16    16    17    1
   17    16    18    1
   18    16    19    1
   19    19    20    1
   20    19    21    1
   21    19    22    1
   22    22    23    1
   23    22    24    1
   24    22    25    1
@<TRIPOS>SUBSTRUCTURE
       1 MOL1            1 RESIDUE      1      MOL     
@<SCITEGIC>MOL_PROPERTY
VConf Rank
SciTegic.value.IntegerValue
976

@<SCITEGIC>MOL_PROPERTY
Conf_Id
SciTegic.value.IntegerValue
89

@<SCITEGIC>MOL_PROPERTY
Delta U+W
SciTegic.value.DoubleValue
2.903

@<SCITEGIC>MOL_PROPERTY
U+W
SciTegic.value.DoubleValue
-48.726

@<SCITEGIC>MOL_PROPERTY
Grad RMS
SciTegic.value.DoubleValue
0.000000

@<SCITEGIC>MOL_PROPERTY
U
SciTegic.value.DoubleValue
10.996

@<SCITEGIC>MOL_PROPERTY
W
SciTegic.value.DoubleValue
-59.723

@<SCITEGIC>MOL_PROPERTY
W(PB)
SciTegic.value.DoubleValue
-62.151

@<SCITEGIC>MOL_PROPERTY
W(SA)
SciTegic.value.DoubleValue
2.428

@<SCITEGIC>MOL_PROPERTY
Valence
SciTegic.value.DoubleValue
10.985

@<SCITEGIC>MOL_PROPERTY
Coulomb
SciTegic.value.DoubleValue
-0.995

@<SCITEGIC>MOL_PROPERTY
VdW
SciTegic.value.DoubleValue
1.006

@<SCITEGIC>MOL_PROPERTY
VdW6
SciTegic.value.DoubleValue
-10.062

@<SCITEGIC>MOL_PROPERTY
VdW12
SciTegic.value.DoubleValue
11.069

@<SCITEGIC>MOL_PROPERTY
Bond
SciTegic.value.DoubleValue
0.238

@<SCITEGIC>MOL_PROPERTY
Angle
SciTegic.value.DoubleValue
3.202

@<SCITEGIC>MOL_PROPERTY
Pdih
SciTegic.value.DoubleValue
7.544

@<SCITEGIC>MOL_PROPERTY
Idih
SciTegic.value.DoubleValue
0.001

@<SCITEGIC>MOL_PROPERTY
Tether
SciTegic.value.DoubleValue
0.000

@<TRIPOS>MOLECULE
guest-8_confgen4.mol2 : confsearch ligand conformer 977
          25          24           1
SMALL
USER_CHARGES
 
@<TRIPOS>ATOM
       1    C1      18.688045   21.123089   25.865194 C.2        1 MOL1         0.6168
       2    O1      17.580913   21.247255   25.379291 O.co2      1 MOL1        -0.6703
       3    O2      18.894280   20.582406   26.934183 O.co2      1 MOL1        -0.6703
       4    C2      19.873218   21.736626   25.122104 C.3        1 MOL1        -0.1963
       5    H1      20.263858   22.530455   25.769185 H          1 MOL1         0.0750
       6    H2      19.508639   22.225973   24.210845 H          1 MOL1         0.0750
       7    C3      21.025582   20.750243   24.780512 C.3        1 MOL1        -0.1860
       8    H3      21.937586   21.340191   24.617248 H          1 MOL1         0.0752
       9    H4      21.235221   20.104224   25.644389 H          1 MOL1         0.0752
      10    C4      20.791984   19.886743   23.515706 C.3        1 MOL1        -0.1858
      11    H5      21.732118   19.368784   23.289023 H          1 MOL1         0.0752
      12    H6      20.583558   20.538775   22.656656 H          1 MOL1         0.0752
      13    C5      19.656953   18.844741   23.665101 C.3        1 MOL1        -0.1858
      14    H7      19.829590   18.229536   24.558683 H          1 MOL1         0.0752
      15    H8      18.705903   19.367007   23.825036 H          1 MOL1         0.0752
      16    C6      19.490292   17.930473   22.427477 C.3        1 MOL1        -0.1858
      17    H9      19.350268   18.547751   21.529598 H          1 MOL1         0.0752
      18    H10     18.566890   17.348079   22.550150 H          1 MOL1         0.0752
      19    C7      20.669531   16.954291   22.213223 C.3        1 MOL1        -0.1834
      20    H11     21.591944   17.511776   22.005632 H          1 MOL1         0.0752
      21    H12     20.843633   16.376591   23.131449 H          1 MOL1         0.0752
      22    C8      20.396631   15.986576   21.043971 C.3        1 MOL1        -0.2849
      23    H13     20.245186   16.537096   20.106230 H          1 MOL1         0.0764
      24    H14     21.243375   15.302437   20.902449 H          1 MOL1         0.0764
      25    H15     19.500698   15.381475   21.235019 H          1 MOL1         0.0764
@<TRIPOS>BOND
    1     1     2    1
    2     1     3    2
    3     1     4    1
    4     4     5    1
    5     4     6    1
    6     4     7    1
    7     7     8    1
    8     7     9    1
    9     7    10    1
   10    10    11    1
   11    10    12    1
   12    10    13    1
   13    13    14    1
   14    13    15    1
   15    13    16    1
   16    16    17    1
   17    16    18    1
   18    16    19    1
   19    19    20    1
   20    19    21    1
   21    19    22    1
   22    22    23    1
   23    22    24    1
   24    22    25    1
@<TRIPOS>SUBSTRUCTURE
       1 MOL1            1 RESIDUE      1      MOL     
@<SCITEGIC>MOL_PROPERTY
VConf Rank
SciTegic.value.IntegerValue
977

@<SCITEGIC>MOL_PROPERTY
Conf_Id
SciTegic.value.IntegerValue
114

@<SCITEGIC>MOL_PROPERTY
Delta U+W
SciTegic.value.DoubleValue
2.758

@<SCITEGIC>MOL_PROPERTY
U+W
SciTegic.value.DoubleValue
-48.871

@<SCITEGIC>MOL_PROPERTY
Grad RMS
SciTegic.value.DoubleValue
0.000000

@<SCITEGIC>MOL_PROPERTY
U
SciTegic.value.DoubleValue
11.422

@<SCITEGIC>MOL_PROPERTY
W
SciTegic.value.DoubleValue
-60.293

@<SCITEGIC>MOL_PROPERTY
W(PB)
SciTegic.value.DoubleValue
-62.719

@<SCITEGIC>MOL_PROPERTY
W(SA)
SciTegic.value.DoubleValue
2.425

@<SCITEGIC>MOL_PROPERTY
Valence
SciTegic.value.DoubleValue
10.135

@<SCITEGIC>MOL_PROPERTY
Coulomb
SciTegic.value.DoubleValue
0.369

@<SCITEGIC>MOL_PROPERTY
VdW
SciTegic.value.DoubleValue
0.918

@<SCITEGIC>MOL_PROPERTY
VdW6
SciTegic.value.DoubleValue
-10.482

@<SCITEGIC>MOL_PROPERTY
VdW12
SciTegic.value.DoubleValue
11.400

@<SCITEGIC>MOL_PROPERTY
Bond
SciTegic.value.DoubleValue
0.245

@<SCITEGIC>MOL_PROPERTY
Angle
SciTegic.value.DoubleValue
3.539

@<SCITEGIC>MOL_PROPERTY
Pdih
SciTegic.value.DoubleValue
6.346

@<SCITEGIC>MOL_PROPERTY
Idih
SciTegic.value.DoubleValue
0.006

@<SCITEGIC>MOL_PROPERTY
Tether
SciTegic.value.DoubleValue
0.000

@<TRIPOS>MOLECULE
guest-8_confgen4.mol2 : confsearch ligand conformer 978
          25          24           1
SMALL
USER_CHARGES
 
@<TRIPOS>ATOM
       1    C1      16.860660   19.868984   25.069222 C.2        1 MOL1         0.6168
       2    O1      16.912853   21.046017   25.367438 O.co2      1 MOL1        -0.6703
       3    O2      16.043718   19.406035   24.297613 O.co2      1 MOL1        -0.6703
       4    C2      17.861975   18.914579   25.713760 C.3        1 MOL1        -0.1963
       5    H1      17.305837   18.029741   26.045043 H          1 MOL1         0.0750
       6    H2      18.268275   19.389755   26.614817 H          1 MOL1         0.0750
       7    C3      19.013536   18.479741   24.770468 C.3        1 MOL1        -0.1860
       8    H3      19.606914   17.700684   25.267683 H          1 MOL1         0.0752
       9    H4      18.581353   18.024177   23.869908 H          1 MOL1         0.0752
      10    C4      19.938942   19.658595   24.384226 C.3        1 MOL1        -0.1858
      11    H5      20.283013   20.155646   25.301503 H          1 MOL1         0.0752
      12    H6      19.370440   20.410907   23.820193 H          1 MOL1         0.0752
      13    C5      21.179682   19.229217   23.565152 C.3        1 MOL1        -0.1858
      14    H7      21.839989   20.100395   23.469083 H          1 MOL1         0.0752
      15    H8      21.744615   18.470184   24.123043 H          1 MOL1         0.0752
      16    C6      20.831423   18.690873   22.155385 C.3        1 MOL1        -0.1858
      17    H9      20.263363   19.448977   21.599266 H          1 MOL1         0.0752
      18    H10     20.174709   17.816892   22.249972 H          1 MOL1         0.0752
      19    C7      22.072825   18.269237   21.334665 C.3        1 MOL1        -0.1834
      20    H11     22.649835   17.519286   21.893163 H          1 MOL1         0.0752
      21    H12     21.733676   17.775989   20.413294 H          1 MOL1         0.0752
      22    C8      22.988619   19.452897   20.953645 C.3        1 MOL1        -0.2849
      23    H13     23.797970   19.114465   20.293859 H          1 MOL1         0.0764
      24    H14     22.424501   20.231568   20.423971 H          1 MOL1         0.0764
      25    H15     23.451089   19.904677   21.839887 H          1 MOL1         0.0764
@<TRIPOS>BOND
    1     1     2    1
    2     1     3    2
    3     1     4    1
    4     4     5    1
    5     4     6    1
    6     4     7    1
    7     7     8    1
    8     7     9    1
    9     7    10    1
   10    10    11    1
   11    10    12    1
   12    10    13    1
   13    13    14    1
   14    13    15    1
   15    13    16    1
   16    16    17    1
   17    16    18    1
   18    16    19    1
   19    19    20    1
   20    19    21    1
   21    19    22    1
   22    22    23    1
   23    22    24    1
   24    22    25    1
@<TRIPOS>SUBSTRUCTURE
       1 MOL1            1 RESIDUE      1      MOL     
@<SCITEGIC>MOL_PROPERTY
VConf Rank
SciTegic.value.IntegerValue
978

@<SCITEGIC>MOL_PROPERTY
Conf_Id
SciTegic.value.IntegerValue
87

@<SCITEGIC>MOL_PROPERTY
Delta U+W
SciTegic.value.DoubleValue
1.453

@<SCITEGIC>MOL_PROPERTY
U+W
SciTegic.value.DoubleValue
-50.176

@<SCITEGIC>MOL_PROPERTY
Grad RMS
SciTegic.value.DoubleValue
0.000000

@<SCITEGIC>MOL_PROPERTY
U
SciTegic.value.DoubleValue
9.763

@<SCITEGIC>MOL_PROPERTY
W
SciTegic.value.DoubleValue
-59.940

@<SCITEGIC>MOL_PROPERTY
W(PB)
SciTegic.value.DoubleValue
-62.392

@<SCITEGIC>MOL_PROPERTY
W(SA)
SciTegic.value.DoubleValue
2.452

@<SCITEGIC>MOL_PROPERTY
Valence
SciTegic.value.DoubleValue
8.883

@<SCITEGIC>MOL_PROPERTY
Coulomb
SciTegic.value.DoubleValue
-0.122

@<SCITEGIC>MOL_PROPERTY
VdW
SciTegic.value.DoubleValue
1.003

@<SCITEGIC>MOL_PROPERTY
VdW6
SciTegic.value.DoubleValue
-9.782

@<SCITEGIC>MOL_PROPERTY
VdW12
SciTegic.value.DoubleValue
10.785

@<SCITEGIC>MOL_PROPERTY
Bond
SciTegic.value.DoubleValue
0.212

@<SCITEGIC>MOL_PROPERTY
Angle
SciTegic.value.DoubleValue
2.940

@<SCITEGIC>MOL_PROPERTY
Pdih
SciTegic.value.DoubleValue
5.730

@<SCITEGIC>MOL_PROPERTY
Idih
SciTegic.value.DoubleValue
0.001

@<SCITEGIC>MOL_PROPERTY
Tether
SciTegic.value.DoubleValue
0.000

@<TRIPOS>MOLECULE
guest-8_confgen4.mol2 : confsearch ligand conformer 979
          25          24           1
SMALL
USER_CHARGES
 
@<TRIPOS>ATOM
       1    C1      17.200338   20.789073   25.489513 C.2        1 MOL1         0.6168
       2    O1      17.733350   21.818459   25.854131 O.co2      1 MOL1        -0.6703
       3    O2      16.009059   20.688252   25.271722 O.co2      1 MOL1        -0.6703
       4    C2      18.077556   19.560677   25.275738 C.3        1 MOL1        -0.1963
       5    H1      17.484419   18.671676   25.521397 H          1 MOL1         0.0750
       6    H2      18.907034   19.605542   25.991649 H          1 MOL1         0.0750
       7    C3      18.624830   19.456699   23.830876 C.3        1 MOL1        -0.1860
       8    H3      17.783624   19.421222   23.125004 H          1 MOL1         0.0752
       9    H4      19.197407   20.365266   23.601863 H          1 MOL1         0.0752
      10    C4      19.516053   18.207196   23.643542 C.3        1 MOL1        -0.1858
      11    H5      18.948939   17.315555   23.943509 H          1 MOL1         0.0752
      12    H6      20.378795   18.261134   24.320427 H          1 MOL1         0.0752
      13    C5      20.001312   18.008921   22.185616 C.3        1 MOL1        -0.1858
      14    H7      20.574115   17.074147   22.126679 H          1 MOL1         0.0752
      15    H8      19.126304   17.861975   21.538130 H          1 MOL1         0.0752
      16    C6      20.855079   19.168637   21.607724 C.3        1 MOL1        -0.1858
      17    H9      20.231122   20.066935   21.512828 H          1 MOL1         0.0752
      18    H10     21.153957   18.906246   20.583853 H          1 MOL1         0.0752
      19    C7      22.123872   19.522662   22.421947 C.3        1 MOL1        -0.1834
      20    H11     22.628882   20.367423   21.933839 H          1 MOL1         0.0752
      21    H12     21.843933   19.874106   23.423923 H          1 MOL1         0.0752
      22    C8      23.120124   18.348986   22.540309 C.3        1 MOL1        -0.2849
      23    H13     23.401156   17.970910   21.548838 H          1 MOL1         0.0764
      24    H14     24.035900   18.672240   23.051766 H          1 MOL1         0.0764
      25    H15     22.691848   17.519433   23.116822 H          1 MOL1         0.0764
@<TRIPOS>BOND
    1     1     2    1
    2     1     3    2
    3     1     4    1
    4     4     5    1
    5     4     6    1
    6     4     7    1
    7     7     8    1
    8     7     9    1
    9     7    10    1
   10    10    11    1
   11    10    12    1
   12    10    13    1
   13    13    14    1
   14    13    15    1
   15    13    16    1
   16    16    17    1
   17    16    18    1
   18    16    19    1
   19    19    20    1
   20    19    21    1
   21    19    22    1
   22    22    23    1
   23    22    24    1
   24    22    25    1
@<TRIPOS>SUBSTRUCTURE
       1 MOL1            1 RESIDUE      1      MOL     
@<SCITEGIC>MOL_PROPERTY
VConf Rank
SciTegic.value.IntegerValue
979

@<SCITEGIC>MOL_PROPERTY
Conf_Id
SciTegic.value.IntegerValue
29

@<SCITEGIC>MOL_PROPERTY
Delta U+W
SciTegic.value.DoubleValue
0.850

@<SCITEGIC>MOL_PROPERTY
U+W
SciTegic.value.DoubleValue
-50.780

@<SCITEGIC>MOL_PROPERTY
Grad RMS
SciTegic.value.DoubleValue
0.000000

@<SCITEGIC>MOL_PROPERTY
U
SciTegic.value.DoubleValue
8.646

@<SCITEGIC>MOL_PROPERTY
W
SciTegic.value.DoubleValue
-59.426

@<SCITEGIC>MOL_PROPERTY
W(PB)
SciTegic.value.DoubleValue
-61.868

@<SCITEGIC>MOL_PROPERTY
W(SA)
SciTegic.value.DoubleValue
2.442

@<SCITEGIC>MOL_PROPERTY
Valence
SciTegic.value.DoubleValue
8.924

@<SCITEGIC>MOL_PROPERTY
Coulomb
SciTegic.value.DoubleValue
-1.171

@<SCITEGIC>MOL_PROPERTY
VdW
SciTegic.value.DoubleValue
0.894

@<SCITEGIC>MOL_PROPERTY
VdW6
SciTegic.value.DoubleValue
-10.223

@<SCITEGIC>MOL_PROPERTY
VdW12
SciTegic.value.DoubleValue
11.117

@<SCITEGIC>MOL_PROPERTY
Bond
SciTegic.value.DoubleValue
0.231

@<SCITEGIC>MOL_PROPERTY
Angle
SciTegic.value.DoubleValue
3.232

@<SCITEGIC>MOL_PROPERTY
Pdih
SciTegic.value.DoubleValue
5.461

@<SCITEGIC>MOL_PROPERTY
Idih
SciTegic.value.DoubleValue
0.001

@<SCITEGIC>MOL_PROPERTY
Tether
SciTegic.value.DoubleValue
0.000

@<TRIPOS>MOLECULE
guest-8_confgen4.mol2 : confsearch ligand conformer 980
          25          24           1
SMALL
USER_CHARGES
 
@<TRIPOS>ATOM
       1    C1      23.430284   17.613923   22.139072 C.2        1 MOL1         0.6168
       2    O1      23.389189   17.806653   20.939967 O.co2      1 MOL1        -0.6703
       3    O2      23.980713   16.657949   22.648858 O.co2      1 MOL1        -0.6703
       4    C2      22.736551   18.617107   23.053690 C.3        1 MOL1        -0.1963
       5    H1      22.801675   19.606680   22.585631 H          1 MOL1         0.0750
       6    H2      23.298043   18.665333   23.994371 H          1 MOL1         0.0750
       7    C3      21.256883   18.254551   23.331342 C.3        1 MOL1        -0.1860
       8    H3      20.721007   18.192747   22.374889 H          1 MOL1         0.0752
       9    H4      21.206782   17.258369   23.792054 H          1 MOL1         0.0752
      10    C4      20.575777   19.291119   24.254520 C.3        1 MOL1        -0.1858
      11    H5      20.589684   20.279751   23.777216 H          1 MOL1         0.0752
      12    H6      21.164581   19.389832   25.176575 H          1 MOL1         0.0752
      13    C5      19.123995   18.912653   24.641084 C.3        1 MOL1        -0.1858
      14    H7      19.141541   17.967746   25.200830 H          1 MOL1         0.0752
      15    H8      18.735959   19.664560   25.340688 H          1 MOL1         0.0752
      16    C6      18.138521   18.764724   23.451639 C.3        1 MOL1        -0.1858
      17    H9      17.145209   18.516423   23.849343 H          1 MOL1         0.0752
      18    H10     18.435503   17.903773   22.838590 H          1 MOL1         0.0752
      19    C7      18.013249   20.010395   22.540188 C.3        1 MOL1        -0.1834
      20    H11     18.977046   20.225625   22.059972 H          1 MOL1         0.0752
      21    H12     17.312959   19.779520   21.725820 H          1 MOL1         0.0752
      22    C8      17.510944   21.264937   23.287083 C.3        1 MOL1        -0.2849
      23    H13     18.234784   21.595308   24.042633 H          1 MOL1         0.0764
      24    H14     17.359572   22.095194   22.585309 H          1 MOL1         0.0764
      25    H15     16.554970   21.066777   23.788860 H          1 MOL1         0.0764
@<TRIPOS>BOND
    1     1     2    1
    2     1     3    2
    3     1     4    1
    4     4     5    1
    5     4     6    1
    6     4     7    1
    7     7     8    1
    8     7     9    1
    9     7    10    1
   10    10    11    1
   11    10    12    1
   12    10    13    1
   13    13    14    1
   14    13    15    1
   15    13    16    1
   16    16    17    1
   17    16    18    1
   18    16    19    1
   19    19    20    1
   20    19    21    1
   21    19    22    1
   22    22    23    1
   23    22    24    1
   24    22    25    1
@<TRIPOS>SUBSTRUCTURE
       1 MOL1            1 RESIDUE      1      MOL     
@<SCITEGIC>MOL_PROPERTY
VConf Rank
SciTegic.value.IntegerValue
980

@<SCITEGIC>MOL_PROPERTY
Conf_Id
SciTegic.value.IntegerValue
30

@<SCITEGIC>MOL_PROPERTY
Delta U+W
SciTegic.value.DoubleValue
0.843

@<SCITEGIC>MOL_PROPERTY
U+W
SciTegic.value.DoubleValue
-50.787

@<SCITEGIC>MOL_PROPERTY
Grad RMS
SciTegic.value.DoubleValue
0.000000

@<SCITEGIC>MOL_PROPERTY
U
SciTegic.value.DoubleValue
8.647

@<SCITEGIC>MOL_PROPERTY
W
SciTegic.value.DoubleValue
-59.434

@<SCITEGIC>MOL_PROPERTY
W(PB)
SciTegic.value.DoubleValue
-61.861

@<SCITEGIC>MOL_PROPERTY
W(SA)
SciTegic.value.DoubleValue
2.428

@<SCITEGIC>MOL_PROPERTY
Valence
SciTegic.value.DoubleValue
8.924

@<SCITEGIC>MOL_PROPERTY
Coulomb
SciTegic.value.DoubleValue
-1.170

@<SCITEGIC>MOL_PROPERTY
VdW
SciTegic.value.DoubleValue
0.894

@<SCITEGIC>MOL_PROPERTY
VdW6
SciTegic.value.DoubleValue
-10.224

@<SCITEGIC>MOL_PROPERTY
VdW12
SciTegic.value.DoubleValue
11.118

@<SCITEGIC>MOL_PROPERTY
Bond
SciTegic.value.DoubleValue
0.231

@<SCITEGIC>MOL_PROPERTY
Angle
SciTegic.value.DoubleValue
3.232

@<SCITEGIC>MOL_PROPERTY
Pdih
SciTegic.value.DoubleValue
5.460

@<SCITEGIC>MOL_PROPERTY
Idih
SciTegic.value.DoubleValue
0.000

@<SCITEGIC>MOL_PROPERTY
Tether
SciTegic.value.DoubleValue
0.000

@<TRIPOS>MOLECULE
guest-8_confgen4.mol2 : confsearch ligand conformer 981
          25          24           1
SMALL
USER_CHARGES
 
@<TRIPOS>ATOM
       1    C1      23.667509   21.370035   21.035272 C.2        1 MOL1         0.6168
       2    O1      24.180881   21.697759   22.087720 O.co2      1 MOL1        -0.6703
       3    O2      24.139309   21.649634   19.951137 O.co2      1 MOL1        -0.6703
       4    C2      22.365529   20.567431   21.043836 C.3        1 MOL1        -0.1963
       5    H1      22.549737   19.639797   20.489338 H          1 MOL1         0.0750
       6    H2      21.624621   21.140339   20.473979 H          1 MOL1         0.0750
       7    C3      21.802138   20.234481   22.451015 C.3        1 MOL1        -0.1860
       8    H3      22.551920   19.666085   23.018693 H          1 MOL1         0.0752
       9    H4      21.625909   21.167979   23.003310 H          1 MOL1         0.0752
      10    C4      20.489977   19.424601   22.367505 C.3        1 MOL1        -0.1858
      11    H5      20.668555   18.491901   21.814949 H          1 MOL1         0.0752
      12    H6      19.741960   19.994744   21.799576 H          1 MOL1         0.0752
      13    C5      19.931342   19.094495   23.768378 C.3        1 MOL1        -0.1858
      14    H7      20.679141   18.524318   24.336531 H          1 MOL1         0.0752
      15    H8      19.752621   20.027016   24.321159 H          1 MOL1         0.0752
      16    C6      18.619353   18.284713   23.685598 C.3        1 MOL1        -0.1858
      17    H9      18.797859   17.352111   23.132893 H          1 MOL1         0.0752
      18    H10     17.871366   18.854756   23.117567 H          1 MOL1         0.0752
      19    C7      18.060893   17.954659   25.085794 C.3        1 MOL1        -0.1834
      20    H11     18.805768   17.382732   25.656364 H          1 MOL1         0.0752
      21    H12     17.879275   18.885360   25.641039 H          1 MOL1         0.0752
      22    C8      16.750867   17.146031   24.998863 C.3        1 MOL1        -0.2849
      23    H13     16.910655   16.194390   24.475180 H          1 MOL1         0.0764
      24    H14     16.368182   16.920297   26.002697 H          1 MOL1         0.0764
      25    H15     15.977183   17.708330   24.459760 H          1 MOL1         0.0764
@<TRIPOS>BOND
    1     1     2    1
    2     1     3    2
    3     1     4    1
    4     4     5    1
    5     4     6    1
    6     4     7    1
    7     7     8    1
    8     7     9    1
    9     7    10    1
   10    10    11    1
   11    10    12    1
   12    10    13    1
   13    13    14    1
   14    13    15    1
   15    13    16    1
   16    16    17    1
   17    16    18    1
   18    16    19    1
   19    19    20    1
   20    19    21    1
   21    19    22    1
   22    22    23    1
   23    22    24    1
   24    22    25    1
@<TRIPOS>SUBSTRUCTURE
       1 MOL1            1 RESIDUE      1      MOL     
@<SCITEGIC>MOL_PROPERTY
VConf Rank
SciTegic.value.IntegerValue
981

@<SCITEGIC>MOL_PROPERTY
Conf_Id
SciTegic.value.IntegerValue
0

@<SCITEGIC>MOL_PROPERTY
Delta U+W
SciTegic.value.DoubleValue
0.000

@<SCITEGIC>MOL_PROPERTY
U+W
SciTegic.value.DoubleValue
-51.629

@<SCITEGIC>MOL_PROPERTY
Grad RMS
SciTegic.value.DoubleValue
0.000000

@<SCITEGIC>MOL_PROPERTY
U
SciTegic.value.DoubleValue
6.586

@<SCITEGIC>MOL_PROPERTY
W
SciTegic.value.DoubleValue
-58.216

@<SCITEGIC>MOL_PROPERTY
W(PB)
SciTegic.value.DoubleValue
-60.757

@<SCITEGIC>MOL_PROPERTY
W(SA)
SciTegic.value.DoubleValue
2.541

@<SCITEGIC>MOL_PROPERTY
Valence
SciTegic.value.DoubleValue
8.027

@<SCITEGIC>MOL_PROPERTY
Coulomb
SciTegic.value.DoubleValue
-2.892

@<SCITEGIC>MOL_PROPERTY
VdW
SciTegic.value.DoubleValue
1.451

@<SCITEGIC>MOL_PROPERTY
VdW6
SciTegic.value.DoubleValue
-7.931

@<SCITEGIC>MOL_PROPERTY
VdW12
SciTegic.value.DoubleValue
9.383

@<SCITEGIC>MOL_PROPERTY
Bond
SciTegic.value.DoubleValue
0.149

@<SCITEGIC>MOL_PROPERTY
Angle
SciTegic.value.DoubleValue
2.726

@<SCITEGIC>MOL_PROPERTY
Pdih
SciTegic.value.DoubleValue
5.152

@<SCITEGIC>MOL_PROPERTY
Idih
SciTegic.value.DoubleValue
0.000

@<SCITEGIC>MOL_PROPERTY
Tether
SciTegic.value.DoubleValue
0.000

@<TRIPOS>MOLECULE
guest-8_confgen4.mol2 : confsearch ligand conformer 982
          25          24           1
SMALL
USER_CHARGES
 
@<TRIPOS>ATOM
       1    C1      16.876221   20.491697   20.055176 C.2        1 MOL1         0.6168
       2    O1      17.053021   20.075423   18.927312 O.co2      1 MOL1        -0.6703
       3    O2      15.777718   20.690149   20.535312 O.co2      1 MOL1        -0.6703
       4    C2      18.100204   20.757971   20.924109 C.3        1 MOL1        -0.1963
       5    H1      17.866114   21.592750   21.595639 H          1 MOL1         0.0750
       6    H2      18.916976   21.086820   20.270391 H          1 MOL1         0.0750
       7    C3      18.537000   19.518728   21.743566 C.3        1 MOL1        -0.1860
       8    H3      17.704040   19.194320   22.382729 H          1 MOL1         0.0752
       9    H4      18.754722   18.688360   21.057506 H          1 MOL1         0.0752
      10    C4      19.777424   19.813421   22.614501 C.3        1 MOL1        -0.1858
      11    H5      19.556875   20.644606   23.298365 H          1 MOL1         0.0752
      12    H6      20.607795   20.138740   21.972760 H          1 MOL1         0.0752
      13    C5      20.210626   18.576212   23.430049 C.3        1 MOL1        -0.1858
      14    H7      19.380449   18.250758   24.071912 H          1 MOL1         0.0752
      15    H8      20.431235   17.744928   22.746381 H          1 MOL1         0.0752
      16    C6      21.451035   18.870137   24.301182 C.3        1 MOL1        -0.1858
      17    H9      21.230713   19.701327   24.985051 H          1 MOL1         0.0752
      18    H10     22.281410   19.195609   23.659590 H          1 MOL1         0.0752
      19    C7      21.884238   17.633554   25.116387 C.3        1 MOL1        -0.1834
      20    H11     21.056628   17.306173   25.760880 H          1 MOL1         0.0752
      21    H12     22.107344   16.800475   24.435437 H          1 MOL1         0.0752
      22    C8      23.123072   17.931114   25.984922 C.3        1 MOL1        -0.2849
      23    H13     23.417013   17.041684   26.557286 H          1 MOL1         0.0764
      24    H14     23.976390   18.230856   25.362507 H          1 MOL1         0.0764
      25    H15     22.917760   18.740358   26.697920 H          1 MOL1         0.0764
@<TRIPOS>BOND
    1     1     2    1
    2     1     3    2
    3     1     4    1
    4     4     5    1
    5     4     6    1
    6     4     7    1
    7     7     8    1
    8     7     9    1
    9     7    10    1
   10    10    11    1
   11    10    12    1
   12    10    13    1
   13    13    14    1
   14    13    15    1
   15    13    16    1
   16    16    17    1
   17    16    18    1
   18    16    19    1
   19    19    20    1
   20    19    21    1
   21    19    22    1
   22    22    23    1
   23    22    24    1
   24    22    25    1
@<TRIPOS>SUBSTRUCTURE
       1 MOL1            1 RESIDUE      1      MOL     
@<SCITEGIC>MOL_PROPERTY
VConf Rank
SciTegic.value.IntegerValue
982

@<SCITEGIC>MOL_PROPERTY
Conf_Id
SciTegic.value.IntegerValue
27

@<SCITEGIC>MOL_PROPERTY
Delta U+W
SciTegic.value.DoubleValue
-1.297

@<SCITEGIC>MOL_PROPERTY
U+W
SciTegic.value.DoubleValue
-52.926

@<SCITEGIC>MOL_PROPERTY
Grad RMS
SciTegic.value.DoubleValue
0.000000

@<SCITEGIC>MOL_PROPERTY
U
SciTegic.value.DoubleValue
5.617

@<SCITEGIC>MOL_PROPERTY
W
SciTegic.value.DoubleValue
-58.543

@<SCITEGIC>MOL_PROPERTY
W(PB)
SciTegic.value.DoubleValue
-61.065

@<SCITEGIC>MOL_PROPERTY
W(SA)
SciTegic.value.DoubleValue
2.522

@<SCITEGIC>MOL_PROPERTY
Valence
SciTegic.value.DoubleValue
7.531

@<SCITEGIC>MOL_PROPERTY
Coulomb
SciTegic.value.DoubleValue
-2.818

@<SCITEGIC>MOL_PROPERTY
VdW
SciTegic.value.DoubleValue
0.904

@<SCITEGIC>MOL_PROPERTY
VdW6
SciTegic.value.DoubleValue
-7.640

@<SCITEGIC>MOL_PROPERTY
VdW12
SciTegic.value.DoubleValue
8.544

@<SCITEGIC>MOL_PROPERTY
Bond
SciTegic.value.DoubleValue
0.115

@<SCITEGIC>MOL_PROPERTY
Angle
SciTegic.value.DoubleValue
2.271

@<SCITEGIC>MOL_PROPERTY
Pdih
SciTegic.value.DoubleValue
5.144

@<SCITEGIC>MOL_PROPERTY
Idih
SciTegic.value.DoubleValue
0.001

@<SCITEGIC>MOL_PROPERTY
Tether
SciTegic.value.DoubleValue
0.000

@<TRIPOS>MOLECULE
guest-8_confgen4.mol2 : confsearch ligand conformer 983
          25          24           1
SMALL
USER_CHARGES
 
@<TRIPOS>ATOM
       1    C1      19.683906   21.807237   26.264992 C.2        1 MOL1         0.6168
       2    O1      18.525135   22.144936   26.407412 O.co2      1 MOL1        -0.6703
       3    O2      20.309679   21.181860   27.098225 O.co2      1 MOL1        -0.6703
       4    C2      20.395389   22.206152   24.975178 C.3        1 MOL1        -0.1963
       5    H1      21.478043   22.143175   25.138702 H          1 MOL1         0.0750
       6    H2      20.163776   23.260877   24.785714 H          1 MOL1         0.0750
       7    C3      19.989369   21.356896   23.742759 C.3        1 MOL1        -0.1860
       8    H3      18.899815   21.407721   23.608742 H          1 MOL1         0.0752
       9    H4      20.439436   21.797120   22.842653 H          1 MOL1         0.0752
      10    C4      20.433399   19.881892   23.865113 C.3        1 MOL1        -0.1858
      11    H5      19.972989   19.429171   24.754207 H          1 MOL1         0.0752
      12    H6      21.521205   19.837083   24.012409 H          1 MOL1         0.0752
      13    C5      20.047494   19.062967   22.614485 C.3        1 MOL1        -0.1858
      14    H7      18.959570   19.108354   22.468033 H          1 MOL1         0.0752
      15    H8      20.509275   19.512101   21.724499 H          1 MOL1         0.0752
      16    C6      20.490110   17.588828   22.736403 C.3        1 MOL1        -0.1858
      17    H9      20.028443   17.139557   23.626430 H          1 MOL1         0.0752
      18    H10     21.577973   17.543227   22.883222 H          1 MOL1         0.0752
      19    C7      20.104139   16.769744   21.486804 C.3        1 MOL1        -0.1834
      20    H11     19.016224   16.811627   21.337912 H          1 MOL1         0.0752
      21    H12     20.565832   17.215231   20.594695 H          1 MOL1         0.0752
      22    C8      20.547718   15.298348   21.612648 C.3        1 MOL1        -0.2849
      23    H13     20.075468   14.818516   22.479908 H          1 MOL1         0.0764
      24    H14     20.265504   14.731114   20.716165 H          1 MOL1         0.0764
      25    H15     21.636751   15.225139   21.731146 H          1 MOL1         0.0764
@<TRIPOS>BOND
    1     1     2    1
    2     1     3    2
    3     1     4    1
    4     4     5    1
    5     4     6    1
    6     4     7    1
    7     7     8    1
    8     7     9    1
    9     7    10    1
   10    10    11    1
   11    10    12    1
   12    10    13    1
   13    13    14    1
   14    13    15    1
   15    13    16    1
   16    16    17    1
   17    16    18    1
   18    16    19    1
   19    19    20    1
   20    19    21    1
   21    19    22    1
   22    22    23    1
   23    22    24    1
   24    22    25    1
@<TRIPOS>SUBSTRUCTURE
       1 MOL1            1 RESIDUE      1      MOL     
@<SCITEGIC>MOL_PROPERTY
VConf Rank
SciTegic.value.IntegerValue
983

@<SCITEGIC>MOL_PROPERTY
Conf_Id
SciTegic.value.IntegerValue
37

@<SCITEGIC>MOL_PROPERTY
Delta U+W
SciTegic.value.DoubleValue
-0.230

@<SCITEGIC>MOL_PROPERTY
U+W
SciTegic.value.DoubleValue
-51.860

@<SCITEGIC>MOL_PROPERTY
Grad RMS
SciTegic.value.DoubleValue
0.000000

@<SCITEGIC>MOL_PROPERTY
U
SciTegic.value.DoubleValue
7.816

@<SCITEGIC>MOL_PROPERTY
W
SciTegic.value.DoubleValue
-59.675

@<SCITEGIC>MOL_PROPERTY
W(PB)
SciTegic.value.DoubleValue
-62.180

@<SCITEGIC>MOL_PROPERTY
W(SA)
SciTegic.value.DoubleValue
2.505

@<SCITEGIC>MOL_PROPERTY
Valence
SciTegic.value.DoubleValue
7.785

@<SCITEGIC>MOL_PROPERTY
Coulomb
SciTegic.value.DoubleValue
-0.713

@<SCITEGIC>MOL_PROPERTY
VdW
SciTegic.value.DoubleValue
0.744

@<SCITEGIC>MOL_PROPERTY
VdW6
SciTegic.value.DoubleValue
-8.514

@<SCITEGIC>MOL_PROPERTY
VdW12
SciTegic.value.DoubleValue
9.259

@<SCITEGIC>MOL_PROPERTY
Bond
SciTegic.value.DoubleValue
0.136

@<SCITEGIC>MOL_PROPERTY
Angle
SciTegic.value.DoubleValue
2.433

@<SCITEGIC>MOL_PROPERTY
Pdih
SciTegic.value.DoubleValue
5.216

@<SCITEGIC>MOL_PROPERTY
Idih
SciTegic.value.DoubleValue
0.000

@<SCITEGIC>MOL_PROPERTY
Tether
SciTegic.value.DoubleValue
0.000

@<TRIPOS>MOLECULE
guest-8_confgen4.mol2 : confsearch ligand conformer 984
          25          24           1
SMALL
USER_CHARGES
 
@<TRIPOS>ATOM
       1    C1      20.814498   15.936761   25.332163 C.2        1 MOL1         0.6168
       2    O1      22.002532   15.690919   25.404346 O.co2      1 MOL1        -0.6703
       3    O2      20.024116   15.259068   24.705271 O.co2      1 MOL1        -0.6703
       4    C2      20.285658   17.154807   26.084266 C.3        1 MOL1        -0.1963
       5    H1      20.723264   17.134980   27.089299 H          1 MOL1         0.0750
       6    H2      19.201313   17.046319   26.207848 H          1 MOL1         0.0750
       7    C3      20.614454   18.508311   25.402457 C.3        1 MOL1        -0.1860
       8    H3      20.321213   19.326340   26.074311 H          1 MOL1         0.0752
       9    H4      21.701138   18.589804   25.260504 H          1 MOL1         0.0752
      10    C4      19.895029   18.680560   24.045798 C.3        1 MOL1        -0.1858
      11    H5      18.810208   18.584987   24.190900 H          1 MOL1         0.0752
      12    H6      20.196751   17.875218   23.361830 H          1 MOL1         0.0752
      13    C5      20.211272   20.046936   23.400324 C.3        1 MOL1        -0.1858
      14    H7      19.907701   20.853881   24.081295 H          1 MOL1         0.0752
      15    H8      21.296248   20.141519   23.255517 H          1 MOL1         0.0752
      16    C6      19.493316   20.219470   22.044365 C.3        1 MOL1        -0.1858
      17    H9      18.408329   20.124632   22.188901 H          1 MOL1         0.0752
      18    H10     19.796694   19.412486   21.363289 H          1 MOL1         0.0752
      19    C7      19.809598   21.584826   21.398506 C.3        1 MOL1        -0.1834
      20    H11     19.505737   22.394567   22.076346 H          1 MOL1         0.0752
      21    H12     20.894084   21.682344   21.250644 H          1 MOL1         0.0752
      22    C8      19.090801   21.753092   20.044762 C.3        1 MOL1        -0.2849
      23    H13     18.001583   21.691377   20.168011 H          1 MOL1         0.0764
      24    H14     19.326773   22.728583   19.599996 H          1 MOL1         0.0764
      25    H15     19.400343   20.973729   19.336119 H          1 MOL1         0.0764
@<TRIPOS>BOND
    1     1     2    1
    2     1     3    2
    3     1     4    1
    4     4     5    1
    5     4     6    1
    6     4     7    1
    7     7     8    1
    8     7     9    1
    9     7    10    1
   10    10    11    1
   11    10    12    1
   12    10    13    1
   13    13    14    1
   14    13    15    1
   15    13    16    1
   16    16    17    1
   17    16    18    1
   18    16    19    1
   19    19    20    1
   20    19    21    1
   21    19    22    1
   22    22    23    1
   23    22    24    1
   24    22    25    1
@<TRIPOS>SUBSTRUCTURE
       1 MOL1            1 RESIDUE      1      MOL     
@<SCITEGIC>MOL_PROPERTY
VConf Rank
SciTegic.value.IntegerValue
984

@<SCITEGIC>MOL_PROPERTY
Conf_Id
SciTegic.value.IntegerValue
54

@<SCITEGIC>MOL_PROPERTY
Delta U+W
SciTegic.value.DoubleValue
-0.224

@<SCITEGIC>MOL_PROPERTY
U+W
SciTegic.value.DoubleValue
-51.854

@<SCITEGIC>MOL_PROPERTY
Grad RMS
SciTegic.value.DoubleValue
0.000000

@<SCITEGIC>MOL_PROPERTY
U
SciTegic.value.DoubleValue
7.816

@<SCITEGIC>MOL_PROPERTY
W
SciTegic.value.DoubleValue
-59.670

@<SCITEGIC>MOL_PROPERTY
W(PB)
SciTegic.value.DoubleValue
-62.157

@<SCITEGIC>MOL_PROPERTY
W(SA)
SciTegic.value.DoubleValue
2.487

@<SCITEGIC>MOL_PROPERTY
Valence
SciTegic.value.DoubleValue
7.785

@<SCITEGIC>MOL_PROPERTY
Coulomb
SciTegic.value.DoubleValue
-0.713

@<SCITEGIC>MOL_PROPERTY
VdW
SciTegic.value.DoubleValue
0.744

@<SCITEGIC>MOL_PROPERTY
VdW6
SciTegic.value.DoubleValue
-8.515

@<SCITEGIC>MOL_PROPERTY
VdW12
SciTegic.value.DoubleValue
9.259

@<SCITEGIC>MOL_PROPERTY
Bond
SciTegic.value.DoubleValue
0.136

@<SCITEGIC>MOL_PROPERTY
Angle
SciTegic.value.DoubleValue
2.433

@<SCITEGIC>MOL_PROPERTY
Pdih
SciTegic.value.DoubleValue
5.215

@<SCITEGIC>MOL_PROPERTY
Idih
SciTegic.value.DoubleValue
0.000

@<SCITEGIC>MOL_PROPERTY
Tether
SciTegic.value.DoubleValue
0.000

@<TRIPOS>MOLECULE
guest-8_confgen4.mol2 : confsearch ligand conformer 985
          25          24           1
SMALL
USER_CHARGES
 
@<TRIPOS>ATOM
       1    C1      16.917085   17.409112   25.092688 C.2        1 MOL1         0.6168
       2    O1      17.042764   17.662807   26.274590 O.co2      1 MOL1        -0.6703
       3    O2      15.893804   17.606835   24.467458 O.co2      1 MOL1        -0.6703
       4    C2      18.101944   16.791088   24.355572 C.3        1 MOL1        -0.1963
       5    H1      17.717460   15.950879   23.765495 H          1 MOL1         0.0750
       6    H2      18.793612   16.369523   25.094970 H          1 MOL1         0.0750
       7    C3      18.851357   17.778270   23.423093 C.3        1 MOL1        -0.1860
       8    H3      19.576237   17.209534   22.827365 H          1 MOL1         0.0752
       9    H4      18.137855   18.222910   22.715556 H          1 MOL1         0.0752
      10    C4      19.580589   18.896931   24.205889 C.3        1 MOL1        -0.1858
      11    H5      20.325956   18.453322   24.879993 H          1 MOL1         0.0752
      12    H6      18.855963   19.417470   24.846931 H          1 MOL1         0.0752
      13    C5      20.263345   19.946185   23.296017 C.3        1 MOL1        -0.1858
      14    H7      19.521392   20.375818   22.609360 H          1 MOL1         0.0752
      15    H8      20.611654   20.769641   23.932233 H          1 MOL1         0.0752
      16    C6      21.458290   19.381165   22.488745 C.3        1 MOL1        -0.1858
      17    H9      21.111177   18.562331   21.846173 H          1 MOL1         0.0752
      18    H10     22.197514   18.947146   23.175615 H          1 MOL1         0.0752
      19    C7      22.145000   20.435358   21.588971 C.3        1 MOL1        -0.1834
      20    H11     22.883741   19.927265   20.953874 H          1 MOL1         0.0752
      21    H12     21.405970   20.880871   20.908785 H          1 MOL1         0.0752
      22    C8      22.859597   21.550079   22.383758 C.3        1 MOL1        -0.2849
      23    H13     22.144766   22.166948   22.942233 H          1 MOL1         0.0764
      24    H14     23.579142   21.125543   23.095892 H          1 MOL1         0.0764
      25    H15     23.409155   22.213706   21.703692 H          1 MOL1         0.0764
@<TRIPOS>BOND
    1     1     2    1
    2     1     3    2
    3     1     4    1
    4     4     5    1
    5     4     6    1
    6     4     7    1
    7     7     8    1
    8     7     9    1
    9     7    10    1
   10    10    11    1
   11    10    12    1
   12    10    13    1
   13    13    14    1
   14    13    15    1
   15    13    16    1
   16    16    17    1
   17    16    18    1
   18    16    19    1
   19    19    20    1
   20    19    21    1
   21    19    22    1
   22    22    23    1
   23    22    24    1
   24    22    25    1
@<TRIPOS>SUBSTRUCTURE
       1 MOL1            1 RESIDUE      1      MOL     
@<SCITEGIC>MOL_PROPERTY
VConf Rank
SciTegic.value.IntegerValue
985

@<SCITEGIC>MOL_PROPERTY
Conf_Id
SciTegic.value.IntegerValue
101

@<SCITEGIC>MOL_PROPERTY
Delta U+W
SciTegic.value.DoubleValue
1.534

@<SCITEGIC>MOL_PROPERTY
U+W
SciTegic.value.DoubleValue
-50.095

@<SCITEGIC>MOL_PROPERTY
Grad RMS
SciTegic.value.DoubleValue
0.000000

@<SCITEGIC>MOL_PROPERTY
U
SciTegic.value.DoubleValue
9.416

@<SCITEGIC>MOL_PROPERTY
W
SciTegic.value.DoubleValue
-59.512

@<SCITEGIC>MOL_PROPERTY
W(PB)
SciTegic.value.DoubleValue
-61.988

@<SCITEGIC>MOL_PROPERTY
W(SA)
SciTegic.value.DoubleValue
2.476

@<SCITEGIC>MOL_PROPERTY
Valence
SciTegic.value.DoubleValue
8.939

@<SCITEGIC>MOL_PROPERTY
Coulomb
SciTegic.value.DoubleValue
-0.615

@<SCITEGIC>MOL_PROPERTY
VdW
SciTegic.value.DoubleValue
1.092

@<SCITEGIC>MOL_PROPERTY
VdW6
SciTegic.value.DoubleValue
-9.710

@<SCITEGIC>MOL_PROPERTY
VdW12
SciTegic.value.DoubleValue
10.802

@<SCITEGIC>MOL_PROPERTY
Bond
SciTegic.value.DoubleValue
0.216

@<SCITEGIC>MOL_PROPERTY
Angle
SciTegic.value.DoubleValue
2.979

@<SCITEGIC>MOL_PROPERTY
Pdih
SciTegic.value.DoubleValue
5.743

@<SCITEGIC>MOL_PROPERTY
Idih
SciTegic.value.DoubleValue
0.000

@<SCITEGIC>MOL_PROPERTY
Tether
SciTegic.value.DoubleValue
0.000

@<TRIPOS>MOLECULE
guest-8_confgen4.mol2 : confsearch ligand conformer 986
          25          24           1
SMALL
USER_CHARGES
 
@<TRIPOS>ATOM
       1    C1      20.162656   15.024906   22.869872 C.2        1 MOL1         0.6168
       2    O1      19.821673   14.762414   21.733401 O.co2      1 MOL1        -0.6703
       3    O2      20.789538   14.261552   23.577747 O.co2      1 MOL1        -0.6703
       4    C2      19.803829   16.396287   23.430873 C.3        1 MOL1        -0.1963
       5    H1      19.654740   16.292723   24.512255 H          1 MOL1         0.0750
       6    H2      18.842508   16.691871   22.996301 H          1 MOL1         0.0750
       7    C3      20.889377   17.465241   23.140220 C.3        1 MOL1        -0.1860
       8    H3      21.856638   17.090691   23.502911 H          1 MOL1         0.0752
       9    H4      20.995420   17.596009   22.054423 H          1 MOL1         0.0752
      10    C4      20.608301   18.833265   23.806714 C.3        1 MOL1        -0.1858
      11    H5      21.492224   19.467696   23.662949 H          1 MOL1         0.0752
      12    H6      20.493000   18.698672   24.890761 H          1 MOL1         0.0752
      13    C5      19.362989   19.553142   23.233235 C.3        1 MOL1        -0.1858
      14    H7      19.478520   19.688369   22.150007 H          1 MOL1         0.0752
      15    H8      18.479158   18.917228   23.368049 H          1 MOL1         0.0752
      16    C6      19.071325   20.917315   23.908750 C.3        1 MOL1        -0.1858
      17    H9      18.872872   20.750053   24.976138 H          1 MOL1         0.0752
      18    H10     18.141647   21.324580   23.488628 H          1 MOL1         0.0752
      19    C7      20.187587   21.982315   23.770204 C.3        1 MOL1        -0.1834
      20    H11     19.865245   22.895030   24.289906 H          1 MOL1         0.0752
      21    H12     21.097945   21.647741   24.284647 H          1 MOL1         0.0752
      22    C8      20.517737   22.336716   22.304141 C.3        1 MOL1        -0.2849
      23    H13     19.615866   22.651378   21.763219 H          1 MOL1         0.0764
      24    H14     21.242790   23.159671   22.261613 H          1 MOL1         0.0764
      25    H15     20.955717   21.480254   21.776197 H          1 MOL1         0.0764
@<TRIPOS>BOND
    1     1     2    1
    2     1     3    2
    3     1     4    1
    4     4     5    1
    5     4     6    1
    6     4     7    1
    7     7     8    1
    8     7     9    1
    9     7    10    1
   10    10    11    1
   11    10    12    1
   12    10    13    1
   13    13    14    1
   14    13    15    1
   15    13    16    1
   16    16    17    1
   17    16    18    1
   18    16    19    1
   19    19    20    1
   20    19    21    1
   21    19    22    1
   22    22    23    1
   23    22    24    1
   24    22    25    1
@<TRIPOS>SUBSTRUCTURE
       1 MOL1            1 RESIDUE      1      MOL     
@<SCITEGIC>MOL_PROPERTY
VConf Rank
SciTegic.value.IntegerValue
986

@<SCITEGIC>MOL_PROPERTY
Conf_Id
SciTegic.value.IntegerValue
75

@<SCITEGIC>MOL_PROPERTY
Delta U+W
SciTegic.value.DoubleValue
1.014

@<SCITEGIC>MOL_PROPERTY
U+W
SciTegic.value.DoubleValue
-50.615

@<SCITEGIC>MOL_PROPERTY
Grad RMS
SciTegic.value.DoubleValue
0.000000

@<SCITEGIC>MOL_PROPERTY
U
SciTegic.value.DoubleValue
8.474

@<SCITEGIC>MOL_PROPERTY
W
SciTegic.value.DoubleValue
-59.089

@<SCITEGIC>MOL_PROPERTY
W(PB)
SciTegic.value.DoubleValue
-61.530

@<SCITEGIC>MOL_PROPERTY
W(SA)
SciTegic.value.DoubleValue
2.441

@<SCITEGIC>MOL_PROPERTY
Valence
SciTegic.value.DoubleValue
9.080

@<SCITEGIC>MOL_PROPERTY
Coulomb
SciTegic.value.DoubleValue
-1.772

@<SCITEGIC>MOL_PROPERTY
VdW
SciTegic.value.DoubleValue
1.165

@<SCITEGIC>MOL_PROPERTY
VdW6
SciTegic.value.DoubleValue
-9.830

@<SCITEGIC>MOL_PROPERTY
VdW12
SciTegic.value.DoubleValue
10.996

@<SCITEGIC>MOL_PROPERTY
Bond
SciTegic.value.DoubleValue
0.240

@<SCITEGIC>MOL_PROPERTY
Angle
SciTegic.value.DoubleValue
3.225

@<SCITEGIC>MOL_PROPERTY
Pdih
SciTegic.value.DoubleValue
5.615

@<SCITEGIC>MOL_PROPERTY
Idih
SciTegic.value.DoubleValue
0.001

@<SCITEGIC>MOL_PROPERTY
Tether
SciTegic.value.DoubleValue
0.000

@<TRIPOS>MOLECULE
guest-8_confgen4.mol2 : confsearch ligand conformer 987
          25          24           1
SMALL
USER_CHARGES
 
@<TRIPOS>ATOM
       1    C1      18.219962   15.502047   22.308581 C.2        1 MOL1         0.6168
       2    O1      18.286827   14.772551   23.278126 O.co2      1 MOL1        -0.6703
       3    O2      17.359642   15.410716   21.455247 O.co2      1 MOL1        -0.6703
       4    C2      19.260726   16.606828   22.165933 C.3        1 MOL1        -0.1963
       5    H1      19.438910   16.771034   21.096425 H          1 MOL1         0.0750
       6    H2      20.201280   16.246835   22.599947 H          1 MOL1         0.0750
       7    C3      18.830379   17.930050   22.845615 C.3        1 MOL1        -0.1860
       8    H3      17.881021   18.270377   22.409277 H          1 MOL1         0.0752
       9    H4      18.643294   17.745578   23.912622 H          1 MOL1         0.0752
      10    C4      19.900889   19.031660   22.688714 C.3        1 MOL1        -0.1858
      11    H5      20.084922   19.212303   21.620860 H          1 MOL1         0.0752
      12    H6      20.847673   18.680494   23.115909 H          1 MOL1         0.0752
      13    C5      19.463768   20.352893   23.363995 C.3        1 MOL1        -0.1858
      14    H7      18.531689   20.687736   22.888575 H          1 MOL1         0.0752
      15    H8      19.222994   20.180481   24.421880 H          1 MOL1         0.0752
      16    C6      20.514519   21.485143   23.236103 C.3        1 MOL1        -0.1858
      17    H9      19.978291   22.436030   23.113047 H          1 MOL1         0.0752
      18    H10     21.105291   21.355161   22.319081 H          1 MOL1         0.0752
      19    C7      21.454719   21.635838   24.457667 C.3        1 MOL1        -0.1834
      20    H11     22.098266   22.511579   24.296120 H          1 MOL1         0.0752
      21    H12     20.859794   21.853446   25.355413 H          1 MOL1         0.0752
      22    C8      22.349656   20.407263   24.722359 C.3        1 MOL1        -0.2849
      23    H13     22.908117   20.124703   23.820560 H          1 MOL1         0.0764
      24    H14     23.075644   20.625125   25.516230 H          1 MOL1         0.0764
      25    H15     21.752906   19.546179   25.048014 H          1 MOL1         0.0764
@<TRIPOS>BOND
    1     1     2    1
    2     1     3    2
    3     1     4    1
    4     4     5    1
    5     4     6    1
    6     4     7    1
    7     7     8    1
    8     7     9    1
    9     7    10    1
   10    10    11    1
   11    10    12    1
   12    10    13    1
   13    13    14    1
   14    13    15    1
   15    13    16    1
   16    16    17    1
   17    16    18    1
   18    16    19    1
   19    19    20    1
   20    19    21    1
   21    19    22    1
   22    22    23    1
   23    22    24    1
   24    22    25    1
@<TRIPOS>SUBSTRUCTURE
       1 MOL1            1 RESIDUE      1      MOL     
@<SCITEGIC>MOL_PROPERTY
VConf Rank
SciTegic.value.IntegerValue
987

@<SCITEGIC>MOL_PROPERTY
Conf_Id
SciTegic.value.IntegerValue
125

@<SCITEGIC>MOL_PROPERTY
Delta U+W
SciTegic.value.DoubleValue
2.314

@<SCITEGIC>MOL_PROPERTY
U+W
SciTegic.value.DoubleValue
-49.315

@<SCITEGIC>MOL_PROPERTY
Grad RMS
SciTegic.value.DoubleValue
0.000000

@<SCITEGIC>MOL_PROPERTY
U
SciTegic.value.DoubleValue
9.740

@<SCITEGIC>MOL_PROPERTY
W
SciTegic.value.DoubleValue
-59.054

@<SCITEGIC>MOL_PROPERTY
W(PB)
SciTegic.value.DoubleValue
-61.488

@<SCITEGIC>MOL_PROPERTY
W(SA)
SciTegic.value.DoubleValue
2.433

@<SCITEGIC>MOL_PROPERTY
Valence
SciTegic.value.DoubleValue
10.506

@<SCITEGIC>MOL_PROPERTY
Coulomb
SciTegic.value.DoubleValue
-1.761

@<SCITEGIC>MOL_PROPERTY
VdW
SciTegic.value.DoubleValue
0.994

@<SCITEGIC>MOL_PROPERTY
VdW6
SciTegic.value.DoubleValue
-9.209

@<SCITEGIC>MOL_PROPERTY
VdW12
SciTegic.value.DoubleValue
10.203

@<SCITEGIC>MOL_PROPERTY
Bond
SciTegic.value.DoubleValue
0.193

@<SCITEGIC>MOL_PROPERTY
Angle
SciTegic.value.DoubleValue
2.979

@<SCITEGIC>MOL_PROPERTY
Pdih
SciTegic.value.DoubleValue
7.334

@<SCITEGIC>MOL_PROPERTY
Idih
SciTegic.value.DoubleValue
0.001

@<SCITEGIC>MOL_PROPERTY
Tether
SciTegic.value.DoubleValue
0.000

@<TRIPOS>MOLECULE
guest-8_confgen4.mol2 : confsearch ligand conformer 988
          25          24           1
SMALL
USER_CHARGES
 
@<TRIPOS>ATOM
       1    C1      18.303164   21.026681   20.150579 C.2        1 MOL1         0.6168
       2    O1      19.208350   21.535009   19.518967 O.co2      1 MOL1        -0.6703
       3    O2      17.126734   21.218198   19.913775 O.co2      1 MOL1        -0.6703
       4    C2      18.663074   20.117380   21.320047 C.3        1 MOL1        -0.1963
       5    H1      19.596693   19.602830   21.066445 H          1 MOL1         0.0750
       6    H2      17.882756   19.352112   21.408495 H          1 MOL1         0.0750
       7    C3      18.809473   20.889667   22.656978 C.3        1 MOL1        -0.1860
       8    H3      19.625155   21.620814   22.570870 H          1 MOL1         0.0752
       9    H4      17.891830   21.468199   22.832131 H          1 MOL1         0.0752
      10    C4      19.056906   19.971540   23.877622 C.3        1 MOL1        -0.1858
      11    H5      18.234937   19.248064   23.966627 H          1 MOL1         0.0752
      12    H6      19.029077   20.587033   24.787185 H          1 MOL1         0.0752
      13    C5      20.407368   19.220552   23.818772 C.3        1 MOL1        -0.1858
      14    H7      20.417946   18.551262   22.950114 H          1 MOL1         0.0752
      15    H8      21.223192   19.942859   23.679967 H          1 MOL1         0.0752
      16    C6      20.658607   18.399160   25.104618 C.3        1 MOL1        -0.1858
      17    H9      19.869228   17.644074   25.221294 H          1 MOL1         0.0752
      18    H10     20.583273   19.065029   25.975129 H          1 MOL1         0.0752
      19    C7      22.042529   17.709420   25.133530 C.3        1 MOL1        -0.1834
      20    H11     22.834843   18.462556   25.022482 H          1 MOL1         0.0752
      21    H12     22.186927   17.250799   26.121478 H          1 MOL1         0.0752
      22    C8      22.206090   16.619923   24.051482 C.3        1 MOL1        -0.2849
      23    H13     22.186446   17.050714   23.042661 H          1 MOL1         0.0764
      24    H14     23.165620   16.100582   24.171828 H          1 MOL1         0.0764
      25    H15     21.405734   15.871955   24.122777 H          1 MOL1         0.0764
@<TRIPOS>BOND
    1     1     2    1
    2     1     3    2
    3     1     4    1
    4     4     5    1
    5     4     6    1
    6     4     7    1
    7     7     8    1
    8     7     9    1
    9     7    10    1
   10    10    11    1
   11    10    12    1
   12    10    13    1
   13    13    14    1
   14    13    15    1
   15    13    16    1
   16    16    17    1
   17    16    18    1
   18    16    19    1
   19    19    20    1
   20    19    21    1
   21    19    22    1
   22    22    23    1
   23    22    24    1
   24    22    25    1
@<TRIPOS>SUBSTRUCTURE
       1 MOL1            1 RESIDUE      1      MOL     
@<SCITEGIC>MOL_PROPERTY
VConf Rank
SciTegic.value.IntegerValue
988

@<SCITEGIC>MOL_PROPERTY
Conf_Id
SciTegic.value.IntegerValue
4

@<SCITEGIC>MOL_PROPERTY
Delta U+W
SciTegic.value.DoubleValue
0.189

@<SCITEGIC>MOL_PROPERTY
U+W
SciTegic.value.DoubleValue
-51.441

@<SCITEGIC>MOL_PROPERTY
Grad RMS
SciTegic.value.DoubleValue
0.000000

@<SCITEGIC>MOL_PROPERTY
U
SciTegic.value.DoubleValue
7.701

@<SCITEGIC>MOL_PROPERTY
W
SciTegic.value.DoubleValue
-59.141

@<SCITEGIC>MOL_PROPERTY
W(PB)
SciTegic.value.DoubleValue
-61.609

@<SCITEGIC>MOL_PROPERTY
W(SA)
SciTegic.value.DoubleValue
2.467

@<SCITEGIC>MOL_PROPERTY
Valence
SciTegic.value.DoubleValue
8.550

@<SCITEGIC>MOL_PROPERTY
Coulomb
SciTegic.value.DoubleValue
-1.988

@<SCITEGIC>MOL_PROPERTY
VdW
SciTegic.value.DoubleValue
1.139

@<SCITEGIC>MOL_PROPERTY
VdW6
SciTegic.value.DoubleValue
-8.988

@<SCITEGIC>MOL_PROPERTY
VdW12
SciTegic.value.DoubleValue
10.127

@<SCITEGIC>MOL_PROPERTY
Bond
SciTegic.value.DoubleValue
0.191

@<SCITEGIC>MOL_PROPERTY
Angle
SciTegic.value.DoubleValue
2.738

@<SCITEGIC>MOL_PROPERTY
Pdih
SciTegic.value.DoubleValue
5.621

@<SCITEGIC>MOL_PROPERTY
Idih
SciTegic.value.DoubleValue
0.001

@<SCITEGIC>MOL_PROPERTY
Tether
SciTegic.value.DoubleValue
0.000

@<TRIPOS>MOLECULE
guest-8_confgen4.mol2 : confsearch ligand conformer 989
          25          24           1
SMALL
USER_CHARGES
 
@<TRIPOS>ATOM
       1    C1      18.388169   15.479775   23.035350 C.2        1 MOL1         0.6168
       2    O1      17.199160   15.663721   22.864718 O.co2      1 MOL1        -0.6703
       3    O2      18.915932   14.386905   22.973367 O.co2      1 MOL1        -0.6703
       4    C2      19.270572   16.689956   23.319687 C.3        1 MOL1        -0.1963
       5    H1      20.096102   16.365033   23.964111 H          1 MOL1         0.0750
       6    H2      18.674326   17.409451   23.891998 H          1 MOL1         0.0750
       7    C3      19.825564   17.344064   22.027648 C.3        1 MOL1        -0.1860
       8    H3      20.335728   16.573254   21.433483 H          1 MOL1         0.0752
       9    H4      18.990666   17.707427   21.412633 H          1 MOL1         0.0752
      10    C4      20.818398   18.499881   22.296948 C.3        1 MOL1        -0.1858
      11    H5      21.246626   18.821250   21.337650 H          1 MOL1         0.0752
      12    H6      21.656800   18.131079   22.903611 H          1 MOL1         0.0752
      13    C5      20.169265   19.718963   22.992404 C.3        1 MOL1        -0.1858
      14    H7      19.301023   20.054764   22.409346 H          1 MOL1         0.0752
      15    H8      19.798823   19.423462   23.981382 H          1 MOL1         0.0752
      16    C6      21.170890   20.887054   23.145749 C.3        1 MOL1        -0.1858
      17    H9      21.585235   21.135113   22.159023 H          1 MOL1         0.0752
      18    H10     22.018398   20.568286   23.767845 H          1 MOL1         0.0752
      19    C7      20.539272   22.164207   23.747212 C.3        1 MOL1        -0.1834
      20    H11     21.280561   22.974396   23.710964 H          1 MOL1         0.0752
      21    H12     19.694297   22.488930   23.124411 H          1 MOL1         0.0752
      22    C8      20.069834   21.985485   25.207442 C.3        1 MOL1        -0.2849
      23    H13     20.891019   21.630355   25.843562 H          1 MOL1         0.0764
      24    H14     19.714674   22.940418   25.615926 H          1 MOL1         0.0764
      25    H15     19.243732   21.266956   25.277859 H          1 MOL1         0.0764
@<TRIPOS>BOND
    1     1     2    1
    2     1     3    2
    3     1     4    1
    4     4     5    1
    5     4     6    1
    6     4     7    1
    7     7     8    1
    8     7     9    1
    9     7    10    1
   10    10    11    1
   11    10    12    1
   12    10    13    1
   13    13    14    1
   14    13    15    1
   15    13    16    1
   16    16    17    1
   17    16    18    1
   18    16    19    1
   19    19    20    1
   20    19    21    1
   21    19    22    1
   22    22    23    1
   23    22    24    1
   24    22    25    1
@<TRIPOS>SUBSTRUCTURE
       1 MOL1            1 RESIDUE      1      MOL     
@<SCITEGIC>MOL_PROPERTY
VConf Rank
SciTegic.value.IntegerValue
989

@<SCITEGIC>MOL_PROPERTY
Conf_Id
SciTegic.value.IntegerValue
17

@<SCITEGIC>MOL_PROPERTY
Delta U+W
SciTegic.value.DoubleValue
0.219

@<SCITEGIC>MOL_PROPERTY
U+W
SciTegic.value.DoubleValue
-51.411

@<SCITEGIC>MOL_PROPERTY
Grad RMS
SciTegic.value.DoubleValue
0.000000

@<SCITEGIC>MOL_PROPERTY
U
SciTegic.value.DoubleValue
7.701

@<SCITEGIC>MOL_PROPERTY
W
SciTegic.value.DoubleValue
-59.111

@<SCITEGIC>MOL_PROPERTY
W(PB)
SciTegic.value.DoubleValue
-61.599

@<SCITEGIC>MOL_PROPERTY
W(SA)
SciTegic.value.DoubleValue
2.488

@<SCITEGIC>MOL_PROPERTY
Valence
SciTegic.value.DoubleValue
8.550

@<SCITEGIC>MOL_PROPERTY
Coulomb
SciTegic.value.DoubleValue
-1.988

@<SCITEGIC>MOL_PROPERTY
VdW
SciTegic.value.DoubleValue
1.139

@<SCITEGIC>MOL_PROPERTY
VdW6
SciTegic.value.DoubleValue
-8.988

@<SCITEGIC>MOL_PROPERTY
VdW12
SciTegic.value.DoubleValue
10.127

@<SCITEGIC>MOL_PROPERTY
Bond
SciTegic.value.DoubleValue
0.191

@<SCITEGIC>MOL_PROPERTY
Angle
SciTegic.value.DoubleValue
2.738

@<SCITEGIC>MOL_PROPERTY
Pdih
SciTegic.value.DoubleValue
5.621

@<SCITEGIC>MOL_PROPERTY
Idih
SciTegic.value.DoubleValue
0.001

@<SCITEGIC>MOL_PROPERTY
Tether
SciTegic.value.DoubleValue
0.000

@<TRIPOS>MOLECULE
guest-8_confgen4.mol2 : confsearch ligand conformer 990
          25          24           1
SMALL
USER_CHARGES
 
@<TRIPOS>ATOM
       1    C1      22.128809   16.480319   24.678052 C.2        1 MOL1         0.6168
       2    O1      22.604359   16.761955   25.760455 O.co2      1 MOL1        -0.6703
       3    O2      22.794523   16.296103   23.678070 O.co2      1 MOL1        -0.6703
       4    C2      20.613923   16.330211   24.570721 C.3        1 MOL1        -0.1963
       5    H1      20.206196   16.168156   25.575843 H          1 MOL1         0.0750
       6    H2      20.414197   15.417906   23.996446 H          1 MOL1         0.0750
       7    C3      19.908948   17.533856   23.893118 C.3        1 MOL1        -0.1860
       8    H3      20.346709   17.687856   22.897971 H          1 MOL1         0.0752
       9    H4      18.849772   17.286994   23.739920 H          1 MOL1         0.0752
      10    C4      20.015414   18.830495   24.731059 C.3        1 MOL1        -0.1858
      11    H5      21.069260   19.125251   24.830300 H          1 MOL1         0.0752
      12    H6      19.653947   18.628594   25.748618 H          1 MOL1         0.0752
      13    C5      19.203313   20.010413   24.146246 C.3        1 MOL1        -0.1858
      14    H7      18.147544   19.721012   24.054333 H          1 MOL1         0.0752
      15    H8      19.235951   20.843299   24.861855 H          1 MOL1         0.0752
      16    C6      19.730241   20.502667   22.778378 C.3        1 MOL1        -0.1858
      17    H9      19.634616   19.704707   22.030685 H          1 MOL1         0.0752
      18    H10     20.799951   20.738991   22.860621 H          1 MOL1         0.0752
      19    C7      18.963762   21.748718   22.286835 C.3        1 MOL1        -0.1834
      20    H11     17.892922   21.516117   22.205245 H          1 MOL1         0.0752
      21    H12     19.059538   22.557897   23.024046 H          1 MOL1         0.0752
      22    C8      19.487862   22.236146   20.921018 C.3        1 MOL1        -0.2849
      23    H13     19.374459   21.456927   20.155943 H          1 MOL1         0.0764
      24    H14     18.932405   23.122209   20.587227 H          1 MOL1         0.0764
      25    H15     20.550582   22.505133   20.981457 H          1 MOL1         0.0764
@<TRIPOS>BOND
    1     1     2    1
    2     1     3    2
    3     1     4    1
    4     4     5    1
    5     4     6    1
    6     4     7    1
    7     7     8    1
    8     7     9    1
    9     7    10    1
   10    10    11    1
   11    10    12    1
   12    10    13    1
   13    13    14    1
   14    13    15    1
   15    13    16    1
   16    16    17    1
   17    16    18    1
   18    16    19    1
   19    19    20    1
   20    19    21    1
   21    19    22    1
   22    22    23    1
   23    22    24    1
   24    22    25    1
@<TRIPOS>SUBSTRUCTURE
       1 MOL1            1 RESIDUE      1      MOL     
@<SCITEGIC>MOL_PROPERTY
VConf Rank
SciTegic.value.IntegerValue
990

@<SCITEGIC>MOL_PROPERTY
Conf_Id
SciTegic.value.IntegerValue
142

@<SCITEGIC>MOL_PROPERTY
Delta U+W
SciTegic.value.DoubleValue
0.593

@<SCITEGIC>MOL_PROPERTY
U+W
SciTegic.value.DoubleValue
-51.037

@<SCITEGIC>MOL_PROPERTY
Grad RMS
SciTegic.value.DoubleValue
0.000000

@<SCITEGIC>MOL_PROPERTY
U
SciTegic.value.DoubleValue
8.903

@<SCITEGIC>MOL_PROPERTY
W
SciTegic.value.DoubleValue
-59.940

@<SCITEGIC>MOL_PROPERTY
W(PB)
SciTegic.value.DoubleValue
-62.418

@<SCITEGIC>MOL_PROPERTY
W(SA)
SciTegic.value.DoubleValue
2.478

@<SCITEGIC>MOL_PROPERTY
Valence
SciTegic.value.DoubleValue
8.305

@<SCITEGIC>MOL_PROPERTY
Coulomb
SciTegic.value.DoubleValue
-0.223

@<SCITEGIC>MOL_PROPERTY
VdW
SciTegic.value.DoubleValue
0.821

@<SCITEGIC>MOL_PROPERTY
VdW6
SciTegic.value.DoubleValue
-9.236

@<SCITEGIC>MOL_PROPERTY
VdW12
SciTegic.value.DoubleValue
10.057

@<SCITEGIC>MOL_PROPERTY
Bond
SciTegic.value.DoubleValue
0.173

@<SCITEGIC>MOL_PROPERTY
Angle
SciTegic.value.DoubleValue
2.663

@<SCITEGIC>MOL_PROPERTY
Pdih
SciTegic.value.DoubleValue
5.469

@<SCITEGIC>MOL_PROPERTY
Idih
SciTegic.value.DoubleValue
0.001

@<SCITEGIC>MOL_PROPERTY
Tether
SciTegic.value.DoubleValue
0.000

@<TRIPOS>MOLECULE
guest-8_confgen4.mol2 : confsearch ligand conformer 991
          25          24           1
SMALL
USER_CHARGES
 
@<TRIPOS>ATOM
       1    C1      17.692154   21.416152   22.495169 C.2        1 MOL1         0.6168
       2    O1      17.425932   22.598150   22.592970 O.co2      1 MOL1        -0.6703
       3    O2      17.521658   20.770716   21.479590 O.co2      1 MOL1        -0.6703
       4    C2      18.244500   20.700025   23.724401 C.3        1 MOL1        -0.1963
       5    H1      18.167491   19.618358   23.565139 H          1 MOL1         0.0750
       6    H2      17.582948   20.937954   24.565387 H          1 MOL1         0.0750
       7    C3      19.701461   21.096648   24.087838 C.3        1 MOL1        -0.1860
       8    H3      19.728728   22.172790   24.307730 H          1 MOL1         0.0752
       9    H4      19.992040   20.592503   25.018563 H          1 MOL1         0.0752
      10    C4      20.743745   20.790703   22.981183 C.3        1 MOL1        -0.1858
      11    H5      21.734180   21.111893   23.331143 H          1 MOL1         0.0752
      12    H6      20.520935   21.407700   22.099846 H          1 MOL1         0.0752
      13    C5      20.824311   19.307908   22.539418 C.3        1 MOL1        -0.1858
      14    H7      19.873527   19.002189   22.082580 H          1 MOL1         0.0752
      15    H8      21.581049   19.224534   21.747629 H          1 MOL1         0.0752
      16    C6      21.189965   18.339600   23.688044 C.3        1 MOL1        -0.1858
      17    H9      20.405002   18.357377   24.455261 H          1 MOL1         0.0752
      18    H10     22.118394   18.675307   24.169704 H          1 MOL1         0.0752
      19    C7      21.365777   16.892986   23.180270 C.3        1 MOL1        -0.1834
      20    H11     20.438869   16.556127   22.695665 H          1 MOL1         0.0752
      21    H12     22.155184   16.861326   22.416590 H          1 MOL1         0.0752
      22    C8      21.724411   15.927522   24.327856 C.3        1 MOL1        -0.2849
      23    H13     20.935678   15.914988   25.091472 H          1 MOL1         0.0764
      24    H14     21.845735   14.904373   23.949067 H          1 MOL1         0.0764
      25    H15     22.664670   16.223934   24.810977 H          1 MOL1         0.0764
@<TRIPOS>BOND
    1     1     2    1
    2     1     3    2
    3     1     4    1
    4     4     5    1
    5     4     6    1
    6     4     7    1
    7     7     8    1
    8     7     9    1
    9     7    10    1
   10    10    11    1
   11    10    12    1
   12    10    13    1
   13    13    14    1
   14    13    15    1
   15    13    16    1
   16    16    17    1
   17    16    18    1
   18    16    19    1
   19    19    20    1
   20    19    21    1
   21    19    22    1
   22    22    23    1
   23    22    24    1
   24    22    25    1
@<TRIPOS>SUBSTRUCTURE
       1 MOL1            1 RESIDUE      1      MOL     
@<SCITEGIC>MOL_PROPERTY
VConf Rank
SciTegic.value.IntegerValue
991

@<SCITEGIC>MOL_PROPERTY
Conf_Id
SciTegic.value.IntegerValue
135

@<SCITEGIC>MOL_PROPERTY
Delta U+W
SciTegic.value.DoubleValue
1.314

@<SCITEGIC>MOL_PROPERTY
U+W
SciTegic.value.DoubleValue
-50.316

@<SCITEGIC>MOL_PROPERTY
Grad RMS
SciTegic.value.DoubleValue
0.000000

@<SCITEGIC>MOL_PROPERTY
U
SciTegic.value.DoubleValue
9.773

@<SCITEGIC>MOL_PROPERTY
W
SciTegic.value.DoubleValue
-60.088

@<SCITEGIC>MOL_PROPERTY
W(PB)
SciTegic.value.DoubleValue
-62.535

@<SCITEGIC>MOL_PROPERTY
W(SA)
SciTegic.value.DoubleValue
2.447

@<SCITEGIC>MOL_PROPERTY
Valence
SciTegic.value.DoubleValue
8.741

@<SCITEGIC>MOL_PROPERTY
Coulomb
SciTegic.value.DoubleValue
0.479

@<SCITEGIC>MOL_PROPERTY
VdW
SciTegic.value.DoubleValue
0.552

@<SCITEGIC>MOL_PROPERTY
VdW6
SciTegic.value.DoubleValue
-10.627

@<SCITEGIC>MOL_PROPERTY
VdW12
SciTegic.value.DoubleValue
11.179

@<SCITEGIC>MOL_PROPERTY
Bond
SciTegic.value.DoubleValue
0.227

@<SCITEGIC>MOL_PROPERTY
Angle
SciTegic.value.DoubleValue
3.155

@<SCITEGIC>MOL_PROPERTY
Pdih
SciTegic.value.DoubleValue
5.358

@<SCITEGIC>MOL_PROPERTY
Idih
SciTegic.value.DoubleValue
0.001

@<SCITEGIC>MOL_PROPERTY
Tether
SciTegic.value.DoubleValue
0.000

@<TRIPOS>MOLECULE
guest-8_confgen4.mol2 : confsearch ligand conformer 992
          25          24           1
SMALL
USER_CHARGES
 
@<TRIPOS>ATOM
       1    C1      19.704230   15.351069   21.585906 C.2        1 MOL1         0.6168
       2    O1      20.147858   15.264562   20.457876 O.co2      1 MOL1        -0.6703
       3    O2      19.513894   14.393514   22.309528 O.co2      1 MOL1        -0.6703
       4    C2      19.390390   16.739476   22.131813 C.3        1 MOL1        -0.1963
       5    H1      18.548557   16.648244   22.828477 H          1 MOL1         0.0750
       6    H2      19.052975   17.357724   21.292711 H          1 MOL1         0.0750
       7    C3      20.604713   17.392259   22.842532 C.3        1 MOL1        -0.1860
       8    H3      20.973882   16.699631   23.611574 H          1 MOL1         0.0752
       9    H4      21.425624   17.523108   22.124016 H          1 MOL1         0.0752
      10    C4      20.276527   18.746623   23.515530 C.3        1 MOL1        -0.1858
      11    H5      21.146338   19.043990   24.114688 H          1 MOL1         0.0752
      12    H6      19.439101   18.618688   24.214764 H          1 MOL1         0.0752
      13    C5      19.951259   19.873846   22.506554 C.3        1 MOL1        -0.1858
      14    H7      20.816459   20.035273   21.849314 H          1 MOL1         0.0752
      15    H8      19.125365   19.558269   21.857104 H          1 MOL1         0.0752
      16    C6      19.547332   21.217610   23.164283 C.3        1 MOL1        -0.1858
      17    H9      18.627055   21.087860   23.750083 H          1 MOL1         0.0752
      18    H10     19.289835   21.916075   22.356375 H          1 MOL1         0.0752
      19    C7      20.649372   21.872756   24.034051 C.3        1 MOL1        -0.1834
      20    H11     21.644300   21.558564   23.689613 H          1 MOL1         0.0752
      21    H12     20.607721   22.961647   23.893047 H          1 MOL1         0.0752
      22    C8      20.486918   21.580056   25.542428 C.3        1 MOL1        -0.2849
      23    H13     20.527924   20.506012   25.756593 H          1 MOL1         0.0764
      24    H14     21.285494   22.067477   26.116453 H          1 MOL1         0.0764
      25    H15     19.526590   21.962045   25.912476 H          1 MOL1         0.0764
@<TRIPOS>BOND
    1     1     2    1
    2     1     3    2
    3     1     4    1
    4     4     5    1
    5     4     6    1
    6     4     7    1
    7     7     8    1
    8     7     9    1
    9     7    10    1
   10    10    11    1
   11    10    12    1
   12    10    13    1
   13    13    14    1
   14    13    15    1
   15    13    16    1
   16    16    17    1
   17    16    18    1
   18    16    19    1
   19    19    20    1
   20    19    21    1
   21    19    22    1
   22    22    23    1
   23    22    24    1
   24    22    25    1
@<TRIPOS>SUBSTRUCTURE
       1 MOL1            1 RESIDUE      1      MOL     
@<SCITEGIC>MOL_PROPERTY
VConf Rank
SciTegic.value.IntegerValue
992

@<SCITEGIC>MOL_PROPERTY
Conf_Id
SciTegic.value.IntegerValue
19

@<SCITEGIC>MOL_PROPERTY
Delta U+W
SciTegic.value.DoubleValue
3.222

@<SCITEGIC>MOL_PROPERTY
U+W
SciTegic.value.DoubleValue
-48.407

@<SCITEGIC>MOL_PROPERTY
Grad RMS
SciTegic.value.DoubleValue
0.000000

@<SCITEGIC>MOL_PROPERTY
U
SciTegic.value.DoubleValue
10.617

@<SCITEGIC>MOL_PROPERTY
W
SciTegic.value.DoubleValue
-59.025

@<SCITEGIC>MOL_PROPERTY
W(PB)
SciTegic.value.DoubleValue
-61.462

@<SCITEGIC>MOL_PROPERTY
W(SA)
SciTegic.value.DoubleValue
2.437

@<SCITEGIC>MOL_PROPERTY
Valence
SciTegic.value.DoubleValue
11.188

@<SCITEGIC>MOL_PROPERTY
Coulomb
SciTegic.value.DoubleValue
-1.778

@<SCITEGIC>MOL_PROPERTY
VdW
SciTegic.value.DoubleValue
1.208

@<SCITEGIC>MOL_PROPERTY
VdW6
SciTegic.value.DoubleValue
-9.786

@<SCITEGIC>MOL_PROPERTY
VdW12
SciTegic.value.DoubleValue
10.993

@<SCITEGIC>MOL_PROPERTY
Bond
SciTegic.value.DoubleValue
0.241

@<SCITEGIC>MOL_PROPERTY
Angle
SciTegic.value.DoubleValue
3.294

@<SCITEGIC>MOL_PROPERTY
Pdih
SciTegic.value.DoubleValue
7.653

@<SCITEGIC>MOL_PROPERTY
Idih
SciTegic.value.DoubleValue
0.001

@<SCITEGIC>MOL_PROPERTY
Tether
SciTegic.value.DoubleValue
0.000

@<TRIPOS>MOLECULE
guest-8_confgen4.mol2 : confsearch ligand conformer 993
          25          24           1
SMALL
USER_CHARGES
 
@<TRIPOS>ATOM
       1    C1      22.856415   16.029224   23.557802 C.2        1 MOL1         0.6168
       2    O1      22.882906   15.509888   24.656132 O.co2      1 MOL1        -0.6703
       3    O2      23.754734   15.931442   22.745255 O.co2      1 MOL1        -0.6703
       4    C2      21.639204   16.869149   23.187524 C.3        1 MOL1        -0.1963
       5    H1      20.765792   16.420100   23.672992 H          1 MOL1         0.0750
       6    H2      21.487468   16.788353   22.104567 H          1 MOL1         0.0750
       7    C3      21.791389   18.357464   23.596898 C.3        1 MOL1        -0.1860
       8    H3      21.894528   18.430771   24.688351 H          1 MOL1         0.0752
       9    H4      22.727789   18.743566   23.170838 H          1 MOL1         0.0752
      10    C4      20.625234   19.255716   23.119235 C.3        1 MOL1        -0.1858
      11    H5      20.507745   19.161527   22.031161 H          1 MOL1         0.0752
      12    H6      20.900811   20.298945   23.318534 H          1 MOL1         0.0752
      13    C5      19.281411   18.947131   23.821646 C.3        1 MOL1        -0.1858
      14    H7      19.030392   17.887982   23.685007 H          1 MOL1         0.0752
      15    H8      19.392134   19.101061   24.903609 H          1 MOL1         0.0752
      16    C6      18.086339   19.786056   23.302530 C.3        1 MOL1        -0.1858
      17    H9      17.187367   19.442747   23.832492 H          1 MOL1         0.0752
      18    H10     17.907197   19.568353   22.240730 H          1 MOL1         0.0752
      19    C7      18.220592   21.313806   23.521981 C.3        1 MOL1        -0.1834
      20    H11     17.232903   21.720159   23.780146 H          1 MOL1         0.0752
      21    H12     18.869845   21.519781   24.384117 H          1 MOL1         0.0752
      22    C8      18.733938   22.064151   22.272691 C.3        1 MOL1        -0.2849
      23    H13     18.047828   21.927766   21.426681 H          1 MOL1         0.0764
      24    H14     18.807883   23.140534   22.474528 H          1 MOL1         0.0764
      25    H15     19.724801   21.712302   21.963643 H          1 MOL1         0.0764
@<TRIPOS>BOND
    1     1     2    1
    2     1     3    2
    3     1     4    1
    4     4     5    1
    5     4     6    1
    6     4     7    1
    7     7     8    1
    8     7     9    1
    9     7    10    1
   10    10    11    1
   11    10    12    1
   12    10    13    1
   13    13    14    1
   14    13    15    1
   15    13    16    1
   16    16    17    1
   17    16    18    1
   18    16    19    1
   19    19    20    1
   20    19    21    1
   21    19    22    1
   22    22    23    1
   23    22    24    1
   24    22    25    1
@<TRIPOS>SUBSTRUCTURE
       1 MOL1            1 RESIDUE      1      MOL     
@<SCITEGIC>MOL_PROPERTY
VConf Rank
SciTegic.value.IntegerValue
993

@<SCITEGIC>MOL_PROPERTY
Conf_Id
SciTegic.value.IntegerValue
20

@<SCITEGIC>MOL_PROPERTY
Delta U+W
SciTegic.value.DoubleValue
3.224

@<SCITEGIC>MOL_PROPERTY
U+W
SciTegic.value.DoubleValue
-48.406

@<SCITEGIC>MOL_PROPERTY
Grad RMS
SciTegic.value.DoubleValue
0.000000

@<SCITEGIC>MOL_PROPERTY
U
SciTegic.value.DoubleValue
10.617

@<SCITEGIC>MOL_PROPERTY
W
SciTegic.value.DoubleValue
-59.023

@<SCITEGIC>MOL_PROPERTY
W(PB)
SciTegic.value.DoubleValue
-61.467

@<SCITEGIC>MOL_PROPERTY
W(SA)
SciTegic.value.DoubleValue
2.444

@<SCITEGIC>MOL_PROPERTY
Valence
SciTegic.value.DoubleValue
11.188

@<SCITEGIC>MOL_PROPERTY
Coulomb
SciTegic.value.DoubleValue
-1.778

@<SCITEGIC>MOL_PROPERTY
VdW
SciTegic.value.DoubleValue
1.208

@<SCITEGIC>MOL_PROPERTY
VdW6
SciTegic.value.DoubleValue
-9.786

@<SCITEGIC>MOL_PROPERTY
VdW12
SciTegic.value.DoubleValue
10.993

@<SCITEGIC>MOL_PROPERTY
Bond
SciTegic.value.DoubleValue
0.241

@<SCITEGIC>MOL_PROPERTY
Angle
SciTegic.value.DoubleValue
3.294

@<SCITEGIC>MOL_PROPERTY
Pdih
SciTegic.value.DoubleValue
7.653

@<SCITEGIC>MOL_PROPERTY
Idih
SciTegic.value.DoubleValue
0.001

@<SCITEGIC>MOL_PROPERTY
Tether
SciTegic.value.DoubleValue
0.000

@<TRIPOS>MOLECULE
guest-8_confgen4.mol2 : confsearch ligand conformer 994
          25          24           1
SMALL
USER_CHARGES
 
@<TRIPOS>ATOM
       1    C1      18.426997   16.442267   23.932388 C.2        1 MOL1         0.6168
       2    O1      17.463640   16.460766   23.191277 O.co2      1 MOL1        -0.6703
       3    O2      18.352270   16.610981   25.133708 O.co2      1 MOL1        -0.6703
       4    C2      19.796131   16.124927   23.333926 C.3        1 MOL1        -0.1963
       5    H1      19.729234   15.106181   22.934992 H          1 MOL1         0.0750
       6    H2      20.539835   16.098265   24.139521 H          1 MOL1         0.0750
       7    C3      20.263038   17.082108   22.201270 C.3        1 MOL1        -0.1860
       8    H3      21.038225   16.565775   21.619107 H          1 MOL1         0.0752
       9    H4      19.435034   17.268268   21.503167 H          1 MOL1         0.0752
      10    C4      20.857477   18.426160   22.690404 C.3        1 MOL1        -0.1858
      11    H5      21.287003   18.945835   21.822979 H          1 MOL1         0.0752
      12    H6      21.691805   18.232858   23.378420 H          1 MOL1         0.0752
      13    C5      19.829968   19.359697   23.369640 C.3        1 MOL1        -0.1858
      14    H7      18.947709   19.469068   22.724115 H          1 MOL1         0.0752
      15    H8      19.486219   18.913291   24.311215 H          1 MOL1         0.0752
      16    C6      20.430591   20.751203   23.665501 C.3        1 MOL1        -0.1858
      17    H9      20.770973   21.211984   22.728064 H          1 MOL1         0.0752
      18    H10     21.315425   20.639433   24.307067 H          1 MOL1         0.0752
      19    C7      19.408909   21.680401   24.354073 C.3        1 MOL1        -0.1834
      20    H11     18.522809   21.794909   23.714405 H          1 MOL1         0.0752
      21    H12     19.067308   21.223441   25.293275 H          1 MOL1         0.0752
      22    C8      20.011544   23.068806   24.648744 C.3        1 MOL1        -0.2849
      23    H13     20.333098   23.562119   23.722128 H          1 MOL1         0.0764
      24    H14     19.271820   23.715713   25.138011 H          1 MOL1         0.0764
      25    H15     20.881749   22.986267   25.313052 H          1 MOL1         0.0764
@<TRIPOS>BOND
    1     1     2    1
    2     1     3    2
    3     1     4    1
    4     4     5    1
    5     4     6    1
    6     4     7    1
    7     7     8    1
    8     7     9    1
    9     7    10    1
   10    10    11    1
   11    10    12    1
   12    10    13    1
   13    13    14    1
   14    13    15    1
   15    13    16    1
   16    16    17    1
   17    16    18    1
   18    16    19    1
   19    19    20    1
   20    19    21    1
   21    19    22    1
   22    22    23    1
   23    22    24    1
   24    22    25    1
@<TRIPOS>SUBSTRUCTURE
       1 MOL1            1 RESIDUE      1      MOL     
@<SCITEGIC>MOL_PROPERTY
VConf Rank
SciTegic.value.IntegerValue
994

@<SCITEGIC>MOL_PROPERTY
Conf_Id
SciTegic.value.IntegerValue
24

@<SCITEGIC>MOL_PROPERTY
Delta U+W
SciTegic.value.DoubleValue
1.784

@<SCITEGIC>MOL_PROPERTY
U+W
SciTegic.value.DoubleValue
-49.846

@<SCITEGIC>MOL_PROPERTY
Grad RMS
SciTegic.value.DoubleValue
0.000000

@<SCITEGIC>MOL_PROPERTY
U
SciTegic.value.DoubleValue
10.904

@<SCITEGIC>MOL_PROPERTY
W
SciTegic.value.DoubleValue
-60.749

@<SCITEGIC>MOL_PROPERTY
W(PB)
SciTegic.value.DoubleValue
-63.220

@<SCITEGIC>MOL_PROPERTY
W(SA)
SciTegic.value.DoubleValue
2.471

@<SCITEGIC>MOL_PROPERTY
Valence
SciTegic.value.DoubleValue
9.445

@<SCITEGIC>MOL_PROPERTY
Coulomb
SciTegic.value.DoubleValue
0.780

@<SCITEGIC>MOL_PROPERTY
VdW
SciTegic.value.DoubleValue
0.679

@<SCITEGIC>MOL_PROPERTY
VdW6
SciTegic.value.DoubleValue
-10.008

@<SCITEGIC>MOL_PROPERTY
VdW12
SciTegic.value.DoubleValue
10.687

@<SCITEGIC>MOL_PROPERTY
Bond
SciTegic.value.DoubleValue
0.201

@<SCITEGIC>MOL_PROPERTY
Angle
SciTegic.value.DoubleValue
3.198

@<SCITEGIC>MOL_PROPERTY
Pdih
SciTegic.value.DoubleValue
6.039

@<SCITEGIC>MOL_PROPERTY
Idih
SciTegic.value.DoubleValue
0.006

@<SCITEGIC>MOL_PROPERTY
Tether
SciTegic.value.DoubleValue
0.000

@<TRIPOS>MOLECULE
guest-8_confgen4.mol2 : confsearch ligand conformer 995
          25          24           1
SMALL
USER_CHARGES
 
@<TRIPOS>ATOM
       1    C1      17.959128   17.420571   25.297514 C.2        1 MOL1         0.6168
       2    O1      17.059083   17.143032   24.529052 O.co2      1 MOL1        -0.6703
       3    O2      18.794662   16.619845   25.668916 O.co2      1 MOL1        -0.6703
       4    C2      18.005478   18.831784   25.880369 C.3        1 MOL1        -0.1963
       5    H1      18.841130   18.898170   26.587521 H          1 MOL1         0.0750
       6    H2      17.087638   18.952927   26.467192 H          1 MOL1         0.0750
       7    C3      18.092400   19.978894   24.834574 C.3        1 MOL1        -0.1860
       8    H3      17.386033   19.791770   24.013828 H          1 MOL1         0.0752
       9    H4      17.754230   20.905156   25.318422 H          1 MOL1         0.0752
      10    C4      19.510637   20.234171   24.266663 C.3        1 MOL1        -0.1858
      11    H5      20.208952   20.432313   25.091242 H          1 MOL1         0.0752
      12    H6      19.477278   21.151766   23.663431 H          1 MOL1         0.0752
      13    C5      20.055149   19.083454   23.390317 C.3        1 MOL1        -0.1858
      14    H7      20.220478   18.191258   24.007293 H          1 MOL1         0.0752
      15    H8      19.309820   18.814996   22.629093 H          1 MOL1         0.0752
      16    C6      21.382586   19.468732   22.701808 C.3        1 MOL1        -0.1858
      17    H9      22.125066   19.741528   23.464262 H          1 MOL1         0.0752
      18    H10     21.227280   20.356801   22.073972 H          1 MOL1         0.0752
      19    C7      21.933037   18.316301   21.835621 C.3        1 MOL1        -0.1834
      20    H11     22.091381   17.426506   22.460758 H          1 MOL1         0.0752
      21    H12     21.192849   18.041471   21.071391 H          1 MOL1         0.0752
      22    C8      23.258629   18.703691   21.149764 C.3        1 MOL1        -0.2849
      23    H13     24.027135   18.953205   21.893078 H          1 MOL1         0.0764
      24    H14     23.635194   17.873135   20.538667 H          1 MOL1         0.0764
      25    H15     23.121755   19.572822   20.493068 H          1 MOL1         0.0764
@<TRIPOS>BOND
    1     1     2    1
    2     1     3    2
    3     1     4    1
    4     4     5    1
    5     4     6    1
    6     4     7    1
    7     7     8    1
    8     7     9    1
    9     7    10    1
   10    10    11    1
   11    10    12    1
   12    10    13    1
   13    13    14    1
   14    13    15    1
   15    13    16    1
   16    16    17    1
   17    16    18    1
   18    16    19    1
   19    19    20    1
   20    19    21    1
   21    19    22    1
   22    22    23    1
   23    22    24    1
   24    22    25    1
@<TRIPOS>SUBSTRUCTURE
       1 MOL1            1 RESIDUE      1      MOL     
@<SCITEGIC>MOL_PROPERTY
VConf Rank
SciTegic.value.IntegerValue
995

@<SCITEGIC>MOL_PROPERTY
Conf_Id
SciTegic.value.IntegerValue
9

@<SCITEGIC>MOL_PROPERTY
Delta U+W
SciTegic.value.DoubleValue
1.764

@<SCITEGIC>MOL_PROPERTY
U+W
SciTegic.value.DoubleValue
-49.865

@<SCITEGIC>MOL_PROPERTY
Grad RMS
SciTegic.value.DoubleValue
0.000000

@<SCITEGIC>MOL_PROPERTY
U
SciTegic.value.DoubleValue
10.902

@<SCITEGIC>MOL_PROPERTY
W
SciTegic.value.DoubleValue
-60.768

@<SCITEGIC>MOL_PROPERTY
W(PB)
SciTegic.value.DoubleValue
-63.223

@<SCITEGIC>MOL_PROPERTY
W(SA)
SciTegic.value.DoubleValue
2.456

@<SCITEGIC>MOL_PROPERTY
Valence
SciTegic.value.DoubleValue
9.445

@<SCITEGIC>MOL_PROPERTY
Coulomb
SciTegic.value.DoubleValue
0.778

@<SCITEGIC>MOL_PROPERTY
VdW
SciTegic.value.DoubleValue
0.679

@<SCITEGIC>MOL_PROPERTY
VdW6
SciTegic.value.DoubleValue
-10.007

@<SCITEGIC>MOL_PROPERTY
VdW12
SciTegic.value.DoubleValue
10.687

@<SCITEGIC>MOL_PROPERTY
Bond
SciTegic.value.DoubleValue
0.201

@<SCITEGIC>MOL_PROPERTY
Angle
SciTegic.value.DoubleValue
3.198

@<SCITEGIC>MOL_PROPERTY
Pdih
SciTegic.value.DoubleValue
6.040

@<SCITEGIC>MOL_PROPERTY
Idih
SciTegic.value.DoubleValue
0.006

@<SCITEGIC>MOL_PROPERTY
Tether
SciTegic.value.DoubleValue
0.000

@<TRIPOS>MOLECULE
guest-8_confgen4.mol2 : confsearch ligand conformer 996
          25          24           1
SMALL
USER_CHARGES
 
@<TRIPOS>ATOM
       1    C1      18.162702   17.526489   20.632681 C.2        1 MOL1         0.6168
       2    O1      19.190026   17.360765   20.005189 O.co2      1 MOL1        -0.6703
       3    O2      17.120931   16.952965   20.382418 O.co2      1 MOL1        -0.6703
       4    C2      18.186983   18.491985   21.812065 C.3        1 MOL1        -0.1963
       5    H1      17.199071   18.962184   21.884183 H          1 MOL1         0.0750
       6    H2      18.902158   19.286780   21.579062 H          1 MOL1         0.0750
       7    C3      18.542516   17.793633   23.151299 C.3        1 MOL1        -0.1860
       8    H3      17.790142   17.014278   23.335622 H          1 MOL1         0.0752
       9    H4      19.506025   17.272899   23.062413 H          1 MOL1         0.0752
      10    C4      18.563856   18.757957   24.364524 C.3        1 MOL1        -0.1858
      11    H5      18.192709   18.210734   25.241858 H          1 MOL1         0.0752
      12    H6      17.857065   19.584190   24.207603 H          1 MOL1         0.0752
      13    C5      19.964524   19.315168   24.722860 C.3        1 MOL1        -0.1858
      14    H7      19.873561   19.912841   25.639955 H          1 MOL1         0.0752
      15    H8      20.631920   18.477565   24.964582 H          1 MOL1         0.0752
      16    C6      20.603030   20.187944   23.616631 C.3        1 MOL1        -0.1858
      17    H9      19.867803   20.928345   23.273637 H          1 MOL1         0.0752
      18    H10     20.854518   19.563047   22.749737 H          1 MOL1         0.0752
      19    C7      21.873851   20.934954   24.084095 C.3        1 MOL1        -0.1834
      20    H11     22.206689   21.603561   23.278274 H          1 MOL1         0.0752
      21    H12     21.632098   21.578590   24.941137 H          1 MOL1         0.0752
      22    C8      23.034849   19.987777   24.457280 C.3        1 MOL1        -0.2849
      23    H13     23.277620   19.316659   23.623129 H          1 MOL1         0.0764
      24    H14     23.936878   20.563433   24.701847 H          1 MOL1         0.0764
      25    H15     22.784827   19.373867   25.331623 H          1 MOL1         0.0764
@<TRIPOS>BOND
    1     1     2    1
    2     1     3    2
    3     1     4    1
    4     4     5    1
    5     4     6    1
    6     4     7    1
    7     7     8    1
    8     7     9    1
    9     7    10    1
   10    10    11    1
   11    10    12    1
   12    10    13    1
   13    13    14    1
   14    13    15    1
   15    13    16    1
   16    16    17    1
   17    16    18    1
   18    16    19    1
   19    19    20    1
   20    19    21    1
   21    19    22    1
   22    22    23    1
   23    22    24    1
   24    22    25    1
@<TRIPOS>SUBSTRUCTURE
       1 MOL1            1 RESIDUE      1      MOL     
@<SCITEGIC>MOL_PROPERTY
VConf Rank
SciTegic.value.IntegerValue
996

@<SCITEGIC>MOL_PROPERTY
Conf_Id
SciTegic.value.IntegerValue
89

@<SCITEGIC>MOL_PROPERTY
Delta U+W
SciTegic.value.DoubleValue
2.903

@<SCITEGIC>MOL_PROPERTY
U+W
SciTegic.value.DoubleValue
-48.726

@<SCITEGIC>MOL_PROPERTY
Grad RMS
SciTegic.value.DoubleValue
0.000000

@<SCITEGIC>MOL_PROPERTY
U
SciTegic.value.DoubleValue
10.996

@<SCITEGIC>MOL_PROPERTY
W
SciTegic.value.DoubleValue
-59.723

@<SCITEGIC>MOL_PROPERTY
W(PB)
SciTegic.value.DoubleValue
-62.151

@<SCITEGIC>MOL_PROPERTY
W(SA)
SciTegic.value.DoubleValue
2.428

@<SCITEGIC>MOL_PROPERTY
Valence
SciTegic.value.DoubleValue
10.985

@<SCITEGIC>MOL_PROPERTY
Coulomb
SciTegic.value.DoubleValue
-0.995

@<SCITEGIC>MOL_PROPERTY
VdW
SciTegic.value.DoubleValue
1.006

@<SCITEGIC>MOL_PROPERTY
VdW6
SciTegic.value.DoubleValue
-10.062

@<SCITEGIC>MOL_PROPERTY
VdW12
SciTegic.value.DoubleValue
11.069

@<SCITEGIC>MOL_PROPERTY
Bond
SciTegic.value.DoubleValue
0.238

@<SCITEGIC>MOL_PROPERTY
Angle
SciTegic.value.DoubleValue
3.202

@<SCITEGIC>MOL_PROPERTY
Pdih
SciTegic.value.DoubleValue
7.544

@<SCITEGIC>MOL_PROPERTY
Idih
SciTegic.value.DoubleValue
0.001

@<SCITEGIC>MOL_PROPERTY
Tether
SciTegic.value.DoubleValue
0.000

@<TRIPOS>MOLECULE
guest-8_confgen4.mol2 : confsearch ligand conformer 997
          25          24           1
SMALL
USER_CHARGES
 
@<TRIPOS>ATOM
       1    C1      18.669774   21.174409   21.150116 C.2        1 MOL1         0.6168
       2    O1      19.019975   22.233569   21.632609 O.co2      1 MOL1        -0.6703
       3    O2      19.047252   20.773976   20.066247 O.co2      1 MOL1        -0.6703
       4    C2      17.651809   20.334564   21.919308 C.3        1 MOL1        -0.1963
       5    H1      16.748242   20.303510   21.299567 H          1 MOL1         0.0750
       6    H2      17.380544   20.860012   22.842936 H          1 MOL1         0.0750
       7    C3      18.096585   18.879059   22.237524 C.3        1 MOL1        -0.1860
       8    H3      17.193000   18.283294   22.424720 H          1 MOL1         0.0752
       9    H4      18.575252   18.431443   21.355429 H          1 MOL1         0.0752
      10    C4      19.019214   18.734146   23.473522 C.3        1 MOL1        -0.1858
      11    H5      19.118462   17.663261   23.690027 H          1 MOL1         0.0752
      12    H6      18.534414   19.183122   24.350986 H          1 MOL1         0.0752
      13    C5      20.426644   19.350513   23.284799 C.3        1 MOL1        -0.1858
      14    H7      20.891235   18.949410   22.373732 H          1 MOL1         0.0752
      15    H8      20.329942   20.432671   23.135073 H          1 MOL1         0.0752
      16    C6      21.367694   19.124016   24.492482 C.3        1 MOL1        -0.1858
      17    H9      20.888124   19.496114   25.408114 H          1 MOL1         0.0752
      18    H10     22.270248   19.732989   24.346019 H          1 MOL1         0.0752
      19    C7      21.788332   17.648936   24.683910 C.3        1 MOL1        -0.1834
      20    H11     20.911556   17.030200   24.914472 H          1 MOL1         0.0752
      21    H12     22.217302   17.261861   23.749380 H          1 MOL1         0.0752
      22    C8      22.819162   17.498364   25.820929 C.3        1 MOL1        -0.2849
      23    H13     22.406446   17.853580   26.774267 H          1 MOL1         0.0764
      24    H14     23.105467   16.446085   25.946587 H          1 MOL1         0.0764
      25    H15     23.729222   18.073485   25.605596 H          1 MOL1         0.0764
@<TRIPOS>BOND
    1     1     2    1
    2     1     3    2
    3     1     4    1
    4     4     5    1
    5     4     6    1
    6     4     7    1
    7     7     8    1
    8     7     9    1
    9     7    10    1
   10    10    11    1
   11    10    12    1
   12    10    13    1
   13    13    14    1
   14    13    15    1
   15    13    16    1
   16    16    17    1
   17    16    18    1
   18    16    19    1
   19    19    20    1
   20    19    21    1
   21    19    22    1
   22    22    23    1
   23    22    24    1
   24    22    25    1
@<TRIPOS>SUBSTRUCTURE
       1 MOL1            1 RESIDUE      1      MOL     
@<SCITEGIC>MOL_PROPERTY
VConf Rank
SciTegic.value.IntegerValue
997

@<SCITEGIC>MOL_PROPERTY
Conf_Id
SciTegic.value.IntegerValue
114

@<SCITEGIC>MOL_PROPERTY
Delta U+W
SciTegic.value.DoubleValue
2.758

@<SCITEGIC>MOL_PROPERTY
U+W
SciTegic.value.DoubleValue
-48.871

@<SCITEGIC>MOL_PROPERTY
Grad RMS
SciTegic.value.DoubleValue
0.000000

@<SCITEGIC>MOL_PROPERTY
U
SciTegic.value.DoubleValue
11.422

@<SCITEGIC>MOL_PROPERTY
W
SciTegic.value.DoubleValue
-60.293

@<SCITEGIC>MOL_PROPERTY
W(PB)
SciTegic.value.DoubleValue
-62.719

@<SCITEGIC>MOL_PROPERTY
W(SA)
SciTegic.value.DoubleValue
2.425

@<SCITEGIC>MOL_PROPERTY
Valence
SciTegic.value.DoubleValue
10.135

@<SCITEGIC>MOL_PROPERTY
Coulomb
SciTegic.value.DoubleValue
0.369

@<SCITEGIC>MOL_PROPERTY
VdW
SciTegic.value.DoubleValue
0.918

@<SCITEGIC>MOL_PROPERTY
VdW6
SciTegic.value.DoubleValue
-10.482

@<SCITEGIC>MOL_PROPERTY
VdW12
SciTegic.value.DoubleValue
11.400

@<SCITEGIC>MOL_PROPERTY
Bond
SciTegic.value.DoubleValue
0.245

@<SCITEGIC>MOL_PROPERTY
Angle
SciTegic.value.DoubleValue
3.539

@<SCITEGIC>MOL_PROPERTY
Pdih
SciTegic.value.DoubleValue
6.346

@<SCITEGIC>MOL_PROPERTY
Idih
SciTegic.value.DoubleValue
0.006

@<SCITEGIC>MOL_PROPERTY
Tether
SciTegic.value.DoubleValue
0.000

@<TRIPOS>MOLECULE
guest-8_confgen4.mol2 : confsearch ligand conformer 998
          25          24           1
SMALL
USER_CHARGES
 
@<TRIPOS>ATOM
       1    C1      22.992409   18.586193   25.967802 C.2        1 MOL1         0.6168
       2    O1      22.557419   17.780952   26.767447 O.co2      1 MOL1        -0.6703
       3    O2      23.977345   18.389864   25.283366 O.co2      1 MOL1        -0.6703
       4    C2      22.276048   19.926502   25.828701 C.3        1 MOL1        -0.1963
       5    H1      23.043341   20.709543   25.819427 H          1 MOL1         0.0750
       6    H2      21.665137   20.091431   26.724447 H          1 MOL1         0.0750
       7    C3      21.401313   20.042958   24.553454 C.3        1 MOL1        -0.1860
       8    H3      21.031524   21.073551   24.467533 H          1 MOL1         0.0752
       9    H4      22.030744   19.856500   23.673467 H          1 MOL1         0.0752
      10    C4      20.199204   19.068315   24.569635 C.3        1 MOL1        -0.1858
      11    H5      19.639175   19.210183   25.504024 H          1 MOL1         0.0752
      12    H6      20.559552   18.030367   24.580353 H          1 MOL1         0.0752
      13    C5      19.227103   19.264258   23.381650 C.3        1 MOL1        -0.1858
      14    H7      18.344102   18.637564   23.559833 H          1 MOL1         0.0752
      15    H8      18.872739   20.303784   23.363360 H          1 MOL1         0.0752
      16    C6      19.847871   18.898979   22.010606 C.3        1 MOL1        -0.1858
      17    H9      20.205323   17.860467   22.030687 H          1 MOL1         0.0752
      18    H10     20.728452   19.527992   21.828998 H          1 MOL1         0.0752
      19    C7      18.872930   19.087814   20.824744 C.3        1 MOL1        -0.1834
      20    H11     18.504292   20.122768   20.808468 H          1 MOL1         0.0752
      21    H12     19.427500   18.941737   19.887539 H          1 MOL1         0.0752
      22    C8      17.678001   18.109847   20.849877 C.3        1 MOL1        -0.2849
      23    H13     17.072928   18.220452   19.940726 H          1 MOL1         0.0764
      24    H14     18.023076   17.068983   20.901249 H          1 MOL1         0.0764
      25    H15     17.022290   18.298515   21.708863 H          1 MOL1         0.0764
@<TRIPOS>BOND
    1     1     2    1
    2     1     3    2
    3     1     4    1
    4     4     5    1
    5     4     6    1
    6     4     7    1
    7     7     8    1
    8     7     9    1
    9     7    10    1
   10    10    11    1
   11    10    12    1
   12    10    13    1
   13    13    14    1
   14    13    15    1
   15    13    16    1
   16    16    17    1
   17    16    18    1
   18    16    19    1
   19    19    20    1
   20    19    21    1
   21    19    22    1
   22    22    23    1
   23    22    24    1
   24    22    25    1
@<TRIPOS>SUBSTRUCTURE
       1 MOL1            1 RESIDUE      1      MOL     
@<SCITEGIC>MOL_PROPERTY
VConf Rank
SciTegic.value.IntegerValue
998

@<SCITEGIC>MOL_PROPERTY
Conf_Id
SciTegic.value.IntegerValue
87

@<SCITEGIC>MOL_PROPERTY
Delta U+W
SciTegic.value.DoubleValue
1.453

@<SCITEGIC>MOL_PROPERTY
U+W
SciTegic.value.DoubleValue
-50.176

@<SCITEGIC>MOL_PROPERTY
Grad RMS
SciTegic.value.DoubleValue
0.000000

@<SCITEGIC>MOL_PROPERTY
U
SciTegic.value.DoubleValue
9.763

@<SCITEGIC>MOL_PROPERTY
W
SciTegic.value.DoubleValue
-59.940

@<SCITEGIC>MOL_PROPERTY
W(PB)
SciTegic.value.DoubleValue
-62.392

@<SCITEGIC>MOL_PROPERTY
W(SA)
SciTegic.value.DoubleValue
2.452

@<SCITEGIC>MOL_PROPERTY
Valence
SciTegic.value.DoubleValue
8.883

@<SCITEGIC>MOL_PROPERTY
Coulomb
SciTegic.value.DoubleValue
-0.122

@<SCITEGIC>MOL_PROPERTY
VdW
SciTegic.value.DoubleValue
1.003

@<SCITEGIC>MOL_PROPERTY
VdW6
SciTegic.value.DoubleValue
-9.782

@<SCITEGIC>MOL_PROPERTY
VdW12
SciTegic.value.DoubleValue
10.785

@<SCITEGIC>MOL_PROPERTY
Bond
SciTegic.value.DoubleValue
0.212

@<SCITEGIC>MOL_PROPERTY
Angle
SciTegic.value.DoubleValue
2.940

@<SCITEGIC>MOL_PROPERTY
Pdih
SciTegic.value.DoubleValue
5.730

@<SCITEGIC>MOL_PROPERTY
Idih
SciTegic.value.DoubleValue
0.001

@<SCITEGIC>MOL_PROPERTY
Tether
SciTegic.value.DoubleValue
0.000

@<TRIPOS>MOLECULE
guest-8_confgen4.mol2 : confsearch ligand conformer 999
          25          24           1
SMALL
USER_CHARGES
 
@<TRIPOS>ATOM
       1    C1      16.354602   17.851865   22.743281 C.2        1 MOL1         0.6168
       2    O1      15.725473   18.888750   22.819117 O.co2      1 MOL1        -0.6703
       3    O2      16.034478   16.920659   22.031158 O.co2      1 MOL1        -0.6703
       4    C2      17.626142   17.718882   23.573743 C.3        1 MOL1        -0.1963
       5    H1      17.739164   16.665634   23.857249 H          1 MOL1         0.0750
       6    H2      17.490182   18.291389   24.499121 H          1 MOL1         0.0750
       7    C3      18.888569   18.209767   22.823237 C.3        1 MOL1        -0.1860
       8    H3      19.007021   17.633651   21.895228 H          1 MOL1         0.0752
       9    H4      18.743606   19.258837   22.533021 H          1 MOL1         0.0752
      10    C4      20.161516   18.070544   23.689752 C.3        1 MOL1        -0.1858
      11    H5      20.251602   17.029250   24.027706 H          1 MOL1         0.0752
      12    H6      20.060623   18.677908   24.598783 H          1 MOL1         0.0752
      13    C5      21.462270   18.454485   22.940775 C.3        1 MOL1        -0.1858
      14    H7      22.319293   18.271816   23.602230 H          1 MOL1         0.0752
      15    H8      21.594500   17.773640   22.089049 H          1 MOL1         0.0752
      16    C6      21.520832   19.915089   22.420174 C.3        1 MOL1        -0.1858
      17    H9      20.765312   20.051757   21.635459 H          1 MOL1         0.0752
      18    H10     22.490303   20.072389   21.928369 H          1 MOL1         0.0752
      19    C7      21.326525   21.008248   23.499701 C.3        1 MOL1        -0.1834
      20    H11     21.362154   21.992128   23.012243 H          1 MOL1         0.0752
      21    H12     20.326078   20.926009   23.944871 H          1 MOL1         0.0752
      22    C8      22.397237   20.965154   24.611348 C.3        1 MOL1        -0.2849
      23    H13     23.407305   21.029564   24.186438 H          1 MOL1         0.0764
      24    H14     22.266583   21.806767   25.303696 H          1 MOL1         0.0764
      25    H15     22.327639   20.039192   25.195896 H          1 MOL1         0.0764
@<TRIPOS>BOND
    1     1     2    1
    2     1     3    2
    3     1     4    1
    4     4     5    1
    5     4     6    1
    6     4     7    1
    7     7     8    1
    8     7     9    1
    9     7    10    1
   10    10    11    1
   11    10    12    1
   12    10    13    1
   13    13    14    1
   14    13    15    1
   15    13    16    1
   16    16    17    1
   17    16    18    1
   18    16    19    1
   19    19    20    1
   20    19    21    1
   21    19    22    1
   22    22    23    1
   23    22    24    1
   24    22    25    1
@<TRIPOS>SUBSTRUCTURE
       1 MOL1            1 RESIDUE      1      MOL     
@<SCITEGIC>MOL_PROPERTY
VConf Rank
SciTegic.value.IntegerValue
999

@<SCITEGIC>MOL_PROPERTY
Conf_Id
SciTegic.value.IntegerValue
29

@<SCITEGIC>MOL_PROPERTY
Delta U+W
SciTegic.value.DoubleValue
0.850

@<SCITEGIC>MOL_PROPERTY
U+W
SciTegic.value.DoubleValue
-50.780

@<SCITEGIC>MOL_PROPERTY
Grad RMS
SciTegic.value.DoubleValue
0.000000

@<SCITEGIC>MOL_PROPERTY
U
SciTegic.value.DoubleValue
8.646

@<SCITEGIC>MOL_PROPERTY
W
SciTegic.value.DoubleValue
-59.426

@<SCITEGIC>MOL_PROPERTY
W(PB)
SciTegic.value.DoubleValue
-61.868

@<SCITEGIC>MOL_PROPERTY
W(SA)
SciTegic.value.DoubleValue
2.442

@<SCITEGIC>MOL_PROPERTY
Valence
SciTegic.value.DoubleValue
8.924

@<SCITEGIC>MOL_PROPERTY
Coulomb
SciTegic.value.DoubleValue
-1.171

@<SCITEGIC>MOL_PROPERTY
VdW
SciTegic.value.DoubleValue
0.894

@<SCITEGIC>MOL_PROPERTY
VdW6
SciTegic.value.DoubleValue
-10.223

@<SCITEGIC>MOL_PROPERTY
VdW12
SciTegic.value.DoubleValue
11.117

@<SCITEGIC>MOL_PROPERTY
Bond
SciTegic.value.DoubleValue
0.231

@<SCITEGIC>MOL_PROPERTY
Angle
SciTegic.value.DoubleValue
3.232

@<SCITEGIC>MOL_PROPERTY
Pdih
SciTegic.value.DoubleValue
5.461

@<SCITEGIC>MOL_PROPERTY
Idih
SciTegic.value.DoubleValue
0.001

@<SCITEGIC>MOL_PROPERTY
Tether
SciTegic.value.DoubleValue
0.000

@<TRIPOS>MOLECULE
guest-8_confgen4.mol2 : confsearch ligand conformer 1000
          25          24           1
SMALL
USER_CHARGES
 
@<TRIPOS>ATOM
       1    C1      20.523852   23.099408   23.450618 C.2        1 MOL1         0.6168
       2    O1      20.177036   23.432005   22.334471 O.co2      1 MOL1        -0.6703
       3    O2      21.387774   23.671370   24.085627 O.co2      1 MOL1        -0.6703
       4    C2      19.851069   21.885690   24.081827 C.3        1 MOL1        -0.1963
       5    H1      18.817244   21.841922   23.718697 H          1 MOL1         0.0750
       6    H2      19.807904   22.045573   25.165826 H          1 MOL1         0.0750
       7    C3      20.584446   20.559124   23.765063 C.3        1 MOL1        -0.1860
       8    H3      20.632450   20.431409   22.675490 H          1 MOL1         0.0752
       9    H4      21.620077   20.620725   24.126747 H          1 MOL1         0.0752
      10    C4      19.877827   19.344725   24.410478 C.3        1 MOL1        -0.1858
      11    H5      18.855530   19.258539   24.019470 H          1 MOL1         0.0752
      12    H6      19.777072   19.522038   25.489844 H          1 MOL1         0.0752
      13    C5      20.635536   18.009177   24.204258 C.3        1 MOL1        -0.1858
      14    H7      21.620196   18.082813   24.685398 H          1 MOL1         0.0752
      15    H8      20.102517   17.212815   24.740055 H          1 MOL1         0.0752
      16    C6      20.837995   17.583429   22.725890 C.3        1 MOL1        -0.1858
      17    H9      21.365179   16.619962   22.708547 H          1 MOL1         0.0752
      18    H10     21.509482   18.297118   22.230897 H          1 MOL1         0.0752
      19    C7      19.538987   17.455757   21.892577 C.3        1 MOL1        -0.1834
      20    H11     19.038731   18.430666   21.820943 H          1 MOL1         0.0752
      21    H12     19.808225   17.176253   20.864817 H          1 MOL1         0.0752
      22    C8      18.555863   16.404888   22.452200 C.3        1 MOL1        -0.2849
      23    H13     18.177039   16.699366   23.438972 H          1 MOL1         0.0764
      24    H14     17.692438   16.292063   21.783997 H          1 MOL1         0.0764
      25    H15     19.040951   15.424816   22.547514 H          1 MOL1         0.0764
@<TRIPOS>BOND
    1     1     2    1
    2     1     3    2
    3     1     4    1
    4     4     5    1
    5     4     6    1
    6     4     7    1
    7     7     8    1
    8     7     9    1
    9     7    10    1
   10    10    11    1
   11    10    12    1
   12    10    13    1
   13    13    14    1
   14    13    15    1
   15    13    16    1
   16    16    17    1
   17    16    18    1
   18    16    19    1
   19    19    20    1
   20    19    21    1
   21    19    22    1
   22    22    23    1
   23    22    24    1
   24    22    25    1
@<TRIPOS>SUBSTRUCTURE
       1 MOL1            1 RESIDUE      1      MOL     
@<SCITEGIC>MOL_PROPERTY
VConf Rank
SciTegic.value.IntegerValue
1000

@<SCITEGIC>MOL_PROPERTY
Conf_Id
SciTegic.value.IntegerValue
30

@<SCITEGIC>MOL_PROPERTY
Delta U+W
SciTegic.value.DoubleValue
0.843

@<SCITEGIC>MOL_PROPERTY
U+W
SciTegic.value.DoubleValue
-50.787

@<SCITEGIC>MOL_PROPERTY
Grad RMS
SciTegic.value.DoubleValue
0.000000

@<SCITEGIC>MOL_PROPERTY
U
SciTegic.value.DoubleValue
8.647

@<SCITEGIC>MOL_PROPERTY
W
SciTegic.value.DoubleValue
-59.434

@<SCITEGIC>MOL_PROPERTY
W(PB)
SciTegic.value.DoubleValue
-61.861

@<SCITEGIC>MOL_PROPERTY
W(SA)
SciTegic.value.DoubleValue
2.428

@<SCITEGIC>MOL_PROPERTY
Valence
SciTegic.value.DoubleValue
8.924

@<SCITEGIC>MOL_PROPERTY
Coulomb
SciTegic.value.DoubleValue
-1.170

@<SCITEGIC>MOL_PROPERTY
VdW
SciTegic.value.DoubleValue
0.894

@<SCITEGIC>MOL_PROPERTY
VdW6
SciTegic.value.DoubleValue
-10.224

@<SCITEGIC>MOL_PROPERTY
VdW12
SciTegic.value.DoubleValue
11.118

@<SCITEGIC>MOL_PROPERTY
Bond
SciTegic.value.DoubleValue
0.231

@<SCITEGIC>MOL_PROPERTY
Angle
SciTegic.value.DoubleValue
3.232

@<SCITEGIC>MOL_PROPERTY
Pdih
SciTegic.value.DoubleValue
5.460

@<SCITEGIC>MOL_PROPERTY
Idih
SciTegic.value.DoubleValue
0.000

@<SCITEGIC>MOL_PROPERTY
Tether
SciTegic.value.DoubleValue
0.000

