@<TRIPOS>MOLECULE
guest-s13_vm2.mol2 : vm2 ligand conformer 1
          26          25           1
SMALL
USER_CHARGES
 
@<TRIPOS>ATOM
       1    C1      20.241427   18.656338   18.805962 C.3        1 MOL1        -0.2398
       2    H1      19.604562   19.497214   18.501702 H          1 MOL1         0.0972
       3    H2      21.055721   18.568691   18.075010 H          1 MOL1         0.0972
       4    H3      19.642417   17.737742   18.754872 H          1 MOL1         0.0972
       5    C2      20.805069   18.872830   20.226373 C.3        1 MOL1        -0.1383
       6    H4      21.426428   19.779318   20.237684 H          1 MOL1         0.0961
       7    H5      21.464179   18.033379   20.488698 H          1 MOL1         0.0961
       8    C3      19.678467   18.999468   21.275693 C.3        1 MOL1        -0.1407
       9    H6      19.020756   19.837628   21.006682 H          1 MOL1         0.0961
      10    H7      19.059242   18.091836   21.259431 H          1 MOL1         0.0961
      11    C4      20.238915   19.217313   22.699427 C.3        1 MOL1        -0.1407
      12    H8      20.854941   20.127250   22.715033 H          1 MOL1         0.0961
      13    H9      20.899964   18.379309   22.957561 H          1 MOL1         0.0961
      14    C5      19.107587   19.342248   23.748809 C.3        1 MOL1        -0.1472
      15    H10     18.427922   20.149003   23.443338 H          1 MOL1         0.0961
      16    H11     18.511888   18.419809   23.764592 H          1 MOL1         0.0961
      17    C6      19.633133   19.645588   25.168764 C.3        1 MOL1         0.1190
      18    H12     20.241854   20.553890   25.122221 H          1 MOL1         0.0923
      19    C7      18.460530   19.899599   26.129594 C.3        1 MOL1        -0.2463
      20    H13     17.844626   20.737666   25.780257 H          1 MOL1         0.0972
      21    H14     18.827553   20.152080   27.132052 H          1 MOL1         0.0972
      22    H15     17.817273   19.014704   26.213826 H          1 MOL1         0.0972
      23    N1      20.522872   18.554616   25.699379 N.4        1 MOL1        -0.5974
      24    H16     20.876897   18.781484   26.632986 H          1 MOL1         0.3625
      25    H17     20.021710   17.665125   25.769693 H          1 MOL1         0.3625
      26    H18     21.333712   18.404948   25.093137 H          1 MOL1         0.3625
@<TRIPOS>BOND
    1     1     2    1
    2     1     3    1
    3     1     4    1
    4     1     5    1
    5     5     6    1
    6     5     7    1
    7     5     8    1
    8     8     9    1
    9     8    10    1
   10     8    11    1
   11    11    12    1
   12    11    13    1
   13    11    14    1
   14    14    15    1
   15    14    16    1
   16    14    17    1
   17    17    18    1
   18    17    19    1
   19    19    20    1
   20    19    21    1
   21    19    22    1
   22    17    23    1
   23    23    24    1
   24    23    25    1
   25    23    26    1
@<TRIPOS>SUBSTRUCTURE
       1 MOL1            1 RESIDUE      1      MOL     
@<SCITEGIC>MOL_PROPERTY
VM2 Rank
SciTegic.value.IntegerValue
1

@<SCITEGIC>MOL_PROPERTY
Conf_Id
SciTegic.value.IntegerValue
1163

@<SCITEGIC>MOL_PROPERTY
Probability
SciTegic.value.DoubleValue
17.00

@<SCITEGIC>MOL_PROPERTY
Sum Probability
SciTegic.value.DoubleValue
17.00

@<SCITEGIC>MOL_PROPERTY
Delta G
SciTegic.value.DoubleValue
0.000

@<SCITEGIC>MOL_PROPERTY
G
SciTegic.value.DoubleValue
23.710

@<SCITEGIC>MOL_PROPERTY
E
SciTegic.value.DoubleValue
-8.843

@<SCITEGIC>MOL_PROPERTY
-TS
SciTegic.value.DoubleValue
32.553

@<SCITEGIC>MOL_PROPERTY
U+W
SciTegic.value.DoubleValue
-30.305

@<SCITEGIC>MOL_PROPERTY
U
SciTegic.value.DoubleValue
23.517

@<SCITEGIC>MOL_PROPERTY
W
SciTegic.value.DoubleValue
-53.819

@<SCITEGIC>MOL_PROPERTY
W(PB)
SciTegic.value.DoubleValue
-56.165

@<SCITEGIC>MOL_PROPERTY
W(SA)
SciTegic.value.DoubleValue
2.346

@<SCITEGIC>MOL_PROPERTY
Valence
SciTegic.value.DoubleValue
2.737

@<SCITEGIC>MOL_PROPERTY
Coulomb
SciTegic.value.DoubleValue
19.862

@<SCITEGIC>MOL_PROPERTY
VdW
SciTegic.value.DoubleValue
0.919

@<SCITEGIC>MOL_PROPERTY
VdW6
SciTegic.value.DoubleValue
-6.793

@<SCITEGIC>MOL_PROPERTY
VdW12
SciTegic.value.DoubleValue
7.712

@<SCITEGIC>MOL_PROPERTY
Bond
SciTegic.value.DoubleValue
0.171

@<SCITEGIC>MOL_PROPERTY
Angle
SciTegic.value.DoubleValue
0.873

@<SCITEGIC>MOL_PROPERTY
Pdih
SciTegic.value.DoubleValue
1.693

@<SCITEGIC>MOL_PROPERTY
Idih
SciTegic.value.DoubleValue
0.000

@<SCITEGIC>MOL_PROPERTY
Tether
SciTegic.value.DoubleValue
0.000

@<TRIPOS>MOLECULE
guest-s13_vm2.mol2 : vm2 ligand conformer 2
          26          25           1
SMALL
USER_CHARGES
 
@<TRIPOS>ATOM
       1    C1      20.265147   18.643745   18.802583 C.3        1 MOL1        -0.2398
       2    H1      20.317550   19.278308   17.908361 H          1 MOL1         0.0972
       3    H2      21.174192   18.028977   18.833242 H          1 MOL1         0.0972
       4    H3      19.402821   17.973668   18.690203 H          1 MOL1         0.0972
       5    C2      20.135384   19.506153   20.075978 C.3        1 MOL1        -0.1383
       6    H4      19.236448   20.133995   20.000792 H          1 MOL1         0.0961
       7    H5      20.994144   20.188779   20.142947 H          1 MOL1         0.0961
       8    C3      20.059582   18.636608   21.350552 C.3        1 MOL1        -0.1407
       9    H6      19.200816   17.954854   21.278227 H          1 MOL1         0.0961
      10    H7      20.958837   18.008787   21.418655 H          1 MOL1         0.0961
      11    C4      19.930141   19.496835   22.628130 C.3        1 MOL1        -0.1407
      12    H8      19.034004   20.125676   22.545480 H          1 MOL1         0.0961
      13    H9      20.791708   20.174878   22.702224 H          1 MOL1         0.0961
      14    C5      19.849872   18.622197   23.903579 C.3        1 MOL1        -0.1472
      15    H10     18.953213   17.989512   23.863064 H          1 MOL1         0.0961
      16    H11     20.710964   17.940932   23.914676 H          1 MOL1         0.0961
      17    C6      19.853520   19.435465   25.218303 C.3        1 MOL1         0.1190
      18    H12     20.732657   20.087240   25.216047 H          1 MOL1         0.0923
      19    C7      18.596932   20.312992   25.361784 C.3        1 MOL1        -0.2463
      20    H13     18.552816   21.078146   24.578253 H          1 MOL1         0.0972
      21    H14     18.599635   20.836720   26.325647 H          1 MOL1         0.0972
      22    H15     17.682607   19.709232   25.305504 H          1 MOL1         0.0972
      23    N1      19.997421   18.534005   26.413092 N.4        1 MOL1        -0.5974
      24    H16     19.207709   17.887748   26.491967 H          1 MOL1         0.3625
      25    H17     20.851330   17.971208   26.360679 H          1 MOL1         0.3625
      26    H18     20.040489   19.070952   27.283899 H          1 MOL1         0.3625
@<TRIPOS>BOND
    1     1     2    1
    2     1     3    1
    3     1     4    1
    4     1     5    1
    5     5     6    1
    6     5     7    1
    7     5     8    1
    8     8     9    1
    9     8    10    1
   10     8    11    1
   11    11    12    1
   12    11    13    1
   13    11    14    1
   14    14    15    1
   15    14    16    1
   16    14    17    1
   17    17    18    1
   18    17    19    1
   19    19    20    1
   20    19    21    1
   21    19    22    1
   22    17    23    1
   23    23    24    1
   24    23    25    1
   25    23    26    1
@<TRIPOS>SUBSTRUCTURE
       1 MOL1            1 RESIDUE      1      MOL     
@<SCITEGIC>MOL_PROPERTY
VM2 Rank
SciTegic.value.IntegerValue
2

@<SCITEGIC>MOL_PROPERTY
Conf_Id
SciTegic.value.IntegerValue
618

@<SCITEGIC>MOL_PROPERTY
Probability
SciTegic.value.DoubleValue
7.68

@<SCITEGIC>MOL_PROPERTY
Sum Probability
SciTegic.value.DoubleValue
24.68

@<SCITEGIC>MOL_PROPERTY
Delta G
SciTegic.value.DoubleValue
0.474

@<SCITEGIC>MOL_PROPERTY
G
SciTegic.value.DoubleValue
24.183

@<SCITEGIC>MOL_PROPERTY
E
SciTegic.value.DoubleValue
-8.383

@<SCITEGIC>MOL_PROPERTY
-TS
SciTegic.value.DoubleValue
32.566

@<SCITEGIC>MOL_PROPERTY
U+W
SciTegic.value.DoubleValue
-29.845

@<SCITEGIC>MOL_PROPERTY
U
SciTegic.value.DoubleValue
23.817

@<SCITEGIC>MOL_PROPERTY
W
SciTegic.value.DoubleValue
-53.662

@<SCITEGIC>MOL_PROPERTY
W(PB)
SciTegic.value.DoubleValue
-56.020

@<SCITEGIC>MOL_PROPERTY
W(SA)
SciTegic.value.DoubleValue
2.358

@<SCITEGIC>MOL_PROPERTY
Valence
SciTegic.value.DoubleValue
3.277

@<SCITEGIC>MOL_PROPERTY
Coulomb
SciTegic.value.DoubleValue
19.492

@<SCITEGIC>MOL_PROPERTY
VdW
SciTegic.value.DoubleValue
1.049

@<SCITEGIC>MOL_PROPERTY
VdW6
SciTegic.value.DoubleValue
-6.949

@<SCITEGIC>MOL_PROPERTY
VdW12
SciTegic.value.DoubleValue
7.998

@<SCITEGIC>MOL_PROPERTY
Bond
SciTegic.value.DoubleValue
0.183

@<SCITEGIC>MOL_PROPERTY
Angle
SciTegic.value.DoubleValue
1.152

@<SCITEGIC>MOL_PROPERTY
Pdih
SciTegic.value.DoubleValue
1.942

@<SCITEGIC>MOL_PROPERTY
Idih
SciTegic.value.DoubleValue
0.000

@<SCITEGIC>MOL_PROPERTY
Tether
SciTegic.value.DoubleValue
0.000

@<TRIPOS>MOLECULE
guest-s13_vm2.mol2 : vm2 ligand conformer 3
          26          25           1
SMALL
USER_CHARGES
 
@<TRIPOS>ATOM
       1    C1      20.361279   18.766414   18.898857 C.3        1 MOL1        -0.2398
       2    H1      20.329055   17.928876   18.189962 H          1 MOL1         0.0972
       3    H2      19.620719   19.509792   18.576061 H          1 MOL1         0.0972
       4    H3      21.356695   19.224839   18.833815 H          1 MOL1         0.0972
       5    C2      20.068121   18.277917   20.333269 C.3        1 MOL1        -0.1383
       6    H4      20.804060   17.511747   20.614847 H          1 MOL1         0.0961
       7    H5      19.081446   17.794465   20.359051 H          1 MOL1         0.0961
       8    C3      20.107345   19.438517   21.352043 C.3        1 MOL1        -0.1407
       9    H6      21.094642   19.919853   21.320232 H          1 MOL1         0.0961
      10    H7      19.371897   20.202708   21.064660 H          1 MOL1         0.0961
      11    C4      19.814055   18.953506   22.789880 C.3        1 MOL1        -0.1407
      12    H8      20.551127   18.189172   23.069353 H          1 MOL1         0.0961
      13    H9      18.828294   18.470468   22.809665 H          1 MOL1         0.0961
      14    C5      19.852237   20.123868   23.806969 C.3        1 MOL1        -0.1472
      15    H10     20.825509   20.627638   23.740494 H          1 MOL1         0.0961
      16    H11     19.103528   20.875462   23.523549 H          1 MOL1         0.0961
      17    C6      19.613339   19.715664   25.280029 C.3        1 MOL1         0.1190
      18    H12     19.696666   20.623210   25.886051 H          1 MOL1         0.0923
      19    C7      18.204007   19.138296   25.499453 C.3        1 MOL1        -0.2463
      20    H13     18.014283   18.986487   26.569097 H          1 MOL1         0.0972
      21    H14     18.078446   18.171843   24.997094 H          1 MOL1         0.0972
      22    H15     17.437587   19.825611   25.120303 H          1 MOL1         0.0972
      23    N1      20.667618   18.773816   25.793499 N.4        1 MOL1        -0.5974
      24    H16     20.530409   18.564022   26.786263 H          1 MOL1         0.3625
      25    H17     20.650890   17.885227   25.287159 H          1 MOL1         0.3625
      26    H18     21.606537   19.169482   25.691767 H          1 MOL1         0.3625
@<TRIPOS>BOND
    1     1     2    1
    2     1     3    1
    3     1     4    1
    4     1     5    1
    5     5     6    1
    6     5     7    1
    7     5     8    1
    8     8     9    1
    9     8    10    1
   10     8    11    1
   11    11    12    1
   12    11    13    1
   13    11    14    1
   14    14    15    1
   15    14    16    1
   16    14    17    1
   17    17    18    1
   18    17    19    1
   19    19    20    1
   20    19    21    1
   21    19    22    1
   22    17    23    1
   23    23    24    1
   24    23    25    1
   25    23    26    1
@<TRIPOS>SUBSTRUCTURE
       1 MOL1            1 RESIDUE      1      MOL     
@<SCITEGIC>MOL_PROPERTY
VM2 Rank
SciTegic.value.IntegerValue
3

@<SCITEGIC>MOL_PROPERTY
Conf_Id
SciTegic.value.IntegerValue
1283

@<SCITEGIC>MOL_PROPERTY
Probability
SciTegic.value.DoubleValue
7.21

@<SCITEGIC>MOL_PROPERTY
Sum Probability
SciTegic.value.DoubleValue
31.89

@<SCITEGIC>MOL_PROPERTY
Delta G
SciTegic.value.DoubleValue
0.511

@<SCITEGIC>MOL_PROPERTY
G
SciTegic.value.DoubleValue
24.221

@<SCITEGIC>MOL_PROPERTY
E
SciTegic.value.DoubleValue
-8.477

@<SCITEGIC>MOL_PROPERTY
-TS
SciTegic.value.DoubleValue
32.698

@<SCITEGIC>MOL_PROPERTY
U+W
SciTegic.value.DoubleValue
-29.939

@<SCITEGIC>MOL_PROPERTY
U
SciTegic.value.DoubleValue
24.060

@<SCITEGIC>MOL_PROPERTY
W
SciTegic.value.DoubleValue
-53.999

@<SCITEGIC>MOL_PROPERTY
W(PB)
SciTegic.value.DoubleValue
-56.330

@<SCITEGIC>MOL_PROPERTY
W(SA)
SciTegic.value.DoubleValue
2.332

@<SCITEGIC>MOL_PROPERTY
Valence
SciTegic.value.DoubleValue
3.249

@<SCITEGIC>MOL_PROPERTY
Coulomb
SciTegic.value.DoubleValue
19.781

@<SCITEGIC>MOL_PROPERTY
VdW
SciTegic.value.DoubleValue
1.030

@<SCITEGIC>MOL_PROPERTY
VdW6
SciTegic.value.DoubleValue
-7.421

@<SCITEGIC>MOL_PROPERTY
VdW12
SciTegic.value.DoubleValue
8.450

@<SCITEGIC>MOL_PROPERTY
Bond
SciTegic.value.DoubleValue
0.207

@<SCITEGIC>MOL_PROPERTY
Angle
SciTegic.value.DoubleValue
1.205

@<SCITEGIC>MOL_PROPERTY
Pdih
SciTegic.value.DoubleValue
1.837

@<SCITEGIC>MOL_PROPERTY
Idih
SciTegic.value.DoubleValue
0.000

@<SCITEGIC>MOL_PROPERTY
Tether
SciTegic.value.DoubleValue
0.000

@<TRIPOS>MOLECULE
guest-s13_vm2.mol2 : vm2 ligand conformer 4
          26          25           1
SMALL
USER_CHARGES
 
@<TRIPOS>ATOM
       1    C1      21.047909   19.537443   19.590824 C.3        1 MOL1        -0.2398
       2    H1      21.740625   19.891375   20.364330 H          1 MOL1         0.0972
       3    H2      21.643769   19.291377   18.702377 H          1 MOL1         0.0972
       4    H3      20.375873   20.363981   19.325819 H          1 MOL1         0.0972
       5    C2      20.249403   18.302154   20.065397 C.3        1 MOL1        -0.1383
       6    H4      20.944448   17.500841   20.352730 H          1 MOL1         0.0961
       7    H5      19.664236   17.912936   19.220476 H          1 MOL1         0.0961
       8    C3      19.286176   18.605574   21.238349 C.3        1 MOL1        -0.1407
       9    H6      18.578608   19.390526   20.937530 H          1 MOL1         0.0961
      10    H7      18.685190   17.707412   21.437117 H          1 MOL1         0.0961
      11    C4      20.011746   19.026090   22.539017 C.3        1 MOL1        -0.1407
      12    H8      20.556553   19.965262   22.375207 H          1 MOL1         0.0961
      13    H9      20.757457   18.262722   22.797437 H          1 MOL1         0.0961
      14    C5      19.019027   19.215401   23.711806 C.3        1 MOL1        -0.1472
      15    H10     18.249193   19.938642   23.411146 H          1 MOL1         0.0961
      16    H11     18.498661   18.269952   23.915051 H          1 MOL1         0.0961
      17    C6      19.700001   19.720914   25.002209 C.3        1 MOL1         0.1190
      18    H12     20.229940   20.649603   24.768942 H          1 MOL1         0.0923
      19    C7      18.645959   20.024518   26.079008 C.3        1 MOL1        -0.2463
      20    H13     18.085054   19.121689   26.351396 H          1 MOL1         0.0972
      21    H14     17.930787   20.776760   25.723492 H          1 MOL1         0.0972
      22    H15     19.120014   20.419142   26.986155 H          1 MOL1         0.0972
      23    N1      20.727778   18.755905   25.527389 N.4        1 MOL1        -0.5974
      24    H16     21.461864   18.578585   24.836685 H          1 MOL1         0.3625
      25    H17     21.182310   19.115939   26.371303 H          1 MOL1         0.3625
      26    H18     20.305742   17.855031   25.767404 H          1 MOL1         0.3625
@<TRIPOS>BOND
    1     1     2    1
    2     1     3    1
    3     1     4    1
    4     1     5    1
    5     5     6    1
    6     5     7    1
    7     5     8    1
    8     8     9    1
    9     8    10    1
   10     8    11    1
   11    11    12    1
   12    11    13    1
   13    11    14    1
   14    14    15    1
   15    14    16    1
   16    14    17    1
   17    17    18    1
   18    17    19    1
   19    19    20    1
   20    19    21    1
   21    19    22    1
   22    17    23    1
   23    23    24    1
   24    23    25    1
   25    23    26    1
@<TRIPOS>SUBSTRUCTURE
       1 MOL1            1 RESIDUE      1      MOL     
@<SCITEGIC>MOL_PROPERTY
VM2 Rank
SciTegic.value.IntegerValue
4

@<SCITEGIC>MOL_PROPERTY
Conf_Id
SciTegic.value.IntegerValue
1268

@<SCITEGIC>MOL_PROPERTY
Probability
SciTegic.value.DoubleValue
6.27

@<SCITEGIC>MOL_PROPERTY
Sum Probability
SciTegic.value.DoubleValue
38.17

@<SCITEGIC>MOL_PROPERTY
Delta G
SciTegic.value.DoubleValue
0.594

@<SCITEGIC>MOL_PROPERTY
G
SciTegic.value.DoubleValue
24.304

@<SCITEGIC>MOL_PROPERTY
E
SciTegic.value.DoubleValue
-8.361

@<SCITEGIC>MOL_PROPERTY
-TS
SciTegic.value.DoubleValue
32.665

@<SCITEGIC>MOL_PROPERTY
U+W
SciTegic.value.DoubleValue
-29.822

@<SCITEGIC>MOL_PROPERTY
U
SciTegic.value.DoubleValue
24.148

@<SCITEGIC>MOL_PROPERTY
W
SciTegic.value.DoubleValue
-53.971

@<SCITEGIC>MOL_PROPERTY
W(PB)
SciTegic.value.DoubleValue
-56.282

@<SCITEGIC>MOL_PROPERTY
W(SA)
SciTegic.value.DoubleValue
2.311

@<SCITEGIC>MOL_PROPERTY
Valence
SciTegic.value.DoubleValue
3.242

@<SCITEGIC>MOL_PROPERTY
Coulomb
SciTegic.value.DoubleValue
19.863

@<SCITEGIC>MOL_PROPERTY
VdW
SciTegic.value.DoubleValue
1.043

@<SCITEGIC>MOL_PROPERTY
VdW6
SciTegic.value.DoubleValue
-7.422

@<SCITEGIC>MOL_PROPERTY
VdW12
SciTegic.value.DoubleValue
8.465

@<SCITEGIC>MOL_PROPERTY
Bond
SciTegic.value.DoubleValue
0.206

@<SCITEGIC>MOL_PROPERTY
Angle
SciTegic.value.DoubleValue
1.112

@<SCITEGIC>MOL_PROPERTY
Pdih
SciTegic.value.DoubleValue
1.924

@<SCITEGIC>MOL_PROPERTY
Idih
SciTegic.value.DoubleValue
0.000

@<SCITEGIC>MOL_PROPERTY
Tether
SciTegic.value.DoubleValue
0.000

@<TRIPOS>MOLECULE
guest-s13_vm2.mol2 : vm2 ligand conformer 5
          26          25           1
SMALL
USER_CHARGES
 
@<TRIPOS>ATOM
       1    C1      21.069746   18.017626   19.828562 C.3        1 MOL1        -0.2398
       2    H1      20.411664   17.139082   19.817734 H          1 MOL1         0.0972
       3    H2      21.658037   18.007607   18.901873 H          1 MOL1         0.0972
       4    H3      21.771523   17.912069   20.665046 H          1 MOL1         0.0972
       5    C2      20.251007   19.324246   19.934864 C.3        1 MOL1        -0.1383
       6    H4      19.658198   19.445775   19.017468 H          1 MOL1         0.0961
       7    H5      20.932667   20.185276   19.976432 H          1 MOL1         0.0961
       8    C3      19.294324   19.354508   21.151268 C.3        1 MOL1        -0.1407
       9    H6      18.676392   20.260672   21.085266 H          1 MOL1         0.0961
      10    H7      18.601674   18.503448   21.094302 H          1 MOL1         0.0961
      11    C4      20.028182   19.340112   22.513784 C.3        1 MOL1        -0.1407
      12    H8      20.754288   20.164188   22.547141 H          1 MOL1         0.0961
      13    H9      20.596542   18.407086   22.613633 H          1 MOL1         0.0961
      14    C5      19.039532   19.475512   23.697540 C.3        1 MOL1        -0.1472
      15    H10     18.443274   20.387402   23.559760 H          1 MOL1         0.0961
      16    H11     18.332992   18.634846   23.689151 H          1 MOL1         0.0961
      17    C6      19.746296   19.546706   25.068697 C.3        1 MOL1         0.1190
      18    H12     20.461620   20.374573   25.043030 H          1 MOL1         0.0923
      19    C7      18.724584   19.826596   26.182471 C.3        1 MOL1        -0.2463
      20    H13     17.982129   19.021689   26.251718 H          1 MOL1         0.0972
      21    H14     18.192022   20.767462   25.995710 H          1 MOL1         0.0972
      22    H15     19.224559   19.915070   27.154876 H          1 MOL1         0.0972
      23    N1      20.534329   18.302694   25.376814 N.4        1 MOL1        -0.5974
      24    H16     19.929901   17.477749   25.414792 H          1 MOL1         0.3625
      25    H17     21.250775   18.128198   24.667164 H          1 MOL1         0.3625
      26    H18     21.010294   18.375689   26.280453 H          1 MOL1         0.3625
@<TRIPOS>BOND
    1     1     2    1
    2     1     3    1
    3     1     4    1
    4     1     5    1
    5     5     6    1
    6     5     7    1
    7     5     8    1
    8     8     9    1
    9     8    10    1
   10     8    11    1
   11    11    12    1
   12    11    13    1
   13    11    14    1
   14    14    15    1
   15    14    16    1
   16    14    17    1
   17    17    18    1
   18    17    19    1
   19    19    20    1
   20    19    21    1
   21    19    22    1
   22    17    23    1
   23    23    24    1
   24    23    25    1
   25    23    26    1
@<TRIPOS>SUBSTRUCTURE
       1 MOL1            1 RESIDUE      1      MOL     
@<SCITEGIC>MOL_PROPERTY
VM2 Rank
SciTegic.value.IntegerValue
5

@<SCITEGIC>MOL_PROPERTY
Conf_Id
SciTegic.value.IntegerValue
1062

@<SCITEGIC>MOL_PROPERTY
Probability
SciTegic.value.DoubleValue
6.03

@<SCITEGIC>MOL_PROPERTY
Sum Probability
SciTegic.value.DoubleValue
44.20

@<SCITEGIC>MOL_PROPERTY
Delta G
SciTegic.value.DoubleValue
0.618

@<SCITEGIC>MOL_PROPERTY
G
SciTegic.value.DoubleValue
24.328

@<SCITEGIC>MOL_PROPERTY
E
SciTegic.value.DoubleValue
-8.331

@<SCITEGIC>MOL_PROPERTY
-TS
SciTegic.value.DoubleValue
32.658

@<SCITEGIC>MOL_PROPERTY
U+W
SciTegic.value.DoubleValue
-29.793

@<SCITEGIC>MOL_PROPERTY
U
SciTegic.value.DoubleValue
24.259

@<SCITEGIC>MOL_PROPERTY
W
SciTegic.value.DoubleValue
-54.052

@<SCITEGIC>MOL_PROPERTY
W(PB)
SciTegic.value.DoubleValue
-56.355

@<SCITEGIC>MOL_PROPERTY
W(SA)
SciTegic.value.DoubleValue
2.304

@<SCITEGIC>MOL_PROPERTY
Valence
SciTegic.value.DoubleValue
3.240

@<SCITEGIC>MOL_PROPERTY
Coulomb
SciTegic.value.DoubleValue
19.971

@<SCITEGIC>MOL_PROPERTY
VdW
SciTegic.value.DoubleValue
1.049

@<SCITEGIC>MOL_PROPERTY
VdW6
SciTegic.value.DoubleValue
-7.431

@<SCITEGIC>MOL_PROPERTY
VdW12
SciTegic.value.DoubleValue
8.480

@<SCITEGIC>MOL_PROPERTY
Bond
SciTegic.value.DoubleValue
0.208

@<SCITEGIC>MOL_PROPERTY
Angle
SciTegic.value.DoubleValue
1.110

@<SCITEGIC>MOL_PROPERTY
Pdih
SciTegic.value.DoubleValue
1.922

@<SCITEGIC>MOL_PROPERTY
Idih
SciTegic.value.DoubleValue
0.000

@<SCITEGIC>MOL_PROPERTY
Tether
SciTegic.value.DoubleValue
0.000

@<TRIPOS>MOLECULE
guest-s13_vm2.mol2 : vm2 ligand conformer 6
          26          25           1
SMALL
USER_CHARGES
 
@<TRIPOS>ATOM
       1    C1      19.926728   18.437595   19.084868 C.3        1 MOL1        -0.2398
       2    H1      19.223706   19.215050   18.758428 H          1 MOL1         0.0972
       3    H2      20.909522   18.660538   18.649399 H          1 MOL1         0.0972
       4    H3      19.585159   17.479477   18.672100 H          1 MOL1         0.0972
       5    C2      20.003736   18.371043   20.624958 C.3        1 MOL1        -0.1383
       6    H4      20.690809   17.565934   20.920648 H          1 MOL1         0.0961
       7    H5      19.013837   18.106494   21.019782 H          1 MOL1         0.0961
       8    C3      20.479461   19.712810   21.230356 C.3        1 MOL1        -0.1407
       9    H6      21.433623   19.996248   20.764920 H          1 MOL1         0.0961
      10    H7      19.764938   20.507829   20.976026 H          1 MOL1         0.0961
      11    C4      20.677505   19.663334   22.765276 C.3        1 MOL1        -0.1407
      12    H8      21.115656   20.617326   23.090163 H          1 MOL1         0.0961
      13    H9      21.412885   18.884908   23.008713 H          1 MOL1         0.0961
      14    C5      19.362258   19.420117   23.548871 C.3        1 MOL1        -0.1472
      15    H10     18.607825   20.142497   23.209885 H          1 MOL1         0.0961
      16    H11     18.966421   18.421665   23.324132 H          1 MOL1         0.0961
      17    C6      19.539693   19.565231   25.075758 C.3        1 MOL1         0.1190
      18    H12     19.949564   20.559148   25.280293 H          1 MOL1         0.0923
      19    C7      18.181357   19.448228   25.785620 C.3        1 MOL1        -0.2463
      20    H13     17.484729   20.214401   25.423104 H          1 MOL1         0.0972
      21    H14     18.295416   19.587863   26.867683 H          1 MOL1         0.0972
      22    H15     17.726825   18.464456   25.613882 H          1 MOL1         0.0972
      23    N1      20.517263   18.569642   25.638294 N.4        1 MOL1        -0.5974
      24    H16     20.201908   17.608425   25.483889 H          1 MOL1         0.3625
      25    H17     21.439433   18.665334   25.204845 H          1 MOL1         0.3625
      26    H18     20.639111   18.693975   26.647304 H          1 MOL1         0.3625
@<TRIPOS>BOND
    1     1     2    1
    2     1     3    1
    3     1     4    1
    4     1     5    1
    5     5     6    1
    6     5     7    1
    7     5     8    1
    8     8     9    1
    9     8    10    1
   10     8    11    1
   11    11    12    1
   12    11    13    1
   13    11    14    1
   14    14    15    1
   15    14    16    1
   16    14    17    1
   17    17    18    1
   18    17    19    1
   19    19    20    1
   20    19    21    1
   21    19    22    1
   22    17    23    1
   23    23    24    1
   24    23    25    1
   25    23    26    1
@<TRIPOS>SUBSTRUCTURE
       1 MOL1            1 RESIDUE      1      MOL     
@<SCITEGIC>MOL_PROPERTY
VM2 Rank
SciTegic.value.IntegerValue
6

@<SCITEGIC>MOL_PROPERTY
Conf_Id
SciTegic.value.IntegerValue
1286

@<SCITEGIC>MOL_PROPERTY
Probability
SciTegic.value.DoubleValue
5.31

@<SCITEGIC>MOL_PROPERTY
Sum Probability
SciTegic.value.DoubleValue
49.50

@<SCITEGIC>MOL_PROPERTY
Delta G
SciTegic.value.DoubleValue
0.694

@<SCITEGIC>MOL_PROPERTY
G
SciTegic.value.DoubleValue
24.404

@<SCITEGIC>MOL_PROPERTY
E
SciTegic.value.DoubleValue
-8.264

@<SCITEGIC>MOL_PROPERTY
-TS
SciTegic.value.DoubleValue
32.668

@<SCITEGIC>MOL_PROPERTY
U+W
SciTegic.value.DoubleValue
-29.726

@<SCITEGIC>MOL_PROPERTY
U
SciTegic.value.DoubleValue
24.276

@<SCITEGIC>MOL_PROPERTY
W
SciTegic.value.DoubleValue
-54.002

@<SCITEGIC>MOL_PROPERTY
W(PB)
SciTegic.value.DoubleValue
-56.316

@<SCITEGIC>MOL_PROPERTY
W(SA)
SciTegic.value.DoubleValue
2.314

@<SCITEGIC>MOL_PROPERTY
Valence
SciTegic.value.DoubleValue
3.269

@<SCITEGIC>MOL_PROPERTY
Coulomb
SciTegic.value.DoubleValue
20.007

@<SCITEGIC>MOL_PROPERTY
VdW
SciTegic.value.DoubleValue
1.000

@<SCITEGIC>MOL_PROPERTY
VdW6
SciTegic.value.DoubleValue
-7.483

@<SCITEGIC>MOL_PROPERTY
VdW12
SciTegic.value.DoubleValue
8.483

@<SCITEGIC>MOL_PROPERTY
Bond
SciTegic.value.DoubleValue
0.211

@<SCITEGIC>MOL_PROPERTY
Angle
SciTegic.value.DoubleValue
1.103

@<SCITEGIC>MOL_PROPERTY
Pdih
SciTegic.value.DoubleValue
1.955

@<SCITEGIC>MOL_PROPERTY
Idih
SciTegic.value.DoubleValue
0.000

@<SCITEGIC>MOL_PROPERTY
Tether
SciTegic.value.DoubleValue
0.000

@<TRIPOS>MOLECULE
guest-s13_vm2.mol2 : vm2 ligand conformer 7
          26          25           1
SMALL
USER_CHARGES
 
@<TRIPOS>ATOM
       1    C1      20.897142   19.564158   19.339725 C.3        1 MOL1        -0.2398
       2    H1      21.680132   20.208819   19.759925 H          1 MOL1         0.0972
       3    H2      21.306172   19.076722   18.445218 H          1 MOL1         0.0972
       4    H3      20.061858   20.202502   19.023407 H          1 MOL1         0.0972
       5    C2      20.432526   18.512253   20.369170 C.3        1 MOL1        -0.1383
       6    H4      21.280937   17.868565   20.640752 H          1 MOL1         0.0961
       7    H5      19.675708   17.861682   19.908831 H          1 MOL1         0.0961
       8    C3      19.850969   19.172489   21.638775 C.3        1 MOL1        -0.1407
       9    H6      20.611990   19.827540   22.083162 H          1 MOL1         0.0961
      10    H7      19.002285   19.812932   21.361319 H          1 MOL1         0.0961
      11    C4      19.386799   18.118583   22.672659 C.3        1 MOL1        -0.1407
      12    H8      20.236592   17.490214   22.970974 H          1 MOL1         0.0961
      13    H9      18.663108   17.442943   22.196045 H          1 MOL1         0.0961
      14    C5      18.722538   18.743585   23.926262 C.3        1 MOL1        -0.1472
      15    H10     17.818490   19.283452   23.614457 H          1 MOL1         0.0961
      16    H11     18.383991   17.937862   24.591149 H          1 MOL1         0.0961
      17    C6      19.636957   19.707211   24.715747 C.3        1 MOL1         0.1190
      18    H12     19.948712   20.513641   24.045467 H          1 MOL1         0.0923
      19    C7      18.867777   20.332241   25.890420 C.3        1 MOL1        -0.2463
      20    H13     18.534693   19.564944   26.600487 H          1 MOL1         0.0972
      21    H14     17.983202   20.873836   25.532758 H          1 MOL1         0.0972
      22    H15     19.499497   21.047422   26.431532 H          1 MOL1         0.0972
      23    N1      20.893291   19.037479   25.201241 N.4        1 MOL1        -0.5974
      24    H16     21.433137   18.650896   24.422293 H          1 MOL1         0.3625
      25    H17     21.499893   19.694639   25.699774 H          1 MOL1         0.3625
      26    H18     20.682063   18.268310   25.842345 H          1 MOL1         0.3625
@<TRIPOS>BOND
    1     1     2    1
    2     1     3    1
    3     1     4    1
    4     1     5    1
    5     5     6    1
    6     5     7    1
    7     5     8    1
    8     8     9    1
    9     8    10    1
   10     8    11    1
   11    11    12    1
   12    11    13    1
   13    11    14    1
   14    14    15    1
   15    14    16    1
   16    14    17    1
   17    17    18    1
   18    17    19    1
   19    19    20    1
   20    19    21    1
   21    19    22    1
   22    17    23    1
   23    23    24    1
   24    23    25    1
   25    23    26    1
@<TRIPOS>SUBSTRUCTURE
       1 MOL1            1 RESIDUE      1      MOL     
@<SCITEGIC>MOL_PROPERTY
VM2 Rank
SciTegic.value.IntegerValue
7

@<SCITEGIC>MOL_PROPERTY
Conf_Id
SciTegic.value.IntegerValue
743

@<SCITEGIC>MOL_PROPERTY
Probability
SciTegic.value.DoubleValue
5.28

@<SCITEGIC>MOL_PROPERTY
Sum Probability
SciTegic.value.DoubleValue
54.79

@<SCITEGIC>MOL_PROPERTY
Delta G
SciTegic.value.DoubleValue
0.697

@<SCITEGIC>MOL_PROPERTY
G
SciTegic.value.DoubleValue
24.406

@<SCITEGIC>MOL_PROPERTY
E
SciTegic.value.DoubleValue
-8.339

@<SCITEGIC>MOL_PROPERTY
-TS
SciTegic.value.DoubleValue
32.745

@<SCITEGIC>MOL_PROPERTY
U+W
SciTegic.value.DoubleValue
-29.800

@<SCITEGIC>MOL_PROPERTY
U
SciTegic.value.DoubleValue
24.149

@<SCITEGIC>MOL_PROPERTY
W
SciTegic.value.DoubleValue
-53.949

@<SCITEGIC>MOL_PROPERTY
W(PB)
SciTegic.value.DoubleValue
-56.255

@<SCITEGIC>MOL_PROPERTY
W(SA)
SciTegic.value.DoubleValue
2.306

@<SCITEGIC>MOL_PROPERTY
Valence
SciTegic.value.DoubleValue
3.038

@<SCITEGIC>MOL_PROPERTY
Coulomb
SciTegic.value.DoubleValue
20.324

@<SCITEGIC>MOL_PROPERTY
VdW
SciTegic.value.DoubleValue
0.787

@<SCITEGIC>MOL_PROPERTY
VdW6
SciTegic.value.DoubleValue
-7.686

@<SCITEGIC>MOL_PROPERTY
VdW12
SciTegic.value.DoubleValue
8.473

@<SCITEGIC>MOL_PROPERTY
Bond
SciTegic.value.DoubleValue
0.201

@<SCITEGIC>MOL_PROPERTY
Angle
SciTegic.value.DoubleValue
1.090

@<SCITEGIC>MOL_PROPERTY
Pdih
SciTegic.value.DoubleValue
1.748

@<SCITEGIC>MOL_PROPERTY
Idih
SciTegic.value.DoubleValue
0.000

@<SCITEGIC>MOL_PROPERTY
Tether
SciTegic.value.DoubleValue
0.000

@<TRIPOS>MOLECULE
guest-s13_vm2.mol2 : vm2 ligand conformer 8
          26          25           1
SMALL
USER_CHARGES
 
@<TRIPOS>ATOM
       1    C1      19.881473   18.933137   18.977751 C.3        1 MOL1        -0.2398
       2    H1      19.237544   18.047456   18.899203 H          1 MOL1         0.0972
       3    H2      19.470640   19.708142   18.317729 H          1 MOL1         0.0972
       4    H3      20.878128   18.665662   18.603101 H          1 MOL1         0.0972
       5    C2      19.952772   19.439310   20.434129 C.3        1 MOL1        -0.1383
       6    H4      18.945875   19.735176   20.756656 H          1 MOL1         0.0961
       7    H5      20.579317   20.341216   20.475580 H          1 MOL1         0.0961
       8    C3      20.525077   18.360968   21.384599 C.3        1 MOL1        -0.1407
       9    H6      19.867209   17.480910   21.385814 H          1 MOL1         0.0961
      10    H7      21.493574   18.020269   20.992988 H          1 MOL1         0.0961
      11    C4      20.732290   18.857015   22.837046 C.3        1 MOL1        -0.1407
      12    H8      21.392075   19.735745   22.834234 H          1 MOL1         0.0961
      13    H9      21.265074   18.072384   23.390034 H          1 MOL1         0.0961
      14    C5      19.408986   19.199276   23.569231 C.3        1 MOL1        -0.1472
      15    H10     18.891220   20.000234   23.027348 H          1 MOL1         0.0961
      16    H11     18.741020   18.327818   23.556735 H          1 MOL1         0.0961
      17    C6      19.629350   19.662973   25.025870 C.3        1 MOL1         0.1190
      18    H12     20.325165   20.507629   25.015200 H          1 MOL1         0.0923
      19    C7      18.303444   20.138435   25.641461 C.3        1 MOL1        -0.2463
      20    H13     18.458720   20.502439   26.664579 H          1 MOL1         0.0972
      21    H14     17.567485   19.325354   25.675852 H          1 MOL1         0.0972
      22    H15     17.875185   20.962396   25.057156 H          1 MOL1         0.0972
      23    N1      20.254608   18.596886   25.883913 N.4        1 MOL1        -0.5974
      24    H16     20.407908   18.928719   26.840356 H          1 MOL1         0.3625
      25    H17     19.659832   17.765974   25.939726 H          1 MOL1         0.3625
      26    H18     21.162123   18.302432   25.513774 H          1 MOL1         0.3625
@<TRIPOS>BOND
    1     1     2    1
    2     1     3    1
    3     1     4    1
    4     1     5    1
    5     5     6    1
    6     5     7    1
    7     5     8    1
    8     8     9    1
    9     8    10    1
   10     8    11    1
   11    11    12    1
   12    11    13    1
   13    11    14    1
   14    14    15    1
   15    14    16    1
   16    14    17    1
   17    17    18    1
   18    17    19    1
   19    19    20    1
   20    19    21    1
   21    19    22    1
   22    17    23    1
   23    23    24    1
   24    23    25    1
   25    23    26    1
@<TRIPOS>SUBSTRUCTURE
       1 MOL1            1 RESIDUE      1      MOL     
@<SCITEGIC>MOL_PROPERTY
VM2 Rank
SciTegic.value.IntegerValue
8

@<SCITEGIC>MOL_PROPERTY
Conf_Id
SciTegic.value.IntegerValue
1219

@<SCITEGIC>MOL_PROPERTY
Probability
SciTegic.value.DoubleValue
4.38

@<SCITEGIC>MOL_PROPERTY
Sum Probability
SciTegic.value.DoubleValue
59.17

@<SCITEGIC>MOL_PROPERTY
Delta G
SciTegic.value.DoubleValue
0.809

@<SCITEGIC>MOL_PROPERTY
G
SciTegic.value.DoubleValue
24.519

@<SCITEGIC>MOL_PROPERTY
E
SciTegic.value.DoubleValue
-8.104

@<SCITEGIC>MOL_PROPERTY
-TS
SciTegic.value.DoubleValue
32.622

@<SCITEGIC>MOL_PROPERTY
U+W
SciTegic.value.DoubleValue
-29.565

@<SCITEGIC>MOL_PROPERTY
U
SciTegic.value.DoubleValue
24.282

@<SCITEGIC>MOL_PROPERTY
W
SciTegic.value.DoubleValue
-53.847

@<SCITEGIC>MOL_PROPERTY
W(PB)
SciTegic.value.DoubleValue
-56.207

@<SCITEGIC>MOL_PROPERTY
W(SA)
SciTegic.value.DoubleValue
2.360

@<SCITEGIC>MOL_PROPERTY
Valence
SciTegic.value.DoubleValue
3.311

@<SCITEGIC>MOL_PROPERTY
Coulomb
SciTegic.value.DoubleValue
19.887

@<SCITEGIC>MOL_PROPERTY
VdW
SciTegic.value.DoubleValue
1.083

@<SCITEGIC>MOL_PROPERTY
VdW6
SciTegic.value.DoubleValue
-7.444

@<SCITEGIC>MOL_PROPERTY
VdW12
SciTegic.value.DoubleValue
8.528

@<SCITEGIC>MOL_PROPERTY
Bond
SciTegic.value.DoubleValue
0.218

@<SCITEGIC>MOL_PROPERTY
Angle
SciTegic.value.DoubleValue
1.167

@<SCITEGIC>MOL_PROPERTY
Pdih
SciTegic.value.DoubleValue
1.925

@<SCITEGIC>MOL_PROPERTY
Idih
SciTegic.value.DoubleValue
0.000

@<SCITEGIC>MOL_PROPERTY
Tether
SciTegic.value.DoubleValue
0.000

@<TRIPOS>MOLECULE
guest-s13_vm2.mol2 : vm2 ligand conformer 9
          26          25           1
SMALL
USER_CHARGES
 
@<TRIPOS>ATOM
       1    C1      20.963632   19.512736   19.355342 C.3        1 MOL1        -0.2398
       2    H1      21.365414   20.475918   19.696045 H          1 MOL1         0.0972
       3    H2      21.772486   18.771508   19.395009 H          1 MOL1         0.0972
       4    H3      20.661535   19.625927   18.306072 H          1 MOL1         0.0972
       5    C2      19.765287   19.073111   20.222994 C.3        1 MOL1        -0.1383
       6    H4      19.364066   18.125628   19.836713 H          1 MOL1         0.0961
       7    H5      18.960619   19.816762   20.136859 H          1 MOL1         0.0961
       8    C3      20.163838   18.905516   21.705908 C.3        1 MOL1        -0.1407
       9    H6      20.966996   18.160009   21.786741 H          1 MOL1         0.0961
      10    H7      20.571399   19.855219   22.077227 H          1 MOL1         0.0961
      11    C4      18.962210   18.468305   22.577530 C.3        1 MOL1        -0.1407
      12    H8      18.532641   17.546871   22.160721 H          1 MOL1         0.0961
      13    H9      18.166846   19.223278   22.521434 H          1 MOL1         0.0961
      14    C5      19.343761   18.205224   24.057316 C.3        1 MOL1        -0.1472
      15    H10     18.447793   17.885236   24.605609 H          1 MOL1         0.0961
      16    H11     20.039469   17.356380   24.089793 H          1 MOL1         0.0961
      17    C6      19.990358   19.403703   24.791586 C.3        1 MOL1         0.1190
      18    H12     20.883742   19.706869   24.237735 H          1 MOL1         0.0923
      19    C7      19.038921   20.610359   24.879037 C.3        1 MOL1        -0.2463
      20    H13     18.100560   20.340316   25.379206 H          1 MOL1         0.0972
      21    H14     18.798021   20.999910   23.883088 H          1 MOL1         0.0972
      22    H15     19.502719   21.428253   25.444012 H          1 MOL1         0.0972
      23    N1      20.459993   19.009047   26.164286 N.4        1 MOL1        -0.5974
      24    H16     20.924481   19.788123   26.639398 H          1 MOL1         0.3625
      25    H17     19.679383   18.712825   26.756229 H          1 MOL1         0.3625
      26    H18     21.128301   18.234097   26.126335 H          1 MOL1         0.3625
@<TRIPOS>BOND
    1     1     2    1
    2     1     3    1
    3     1     4    1
    4     1     5    1
    5     5     6    1
    6     5     7    1
    7     5     8    1
    8     8     9    1
    9     8    10    1
   10     8    11    1
   11    11    12    1
   12    11    13    1
   13    11    14    1
   14    14    15    1
   15    14    16    1
   16    14    17    1
   17    17    18    1
   18    17    19    1
   19    19    20    1
   20    19    21    1
   21    19    22    1
   22    17    23    1
   23    23    24    1
   24    23    25    1
   25    23    26    1
@<TRIPOS>SUBSTRUCTURE
       1 MOL1            1 RESIDUE      1      MOL     
@<SCITEGIC>MOL_PROPERTY
VM2 Rank
SciTegic.value.IntegerValue
9

@<SCITEGIC>MOL_PROPERTY
Conf_Id
SciTegic.value.IntegerValue
472

@<SCITEGIC>MOL_PROPERTY
Probability
SciTegic.value.DoubleValue
3.73

@<SCITEGIC>MOL_PROPERTY
Sum Probability
SciTegic.value.DoubleValue
62.90

@<SCITEGIC>MOL_PROPERTY
Delta G
SciTegic.value.DoubleValue
0.904

@<SCITEGIC>MOL_PROPERTY
G
SciTegic.value.DoubleValue
24.613

@<SCITEGIC>MOL_PROPERTY
E
SciTegic.value.DoubleValue
-8.229

@<SCITEGIC>MOL_PROPERTY
-TS
SciTegic.value.DoubleValue
32.842

@<SCITEGIC>MOL_PROPERTY
U+W
SciTegic.value.DoubleValue
-29.691

@<SCITEGIC>MOL_PROPERTY
U
SciTegic.value.DoubleValue
24.335

@<SCITEGIC>MOL_PROPERTY
W
SciTegic.value.DoubleValue
-54.026

@<SCITEGIC>MOL_PROPERTY
W(PB)
SciTegic.value.DoubleValue
-56.341

@<SCITEGIC>MOL_PROPERTY
W(SA)
SciTegic.value.DoubleValue
2.315

@<SCITEGIC>MOL_PROPERTY
Valence
SciTegic.value.DoubleValue
3.530

@<SCITEGIC>MOL_PROPERTY
Coulomb
SciTegic.value.DoubleValue
19.945

@<SCITEGIC>MOL_PROPERTY
VdW
SciTegic.value.DoubleValue
0.861

@<SCITEGIC>MOL_PROPERTY
VdW6
SciTegic.value.DoubleValue
-7.914

@<SCITEGIC>MOL_PROPERTY
VdW12
SciTegic.value.DoubleValue
8.775

@<SCITEGIC>MOL_PROPERTY
Bond
SciTegic.value.DoubleValue
0.213

@<SCITEGIC>MOL_PROPERTY
Angle
SciTegic.value.DoubleValue
1.415

@<SCITEGIC>MOL_PROPERTY
Pdih
SciTegic.value.DoubleValue
1.903

@<SCITEGIC>MOL_PROPERTY
Idih
SciTegic.value.DoubleValue
0.000

@<SCITEGIC>MOL_PROPERTY
Tether
SciTegic.value.DoubleValue
0.000

@<TRIPOS>MOLECULE
guest-s13_vm2.mol2 : vm2 ligand conformer 10
          26          25           1
SMALL
USER_CHARGES
 
@<TRIPOS>ATOM
       1    C1      20.805865   19.743269   19.540146 C.3        1 MOL1        -0.2398
       2    H1      20.684888   20.081219   18.502798 H          1 MOL1         0.0972
       3    H2      20.821814   20.635905   20.177641 H          1 MOL1         0.0972
       4    H3      21.781161   19.245744   19.619458 H          1 MOL1         0.0972
       5    C2      19.659201   18.784593   19.933667 C.3        1 MOL1        -0.1383
       6    H4      19.607769   17.972243   19.195258 H          1 MOL1         0.0961
       7    H5      18.698113   19.314336   19.875052 H          1 MOL1         0.0961
       8    C3      19.830869   18.165375   21.341798 C.3        1 MOL1        -0.1407
       9    H6      19.036863   17.421345   21.494668 H          1 MOL1         0.0961
      10    H7      20.781645   17.616483   21.386891 H          1 MOL1         0.0961
      11    C4      19.773594   19.207367   22.484752 C.3        1 MOL1        -0.1407
      12    H8      18.847530   19.789348   22.390954 H          1 MOL1         0.0961
      13    H9      20.608828   19.913503   22.388481 H          1 MOL1         0.0961
      14    C5      19.838590   18.532824   23.877227 C.3        1 MOL1        -0.1472
      15    H10     18.967422   17.878226   24.013117 H          1 MOL1         0.0961
      16    H11     20.723653   17.883705   23.909516 H          1 MOL1         0.0961
      17    C6      19.924097   19.534601   25.051539 C.3        1 MOL1         0.1190
      18    H12     20.774664   20.199864   24.873637 H          1 MOL1         0.0923
      19    C7      18.652315   20.392866   25.176317 C.3        1 MOL1        -0.2463
      20    H13     18.717745   21.055836   26.047816 H          1 MOL1         0.0972
      21    H14     17.759868   19.765427   25.292660 H          1 MOL1         0.0972
      22    H15     18.512686   21.029797   24.295303 H          1 MOL1         0.0972
      23    N1      20.203469   18.827106   26.348553 N.4        1 MOL1        -0.5974
      24    H16     20.300660   19.489921   27.122948 H          1 MOL1         0.3625
      25    H17     19.448226   18.181056   26.592959 H          1 MOL1         0.3625
      26    H18     21.070279   18.283775   26.303053 H          1 MOL1         0.3625
@<TRIPOS>BOND
    1     1     2    1
    2     1     3    1
    3     1     4    1
    4     1     5    1
    5     5     6    1
    6     5     7    1
    7     5     8    1
    8     8     9    1
    9     8    10    1
   10     8    11    1
   11    11    12    1
   12    11    13    1
   13    11    14    1
   14    14    15    1
   15    14    16    1
   16    14    17    1
   17    17    18    1
   18    17    19    1
   19    19    20    1
   20    19    21    1
   21    19    22    1
   22    17    23    1
   23    23    24    1
   24    23    25    1
   25    23    26    1
@<TRIPOS>SUBSTRUCTURE
       1 MOL1            1 RESIDUE      1      MOL     
@<SCITEGIC>MOL_PROPERTY
VM2 Rank
SciTegic.value.IntegerValue
10

@<SCITEGIC>MOL_PROPERTY
Conf_Id
SciTegic.value.IntegerValue
1289

@<SCITEGIC>MOL_PROPERTY
Probability
SciTegic.value.DoubleValue
2.97

@<SCITEGIC>MOL_PROPERTY
Sum Probability
SciTegic.value.DoubleValue
65.87

@<SCITEGIC>MOL_PROPERTY
Delta G
SciTegic.value.DoubleValue
1.040

@<SCITEGIC>MOL_PROPERTY
G
SciTegic.value.DoubleValue
24.750

@<SCITEGIC>MOL_PROPERTY
E
SciTegic.value.DoubleValue
-7.931

@<SCITEGIC>MOL_PROPERTY
-TS
SciTegic.value.DoubleValue
32.681

@<SCITEGIC>MOL_PROPERTY
U+W
SciTegic.value.DoubleValue
-29.393

@<SCITEGIC>MOL_PROPERTY
U
SciTegic.value.DoubleValue
24.442

@<SCITEGIC>MOL_PROPERTY
W
SciTegic.value.DoubleValue
-53.835

@<SCITEGIC>MOL_PROPERTY
W(PB)
SciTegic.value.DoubleValue
-56.130

@<SCITEGIC>MOL_PROPERTY
W(SA)
SciTegic.value.DoubleValue
2.295

@<SCITEGIC>MOL_PROPERTY
Valence
SciTegic.value.DoubleValue
3.781

@<SCITEGIC>MOL_PROPERTY
Coulomb
SciTegic.value.DoubleValue
19.492

@<SCITEGIC>MOL_PROPERTY
VdW
SciTegic.value.DoubleValue
1.170

@<SCITEGIC>MOL_PROPERTY
VdW6
SciTegic.value.DoubleValue
-7.583

@<SCITEGIC>MOL_PROPERTY
VdW12
SciTegic.value.DoubleValue
8.753

@<SCITEGIC>MOL_PROPERTY
Bond
SciTegic.value.DoubleValue
0.218

@<SCITEGIC>MOL_PROPERTY
Angle
SciTegic.value.DoubleValue
1.390

@<SCITEGIC>MOL_PROPERTY
Pdih
SciTegic.value.DoubleValue
2.173

@<SCITEGIC>MOL_PROPERTY
Idih
SciTegic.value.DoubleValue
0.000

@<SCITEGIC>MOL_PROPERTY
Tether
SciTegic.value.DoubleValue
0.000

@<TRIPOS>MOLECULE
guest-s13_vm2.mol2 : vm2 ligand conformer 11
          26          25           1
SMALL
USER_CHARGES
 
@<TRIPOS>ATOM
       1    C1      19.358817   19.542061   19.449247 C.3        1 MOL1        -0.2398
       2    H1      19.522684   19.914469   18.429736 H          1 MOL1         0.0972
       3    H2      18.554436   18.796167   19.408760 H          1 MOL1         0.0972
       4    H3      19.014145   20.387693   20.057112 H          1 MOL1         0.0972
       5    C2      20.658952   18.927402   20.015625 C.3        1 MOL1        -0.1383
       6    H4      21.437686   19.700518   20.075808 H          1 MOL1         0.0961
       7    H5      21.030055   18.171979   19.308923 H          1 MOL1         0.0961
       8    C3      20.473489   18.262026   21.400824 C.3        1 MOL1        -0.1407
       9    H6      19.708371   17.476522   21.330910 H          1 MOL1         0.0961
      10    H7      21.410882   17.757000   21.672047 H          1 MOL1         0.0961
      11    C4      20.094312   19.261908   22.519798 C.3        1 MOL1        -0.1407
      12    H8      19.127440   19.722528   22.283299 H          1 MOL1         0.0961
      13    H9      20.836701   20.071143   22.555134 H          1 MOL1         0.0961
      14    C5      20.017506   18.570517   23.903485 C.3        1 MOL1        -0.1472
      15    H10     19.232803   17.802411   23.890324 H          1 MOL1         0.0961
      16    H11     20.964294   18.044864   24.084955 H          1 MOL1         0.0961
      17    C6      19.769664   19.547426   25.075797 C.3        1 MOL1         0.1190
      18    H12     20.538162   20.325857   25.041940 H          1 MOL1         0.0923
      19    C7      18.388742   20.222082   24.988196 C.3        1 MOL1        -0.2463
      20    H13     18.309948   20.856235   24.097715 H          1 MOL1         0.0972
      21    H14     18.217439   20.865781   25.859765 H          1 MOL1         0.0972
      22    H15     17.584385   19.476811   24.952659 H          1 MOL1         0.0972
      23    N1      19.926518   18.854578   26.401028 N.4        1 MOL1        -0.5974
      24    H16     19.237628   18.106492   26.516367 H          1 MOL1         0.3625
      25    H17     20.855460   18.435175   26.500061 H          1 MOL1         0.3625
      26    H18     19.802752   19.506363   27.180973 H          1 MOL1         0.3625
@<TRIPOS>BOND
    1     1     2    1
    2     1     3    1
    3     1     4    1
    4     1     5    1
    5     5     6    1
    6     5     7    1
    7     5     8    1
    8     8     9    1
    9     8    10    1
   10     8    11    1
   11    11    12    1
   12    11    13    1
   13    11    14    1
   14    14    15    1
   15    14    16    1
   16    14    17    1
   17    17    18    1
   18    17    19    1
   19    19    20    1
   20    19    21    1
   21    19    22    1
   22    17    23    1
   23    23    24    1
   24    23    25    1
   25    23    26    1
@<TRIPOS>SUBSTRUCTURE
       1 MOL1            1 RESIDUE      1      MOL     
@<SCITEGIC>MOL_PROPERTY
VM2 Rank
SciTegic.value.IntegerValue
11

@<SCITEGIC>MOL_PROPERTY
Conf_Id
SciTegic.value.IntegerValue
1303

@<SCITEGIC>MOL_PROPERTY
Probability
SciTegic.value.DoubleValue
2.50

@<SCITEGIC>MOL_PROPERTY
Sum Probability
SciTegic.value.DoubleValue
68.37

@<SCITEGIC>MOL_PROPERTY
Delta G
SciTegic.value.DoubleValue
1.143

@<SCITEGIC>MOL_PROPERTY
G
SciTegic.value.DoubleValue
24.853

@<SCITEGIC>MOL_PROPERTY
E
SciTegic.value.DoubleValue
-7.821

@<SCITEGIC>MOL_PROPERTY
-TS
SciTegic.value.DoubleValue
32.674

@<SCITEGIC>MOL_PROPERTY
U+W
SciTegic.value.DoubleValue
-29.283

@<SCITEGIC>MOL_PROPERTY
U
SciTegic.value.DoubleValue
24.454

@<SCITEGIC>MOL_PROPERTY
W
SciTegic.value.DoubleValue
-53.737

@<SCITEGIC>MOL_PROPERTY
W(PB)
SciTegic.value.DoubleValue
-56.067

@<SCITEGIC>MOL_PROPERTY
W(SA)
SciTegic.value.DoubleValue
2.330

@<SCITEGIC>MOL_PROPERTY
Valence
SciTegic.value.DoubleValue
3.783

@<SCITEGIC>MOL_PROPERTY
Coulomb
SciTegic.value.DoubleValue
19.491

@<SCITEGIC>MOL_PROPERTY
VdW
SciTegic.value.DoubleValue
1.181

@<SCITEGIC>MOL_PROPERTY
VdW6
SciTegic.value.DoubleValue
-7.595

@<SCITEGIC>MOL_PROPERTY
VdW12
SciTegic.value.DoubleValue
8.776

@<SCITEGIC>MOL_PROPERTY
Bond
SciTegic.value.DoubleValue
0.221

@<SCITEGIC>MOL_PROPERTY
Angle
SciTegic.value.DoubleValue
1.392

@<SCITEGIC>MOL_PROPERTY
Pdih
SciTegic.value.DoubleValue
2.171

@<SCITEGIC>MOL_PROPERTY
Idih
SciTegic.value.DoubleValue
0.000

@<SCITEGIC>MOL_PROPERTY
Tether
SciTegic.value.DoubleValue
0.000

@<TRIPOS>MOLECULE
guest-s13_vm2.mol2 : vm2 ligand conformer 12
          26          25           1
SMALL
USER_CHARGES
 
@<TRIPOS>ATOM
       1    C1      20.593952   17.767138   19.935943 C.3        1 MOL1        -0.2398
       2    H1      20.349899   17.074350   20.750710 H          1 MOL1         0.0972
       3    H2      20.389832   17.248476   18.990293 H          1 MOL1         0.0972
       4    H3      21.669916   17.980966   19.975948 H          1 MOL1         0.0972
       5    C2      19.764813   19.068199   20.028744 C.3        1 MOL1        -0.1383
       6    H4      18.693136   18.824973   20.019054 H          1 MOL1         0.0961
       7    H5      19.951044   19.671385   19.129146 H          1 MOL1         0.0961
       8    C3      20.096770   19.922301   21.276201 C.3        1 MOL1        -0.1407
       9    H6      21.164269   20.182418   21.268531 H          1 MOL1         0.0961
      10    H7      19.547013   20.871007   21.205031 H          1 MOL1         0.0961
      11    C4      19.737464   19.228701   22.612206 C.3        1 MOL1        -0.1407
      12    H8      20.334845   18.315446   22.723575 H          1 MOL1         0.0961
      13    H9      18.683514   18.922799   22.583621 H          1 MOL1         0.0961
      14    C5      19.986000   20.163992   23.824350 C.3        1 MOL1        -0.1472
      15    H10     21.029459   20.505160   23.808107 H          1 MOL1         0.0961
      16    H11     19.371336   21.067631   23.717743 H          1 MOL1         0.0961
      17    C6      19.700533   19.530176   25.206549 C.3        1 MOL1         0.1190
      18    H12     19.940059   20.282596   25.964394 H          1 MOL1         0.0923
      19    C7      18.217859   19.155290   25.376306 C.3        1 MOL1        -0.2463
      20    H13     17.928331   18.333131   24.711158 H          1 MOL1         0.0972
      21    H14     17.571214   20.015304   25.162349 H          1 MOL1         0.0972
      22    H15     18.018340   18.837846   26.407129 H          1 MOL1         0.0972
      23    N1      20.590610   18.352202   25.493700 N.4        1 MOL1        -0.5974
      24    H16     20.420886   17.588572   24.834707 H          1 MOL1         0.3625
      25    H17     21.580721   18.604331   25.425978 H          1 MOL1         0.3625
      26    H18     20.432605   17.985074   26.436400 H          1 MOL1         0.3625
@<TRIPOS>BOND
    1     1     2    1
    2     1     3    1
    3     1     4    1
    4     1     5    1
    5     5     6    1
    6     5     7    1
    7     5     8    1
    8     8     9    1
    9     8    10    1
   10     8    11    1
   11    11    12    1
   12    11    13    1
   13    11    14    1
   14    14    15    1
   15    14    16    1
   16    14    17    1
   17    17    18    1
   18    17    19    1
   19    19    20    1
   20    19    21    1
   21    19    22    1
   22    17    23    1
   23    23    24    1
   24    23    25    1
   25    23    26    1
@<TRIPOS>SUBSTRUCTURE
       1 MOL1            1 RESIDUE      1      MOL     
@<SCITEGIC>MOL_PROPERTY
VM2 Rank
SciTegic.value.IntegerValue
12

@<SCITEGIC>MOL_PROPERTY
Conf_Id
SciTegic.value.IntegerValue
495

@<SCITEGIC>MOL_PROPERTY
Probability
SciTegic.value.DoubleValue
2.40

@<SCITEGIC>MOL_PROPERTY
Sum Probability
SciTegic.value.DoubleValue
70.77

@<SCITEGIC>MOL_PROPERTY
Delta G
SciTegic.value.DoubleValue
1.166

@<SCITEGIC>MOL_PROPERTY
G
SciTegic.value.DoubleValue
24.876

@<SCITEGIC>MOL_PROPERTY
E
SciTegic.value.DoubleValue
-7.931

@<SCITEGIC>MOL_PROPERTY
-TS
SciTegic.value.DoubleValue
32.807

@<SCITEGIC>MOL_PROPERTY
U+W
SciTegic.value.DoubleValue
-29.393

@<SCITEGIC>MOL_PROPERTY
U
SciTegic.value.DoubleValue
24.790

@<SCITEGIC>MOL_PROPERTY
W
SciTegic.value.DoubleValue
-54.183

@<SCITEGIC>MOL_PROPERTY
W(PB)
SciTegic.value.DoubleValue
-56.463

@<SCITEGIC>MOL_PROPERTY
W(SA)
SciTegic.value.DoubleValue
2.279

@<SCITEGIC>MOL_PROPERTY
Valence
SciTegic.value.DoubleValue
3.751

@<SCITEGIC>MOL_PROPERTY
Coulomb
SciTegic.value.DoubleValue
19.894

@<SCITEGIC>MOL_PROPERTY
VdW
SciTegic.value.DoubleValue
1.145

@<SCITEGIC>MOL_PROPERTY
VdW6
SciTegic.value.DoubleValue
-8.074

@<SCITEGIC>MOL_PROPERTY
VdW12
SciTegic.value.DoubleValue
9.219

@<SCITEGIC>MOL_PROPERTY
Bond
SciTegic.value.DoubleValue
0.243

@<SCITEGIC>MOL_PROPERTY
Angle
SciTegic.value.DoubleValue
1.440

@<SCITEGIC>MOL_PROPERTY
Pdih
SciTegic.value.DoubleValue
2.068

@<SCITEGIC>MOL_PROPERTY
Idih
SciTegic.value.DoubleValue
0.000

@<SCITEGIC>MOL_PROPERTY
Tether
SciTegic.value.DoubleValue
0.000

@<TRIPOS>MOLECULE
guest-s13_vm2.mol2 : vm2 ligand conformer 13
          26          25           1
SMALL
USER_CHARGES
 
@<TRIPOS>ATOM
       1    C1      20.261857   18.307031   19.127430 C.3        1 MOL1        -0.2398
       2    H1      19.974915   19.149957   18.485274 H          1 MOL1         0.0972
       3    H2      21.355686   18.216278   19.104193 H          1 MOL1         0.0972
       4    H3      19.838457   17.392667   18.691877 H          1 MOL1         0.0972
       5    C2      19.752910   18.509620   20.570391 C.3        1 MOL1        -0.1383
       6    H4      20.023061   17.630334   21.170165 H          1 MOL1         0.0961
       7    H5      18.655460   18.566977   20.564729 H          1 MOL1         0.0961
       8    C3      20.339906   19.791392   21.207257 C.3        1 MOL1        -0.1407
       9    H6      21.434645   19.711967   21.257493 H          1 MOL1         0.0961
      10    H7      20.123231   20.647109   20.552897 H          1 MOL1         0.0961
      11    C4      19.775295   20.095419   22.616728 C.3        1 MOL1        -0.1407
      12    H8      18.684700   20.203768   22.549598 H          1 MOL1         0.0961
      13    H9      20.165117   21.068619   22.945915 H          1 MOL1         0.0961
      14    C5      20.142964   19.020883   23.672439 C.3        1 MOL1        -0.1472
      15    H10     19.646557   18.071890   23.433271 H          1 MOL1         0.0961
      16    H11     21.223231   18.832138   23.618373 H          1 MOL1         0.0961
      17    C6      19.789096   19.430043   25.120417 C.3        1 MOL1         0.1190
      18    H12     20.263113   20.393916   25.330026 H          1 MOL1         0.0923
      19    C7      18.270755   19.579426   25.324916 C.3        1 MOL1        -0.2463
      20    H13     17.742672   18.652425   25.069034 H          1 MOL1         0.0972
      21    H14     17.863187   20.388784   24.708211 H          1 MOL1         0.0972
      22    H15     18.043827   19.822648   26.370219 H          1 MOL1         0.0972
      23    N1      20.355216   18.454187   26.114422 N.4        1 MOL1        -0.5974
      24    H16     19.958589   17.519085   25.989010 H          1 MOL1         0.3625
      25    H17     21.371999   18.371640   26.025145 H          1 MOL1         0.3625
      26    H18     20.157243   18.743116   27.076603 H          1 MOL1         0.3625
@<TRIPOS>BOND
    1     1     2    1
    2     1     3    1
    3     1     4    1
    4     1     5    1
    5     5     6    1
    6     5     7    1
    7     5     8    1
    8     8     9    1
    9     8    10    1
   10     8    11    1
   11    11    12    1
   12    11    13    1
   13    11    14    1
   14    14    15    1
   15    14    16    1
   16    14    17    1
   17    17    18    1
   18    17    19    1
   19    19    20    1
   20    19    21    1
   21    19    22    1
   22    17    23    1
   23    23    24    1
   24    23    25    1
   25    23    26    1
@<TRIPOS>SUBSTRUCTURE
       1 MOL1            1 RESIDUE      1      MOL     
@<SCITEGIC>MOL_PROPERTY
VM2 Rank
SciTegic.value.IntegerValue
13

@<SCITEGIC>MOL_PROPERTY
Conf_Id
SciTegic.value.IntegerValue
180

@<SCITEGIC>MOL_PROPERTY
Probability
SciTegic.value.DoubleValue
2.38

@<SCITEGIC>MOL_PROPERTY
Sum Probability
SciTegic.value.DoubleValue
73.16

@<SCITEGIC>MOL_PROPERTY
Delta G
SciTegic.value.DoubleValue
1.172

@<SCITEGIC>MOL_PROPERTY
G
SciTegic.value.DoubleValue
24.881

@<SCITEGIC>MOL_PROPERTY
E
SciTegic.value.DoubleValue
-7.819

@<SCITEGIC>MOL_PROPERTY
-TS
SciTegic.value.DoubleValue
32.700

@<SCITEGIC>MOL_PROPERTY
U+W
SciTegic.value.DoubleValue
-29.281

@<SCITEGIC>MOL_PROPERTY
U
SciTegic.value.DoubleValue
24.614

@<SCITEGIC>MOL_PROPERTY
W
SciTegic.value.DoubleValue
-53.895

@<SCITEGIC>MOL_PROPERTY
W(PB)
SciTegic.value.DoubleValue
-56.202

@<SCITEGIC>MOL_PROPERTY
W(SA)
SciTegic.value.DoubleValue
2.307

@<SCITEGIC>MOL_PROPERTY
Valence
SciTegic.value.DoubleValue
3.779

@<SCITEGIC>MOL_PROPERTY
Coulomb
SciTegic.value.DoubleValue
19.717

@<SCITEGIC>MOL_PROPERTY
VdW
SciTegic.value.DoubleValue
1.118

@<SCITEGIC>MOL_PROPERTY
VdW6
SciTegic.value.DoubleValue
-7.653

@<SCITEGIC>MOL_PROPERTY
VdW12
SciTegic.value.DoubleValue
8.772

@<SCITEGIC>MOL_PROPERTY
Bond
SciTegic.value.DoubleValue
0.222

@<SCITEGIC>MOL_PROPERTY
Angle
SciTegic.value.DoubleValue
1.351

@<SCITEGIC>MOL_PROPERTY
Pdih
SciTegic.value.DoubleValue
2.206

@<SCITEGIC>MOL_PROPERTY
Idih
SciTegic.value.DoubleValue
0.000

@<SCITEGIC>MOL_PROPERTY
Tether
SciTegic.value.DoubleValue
0.000

@<TRIPOS>MOLECULE
guest-s13_vm2.mol2 : vm2 ligand conformer 14
          26          25           1
SMALL
USER_CHARGES
 
@<TRIPOS>ATOM
       1    C1      19.388450   18.123965   19.727873 C.3        1 MOL1        -0.2398
       2    H1      19.563340   17.495680   18.844921 H          1 MOL1         0.0972
       3    H2      18.971425   17.480521   20.512393 H          1 MOL1         0.0972
       4    H3      18.633862   18.875231   19.461007 H          1 MOL1         0.0972
       5    C2      20.704289   18.795056   20.182965 C.3        1 MOL1        -0.1383
       6    H4      21.145466   19.325014   19.327219 H          1 MOL1         0.0961
       7    H5      21.430957   18.023867   20.474439 H          1 MOL1         0.0961
       8    C3      20.513440   19.800493   21.344246 C.3        1 MOL1        -0.1407
       9    H6      21.471068   20.307572   21.526288 H          1 MOL1         0.0961
      10    H7      19.803173   20.581579   21.039779 H          1 MOL1         0.0961
      11    C4      20.032170   19.140653   22.658848 C.3        1 MOL1        -0.1407
      12    H8      20.718466   18.326126   22.925014 H          1 MOL1         0.0961
      13    H9      19.044645   18.690574   22.499665 H          1 MOL1         0.0961
      14    C5      19.954870   20.168937   23.817530 C.3        1 MOL1        -0.1472
      15    H10     20.935432   20.646841   23.942080 H          1 MOL1         0.0961
      16    H11     19.259856   20.973363   23.542516 H          1 MOL1         0.0961
      17    C6      19.521523   19.582502   25.182082 C.3        1 MOL1         0.1190
      18    H12     19.539849   20.401491   25.907866 H          1 MOL1         0.0923
      19    C7      18.086952   19.027130   25.144756 C.3        1 MOL1        -0.2463
      20    H13     18.012518   18.136821   24.509177 H          1 MOL1         0.0972
      21    H14     17.386593   19.781151   24.764617 H          1 MOL1         0.0972
      22    H15     17.758253   18.746723   26.152973 H          1 MOL1         0.0972
      23    N1      20.486306   18.549264   25.695699 N.4        1 MOL1        -0.5974
      24    H16     20.218832   18.217733   26.626802 H          1 MOL1         0.3625
      25    H17     20.521801   17.734443   25.078400 H          1 MOL1         0.3625
      26    H18     21.436310   18.924735   25.766248 H          1 MOL1         0.3625
@<TRIPOS>BOND
    1     1     2    1
    2     1     3    1
    3     1     4    1
    4     1     5    1
    5     5     6    1
    6     5     7    1
    7     5     8    1
    8     8     9    1
    9     8    10    1
   10     8    11    1
   11    11    12    1
   12    11    13    1
   13    11    14    1
   14    14    15    1
   15    14    16    1
   16    14    17    1
   17    17    18    1
   18    17    19    1
   19    19    20    1
   20    19    21    1
   21    19    22    1
   22    17    23    1
   23    23    24    1
   24    23    25    1
   25    23    26    1
@<TRIPOS>SUBSTRUCTURE
       1 MOL1            1 RESIDUE      1      MOL     
@<SCITEGIC>MOL_PROPERTY
VM2 Rank
SciTegic.value.IntegerValue
14

@<SCITEGIC>MOL_PROPERTY
Conf_Id
SciTegic.value.IntegerValue
1358

@<SCITEGIC>MOL_PROPERTY
Probability
SciTegic.value.DoubleValue
2.38

@<SCITEGIC>MOL_PROPERTY
Sum Probability
SciTegic.value.DoubleValue
75.53

@<SCITEGIC>MOL_PROPERTY
Delta G
SciTegic.value.DoubleValue
1.172

@<SCITEGIC>MOL_PROPERTY
G
SciTegic.value.DoubleValue
24.882

@<SCITEGIC>MOL_PROPERTY
E
SciTegic.value.DoubleValue
-7.926

@<SCITEGIC>MOL_PROPERTY
-TS
SciTegic.value.DoubleValue
32.808

@<SCITEGIC>MOL_PROPERTY
U+W
SciTegic.value.DoubleValue
-29.388

@<SCITEGIC>MOL_PROPERTY
U
SciTegic.value.DoubleValue
24.690

@<SCITEGIC>MOL_PROPERTY
W
SciTegic.value.DoubleValue
-54.078

@<SCITEGIC>MOL_PROPERTY
W(PB)
SciTegic.value.DoubleValue
-56.372

@<SCITEGIC>MOL_PROPERTY
W(SA)
SciTegic.value.DoubleValue
2.294

@<SCITEGIC>MOL_PROPERTY
Valence
SciTegic.value.DoubleValue
3.755

@<SCITEGIC>MOL_PROPERTY
Coulomb
SciTegic.value.DoubleValue
19.785

@<SCITEGIC>MOL_PROPERTY
VdW
SciTegic.value.DoubleValue
1.150

@<SCITEGIC>MOL_PROPERTY
VdW6
SciTegic.value.DoubleValue
-8.077

@<SCITEGIC>MOL_PROPERTY
VdW12
SciTegic.value.DoubleValue
9.227

@<SCITEGIC>MOL_PROPERTY
Bond
SciTegic.value.DoubleValue
0.244

@<SCITEGIC>MOL_PROPERTY
Angle
SciTegic.value.DoubleValue
1.443

@<SCITEGIC>MOL_PROPERTY
Pdih
SciTegic.value.DoubleValue
2.068

@<SCITEGIC>MOL_PROPERTY
Idih
SciTegic.value.DoubleValue
0.000

@<SCITEGIC>MOL_PROPERTY
Tether
SciTegic.value.DoubleValue
0.000

@<TRIPOS>MOLECULE
guest-s13_vm2.mol2 : vm2 ligand conformer 15
          26          25           1
SMALL
USER_CHARGES
 
@<TRIPOS>ATOM
       1    C1      20.516604   18.410183   19.095850 C.3        1 MOL1        -0.2398
       2    H1      19.769981   17.612262   18.990385 H          1 MOL1         0.0972
       3    H2      20.206486   19.254159   18.465960 H          1 MOL1         0.0972
       4    H3      21.470903   18.032434   18.706413 H          1 MOL1         0.0972
       5    C2      20.662338   18.841634   20.570632 C.3        1 MOL1        -0.1383
       6    H4      21.435394   19.618923   20.647498 H          1 MOL1         0.0961
       7    H5      21.013529   17.983251   21.158072 H          1 MOL1         0.0961
       8    C3      19.326960   19.373867   21.142902 C.3        1 MOL1        -0.1407
       9    H6      18.953902   20.172830   20.487221 H          1 MOL1         0.0961
      10    H7      18.569558   18.578209   21.119191 H          1 MOL1         0.0961
      11    C4      19.444268   19.937560   22.580835 C.3        1 MOL1        -0.1407
      12    H8      18.491100   20.421172   22.829803 H          1 MOL1         0.0961
      13    H9      20.207928   20.727213   22.604908 H          1 MOL1         0.0961
      14    C5      19.772966   18.858038   23.645085 C.3        1 MOL1        -0.1472
      15    H10     19.003210   18.075142   23.629100 H          1 MOL1         0.0961
      16    H11     20.718784   18.370731   23.379718 H          1 MOL1         0.0961
      17    C6      19.913319   19.419489   25.079005 C.3        1 MOL1         0.1190
      18    H12     20.640275   20.237273   25.057705 H          1 MOL1         0.0923
      19    C7      18.581198   19.964882   25.625090 C.3        1 MOL1        -0.2463
      20    H13     17.798283   19.196653   25.601726 H          1 MOL1         0.0972
      21    H14     18.234150   20.827778   25.045487 H          1 MOL1         0.0972
      22    H15     18.697740   20.299462   26.663268 H          1 MOL1         0.0972
      23    N1      20.470346   18.382348   26.014602 N.4        1 MOL1        -0.5974
      24    H16     19.845260   17.575873   26.094560 H          1 MOL1         0.3625
      25    H17     21.380040   18.036275   25.696348 H          1 MOL1         0.3625
      26    H18     20.602105   18.760859   26.956856 H          1 MOL1         0.3625
@<TRIPOS>BOND
    1     1     2    1
    2     1     3    1
    3     1     4    1
    4     1     5    1
    5     5     6    1
    6     5     7    1
    7     5     8    1
    8     8     9    1
    9     8    10    1
   10     8    11    1
   11    11    12    1
   12    11    13    1
   13    11    14    1
   14    14    15    1
   15    14    16    1
   16    14    17    1
   17    17    18    1
   18    17    19    1
   19    19    20    1
   20    19    21    1
   21    19    22    1
   22    17    23    1
   23    23    24    1
   24    23    25    1
   25    23    26    1
@<TRIPOS>SUBSTRUCTURE
       1 MOL1            1 RESIDUE      1      MOL     
@<SCITEGIC>MOL_PROPERTY
VM2 Rank
SciTegic.value.IntegerValue
15

@<SCITEGIC>MOL_PROPERTY
Conf_Id
SciTegic.value.IntegerValue
1049

@<SCITEGIC>MOL_PROPERTY
Probability
SciTegic.value.DoubleValue
2.26

@<SCITEGIC>MOL_PROPERTY
Sum Probability
SciTegic.value.DoubleValue
77.79

@<SCITEGIC>MOL_PROPERTY
Delta G
SciTegic.value.DoubleValue
1.203

@<SCITEGIC>MOL_PROPERTY
G
SciTegic.value.DoubleValue
24.913

@<SCITEGIC>MOL_PROPERTY
E
SciTegic.value.DoubleValue
-7.676

@<SCITEGIC>MOL_PROPERTY
-TS
SciTegic.value.DoubleValue
32.589

@<SCITEGIC>MOL_PROPERTY
U+W
SciTegic.value.DoubleValue
-29.138

@<SCITEGIC>MOL_PROPERTY
U
SciTegic.value.DoubleValue
24.912

@<SCITEGIC>MOL_PROPERTY
W
SciTegic.value.DoubleValue
-54.050

@<SCITEGIC>MOL_PROPERTY
W(PB)
SciTegic.value.DoubleValue
-56.344

@<SCITEGIC>MOL_PROPERTY
W(SA)
SciTegic.value.DoubleValue
2.294

@<SCITEGIC>MOL_PROPERTY
Valence
SciTegic.value.DoubleValue
3.916

@<SCITEGIC>MOL_PROPERTY
Coulomb
SciTegic.value.DoubleValue
19.768

@<SCITEGIC>MOL_PROPERTY
VdW
SciTegic.value.DoubleValue
1.227

@<SCITEGIC>MOL_PROPERTY
VdW6
SciTegic.value.DoubleValue
-7.563

@<SCITEGIC>MOL_PROPERTY
VdW12
SciTegic.value.DoubleValue
8.790

@<SCITEGIC>MOL_PROPERTY
Bond
SciTegic.value.DoubleValue
0.234

@<SCITEGIC>MOL_PROPERTY
Angle
SciTegic.value.DoubleValue
1.481

@<SCITEGIC>MOL_PROPERTY
Pdih
SciTegic.value.DoubleValue
2.202

@<SCITEGIC>MOL_PROPERTY
Idih
SciTegic.value.DoubleValue
0.000

@<SCITEGIC>MOL_PROPERTY
Tether
SciTegic.value.DoubleValue
0.000

@<TRIPOS>MOLECULE
guest-s13_vm2.mol2 : vm2 ligand conformer 16
          26          25           1
SMALL
USER_CHARGES
 
@<TRIPOS>ATOM
       1    C1      20.288302   19.120709   19.036994 C.3        1 MOL1        -0.2398
       2    H1      21.385245   19.105691   18.995419 H          1 MOL1         0.0972
       3    H2      19.918302   18.161550   18.651856 H          1 MOL1         0.0972
       4    H3      19.936261   19.912424   18.362985 H          1 MOL1         0.0972
       5    C2      19.791495   19.370002   20.476885 C.3        1 MOL1        -0.1383
       6    H4      18.693239   19.408967   20.481406 H          1 MOL1         0.0961
       7    H5      20.146906   20.353929   20.810358 H          1 MOL1         0.0961
       8    C3      20.279428   18.268044   21.446922 C.3        1 MOL1        -0.1407
       9    H6      19.981933   17.287264   21.050750 H          1 MOL1         0.0961
      10    H7      21.377613   18.265200   21.482175 H          1 MOL1         0.0961
      11    C4      19.713520   18.409401   22.881421 C.3        1 MOL1        -0.1407
      12    H8      20.015608   17.524148   23.456049 H          1 MOL1         0.0961
      13    H9      18.616507   18.391277   22.837086 H          1 MOL1         0.0961
      14    C5      20.198419   19.692216   23.610662 C.3        1 MOL1        -0.1472
      15    H10     21.293131   19.750026   23.551311 H          1 MOL1         0.0961
      16    H11     19.818699   20.579714   23.089347 H          1 MOL1         0.0961
      17    C6      19.782707   19.790059   25.097655 C.3        1 MOL1         0.1190
      18    H12     20.192800   20.726465   25.488554 H          1 MOL1         0.0923
      19    C7      18.254383   19.844469   25.267528 C.3        1 MOL1        -0.2463
      20    H13     17.822219   20.645162   24.654595 H          1 MOL1         0.0972
      21    H14     17.991588   20.047412   26.312957 H          1 MOL1         0.0972
      22    H15     17.780724   18.898026   24.980800 H          1 MOL1         0.0972
      23    N1      20.379746   18.693099   25.935933 N.4        1 MOL1        -0.5974
      24    H16     21.400882   18.677200   25.861872 H          1 MOL1         0.3625
      25    H17     20.147075   18.810264   26.926155 H          1 MOL1         0.3625
      26    H18     20.035374   17.774393   25.646884 H          1 MOL1         0.3625
@<TRIPOS>BOND
    1     1     2    1
    2     1     3    1
    3     1     4    1
    4     1     5    1
    5     5     6    1
    6     5     7    1
    7     5     8    1
    8     8     9    1
    9     8    10    1
   10     8    11    1
   11    11    12    1
   12    11    13    1
   13    11    14    1
   14    14    15    1
   15    14    16    1
   16    14    17    1
   17    17    18    1
   18    17    19    1
   19    19    20    1
   20    19    21    1
   21    19    22    1
   22    17    23    1
   23    23    24    1
   24    23    25    1
   25    23    26    1
@<TRIPOS>SUBSTRUCTURE
       1 MOL1            1 RESIDUE      1      MOL     
@<SCITEGIC>MOL_PROPERTY
VM2 Rank
SciTegic.value.IntegerValue
16

@<SCITEGIC>MOL_PROPERTY
Conf_Id
SciTegic.value.IntegerValue
529

@<SCITEGIC>MOL_PROPERTY
Probability
SciTegic.value.DoubleValue
1.94

@<SCITEGIC>MOL_PROPERTY
Sum Probability
SciTegic.value.DoubleValue
79.73

@<SCITEGIC>MOL_PROPERTY
Delta G
SciTegic.value.DoubleValue
1.295

@<SCITEGIC>MOL_PROPERTY
G
SciTegic.value.DoubleValue
25.005

@<SCITEGIC>MOL_PROPERTY
E
SciTegic.value.DoubleValue
-7.804

@<SCITEGIC>MOL_PROPERTY
-TS
SciTegic.value.DoubleValue
32.809

@<SCITEGIC>MOL_PROPERTY
U+W
SciTegic.value.DoubleValue
-29.266

@<SCITEGIC>MOL_PROPERTY
U
SciTegic.value.DoubleValue
24.725

@<SCITEGIC>MOL_PROPERTY
W
SciTegic.value.DoubleValue
-53.991

@<SCITEGIC>MOL_PROPERTY
W(PB)
SciTegic.value.DoubleValue
-56.300

@<SCITEGIC>MOL_PROPERTY
W(SA)
SciTegic.value.DoubleValue
2.309

@<SCITEGIC>MOL_PROPERTY
Valence
SciTegic.value.DoubleValue
3.779

@<SCITEGIC>MOL_PROPERTY
Coulomb
SciTegic.value.DoubleValue
19.804

@<SCITEGIC>MOL_PROPERTY
VdW
SciTegic.value.DoubleValue
1.142

@<SCITEGIC>MOL_PROPERTY
VdW6
SciTegic.value.DoubleValue
-8.104

@<SCITEGIC>MOL_PROPERTY
VdW12
SciTegic.value.DoubleValue
9.246

@<SCITEGIC>MOL_PROPERTY
Bond
SciTegic.value.DoubleValue
0.254

@<SCITEGIC>MOL_PROPERTY
Angle
SciTegic.value.DoubleValue
1.437

@<SCITEGIC>MOL_PROPERTY
Pdih
SciTegic.value.DoubleValue
2.089

@<SCITEGIC>MOL_PROPERTY
Idih
SciTegic.value.DoubleValue
0.000

@<SCITEGIC>MOL_PROPERTY
Tether
SciTegic.value.DoubleValue
0.000

@<TRIPOS>MOLECULE
guest-s13_vm2.mol2 : vm2 ligand conformer 17
          26          25           1
SMALL
USER_CHARGES
 
@<TRIPOS>ATOM
       1    C1      20.193523   20.042683   19.906667 C.3        1 MOL1        -0.2398
       2    H1      20.207581   20.748667   20.746334 H          1 MOL1         0.0972
       3    H2      21.222502   19.915543   19.546116 H          1 MOL1         0.0972
       4    H3      19.608669   20.501587   19.099074 H          1 MOL1         0.0972
       5    C2      19.577612   18.686209   20.317670 C.3        1 MOL1        -0.1383
       6    H4      19.474248   18.059065   19.421176 H          1 MOL1         0.0961
       7    H5      18.557400   18.840589   20.693442 H          1 MOL1         0.0961
       8    C3      20.424192   17.915140   21.362578 C.3        1 MOL1        -0.1407
       9    H6      19.930626   16.958114   21.580931 H          1 MOL1         0.0961
      10    H7      21.392342   17.657141   20.911659 H          1 MOL1         0.0961
      11    C4      20.682644   18.664760   22.695429 C.3        1 MOL1        -0.1407
      12    H8      21.269116   19.573576   22.505648 H          1 MOL1         0.0961
      13    H9      21.313586   18.023701   23.324766 H          1 MOL1         0.0961
      14    C5      19.385616   19.029237   23.462539 C.3        1 MOL1        -0.1472
      15    H10     18.771019   19.690138   22.838734 H          1 MOL1         0.0961
      16    H11     18.792201   18.122887   23.641566 H          1 MOL1         0.0961
      17    C6      19.659841   19.744381   24.803510 C.3        1 MOL1         0.1190
      18    H12     20.282641   20.621667   24.603042 H          1 MOL1         0.0923
      19    C7      18.341568   20.222689   25.433040 C.3        1 MOL1        -0.2463
      20    H13     18.531489   20.762738   26.368800 H          1 MOL1         0.0972
      21    H14     17.677796   19.377578   25.654640 H          1 MOL1         0.0972
      22    H15     17.811528   20.905331   24.757178 H          1 MOL1         0.0972
      23    N1      20.423004   18.882901   25.772567 N.4        1 MOL1        -0.5974
      24    H16     20.609865   19.379864   26.648055 H          1 MOL1         0.3625
      25    H17     19.902176   18.033884   26.007460 H          1 MOL1         0.3625
      26    H18     21.325699   18.594158   25.386523 H          1 MOL1         0.3625
@<TRIPOS>BOND
    1     1     2    1
    2     1     3    1
    3     1     4    1
    4     1     5    1
    5     5     6    1
    6     5     7    1
    7     5     8    1
    8     8     9    1
    9     8    10    1
   10     8    11    1
   11    11    12    1
   12    11    13    1
   13    11    14    1
   14    14    15    1
   15    14    16    1
   16    14    17    1
   17    17    18    1
   18    17    19    1
   19    19    20    1
   20    19    21    1
   21    19    22    1
   22    17    23    1
   23    23    24    1
   24    23    25    1
   25    23    26    1
@<TRIPOS>SUBSTRUCTURE
       1 MOL1            1 RESIDUE      1      MOL     
@<SCITEGIC>MOL_PROPERTY
VM2 Rank
SciTegic.value.IntegerValue
17

@<SCITEGIC>MOL_PROPERTY
Conf_Id
SciTegic.value.IntegerValue
1335

@<SCITEGIC>MOL_PROPERTY
Probability
SciTegic.value.DoubleValue
1.90

@<SCITEGIC>MOL_PROPERTY
Sum Probability
SciTegic.value.DoubleValue
81.63

@<SCITEGIC>MOL_PROPERTY
Delta G
SciTegic.value.DoubleValue
1.305

@<SCITEGIC>MOL_PROPERTY
G
SciTegic.value.DoubleValue
25.015

@<SCITEGIC>MOL_PROPERTY
E
SciTegic.value.DoubleValue
-7.960

@<SCITEGIC>MOL_PROPERTY
-TS
SciTegic.value.DoubleValue
32.975

@<SCITEGIC>MOL_PROPERTY
U+W
SciTegic.value.DoubleValue
-29.421

@<SCITEGIC>MOL_PROPERTY
U
SciTegic.value.DoubleValue
24.692

@<SCITEGIC>MOL_PROPERTY
W
SciTegic.value.DoubleValue
-54.113

@<SCITEGIC>MOL_PROPERTY
W(PB)
SciTegic.value.DoubleValue
-56.397

@<SCITEGIC>MOL_PROPERTY
W(SA)
SciTegic.value.DoubleValue
2.284

@<SCITEGIC>MOL_PROPERTY
Valence
SciTegic.value.DoubleValue
3.727

@<SCITEGIC>MOL_PROPERTY
Coulomb
SciTegic.value.DoubleValue
19.918

@<SCITEGIC>MOL_PROPERTY
VdW
SciTegic.value.DoubleValue
1.047

@<SCITEGIC>MOL_PROPERTY
VdW6
SciTegic.value.DoubleValue
-8.393

@<SCITEGIC>MOL_PROPERTY
VdW12
SciTegic.value.DoubleValue
9.440

@<SCITEGIC>MOL_PROPERTY
Bond
SciTegic.value.DoubleValue
0.259

@<SCITEGIC>MOL_PROPERTY
Angle
SciTegic.value.DoubleValue
1.567

@<SCITEGIC>MOL_PROPERTY
Pdih
SciTegic.value.DoubleValue
1.900

@<SCITEGIC>MOL_PROPERTY
Idih
SciTegic.value.DoubleValue
0.000

@<SCITEGIC>MOL_PROPERTY
Tether
SciTegic.value.DoubleValue
0.000

@<TRIPOS>MOLECULE
guest-s13_vm2.mol2 : vm2 ligand conformer 18
          26          25           1
SMALL
USER_CHARGES
 
@<TRIPOS>ATOM
       1    C1      20.667060   19.850036   19.671519 C.3        1 MOL1        -0.2398
       2    H1      20.112427   20.512706   18.994561 H          1 MOL1         0.0972
       3    H2      21.490250   20.428895   20.110267 H          1 MOL1         0.0972
       4    H3      21.100763   19.040690   19.069794 H          1 MOL1         0.0972
       5    C2      19.737108   19.289576   20.768312 C.3        1 MOL1        -0.1383
       6    H4      18.908111   18.741968   20.298638 H          1 MOL1         0.0961
       7    H5      19.292782   20.128159   21.320842 H          1 MOL1         0.0961
       8    C3      20.497873   18.354303   21.737374 C.3        1 MOL1        -0.1407
       9    H6      20.992094   17.563992   21.155535 H          1 MOL1         0.0961
      10    H7      21.303276   18.912419   22.232948 H          1 MOL1         0.0961
      11    C4      19.584279   17.682899   22.795357 C.3        1 MOL1        -0.1407
      12    H8      20.190586   17.001490   23.407117 H          1 MOL1         0.0961
      13    H9      18.851486   17.045462   22.281649 H          1 MOL1         0.0961
      14    C5      18.823698   18.668515   23.722359 C.3        1 MOL1        -0.1472
      15    H10     18.080430   19.218395   23.130944 H          1 MOL1         0.0961
      16    H11     18.251315   18.092701   24.461675 H          1 MOL1         0.0961
      17    C6      19.735759   19.677136   24.455348 C.3        1 MOL1         0.1190
      18    H12     20.295571   20.242956   23.704625 H          1 MOL1         0.0923
      19    C7      18.891242   20.668521   25.271284 C.3        1 MOL1        -0.2463
      20    H13     19.531701   21.410501   25.763848 H          1 MOL1         0.0972
      21    H14     18.309219   20.151970   26.044780 H          1 MOL1         0.0972
      22    H15     18.192097   21.210783   24.622556 H          1 MOL1         0.0972
      23    N1      20.750980   18.997013   25.332448 N.4        1 MOL1        -0.5974
      24    H16     21.368536   19.675364   25.787177 H          1 MOL1         0.3625
      25    H17     20.299468   18.450465   26.070436 H          1 MOL1         0.3625
      26    H18     21.340064   18.357959   24.791991 H          1 MOL1         0.3625
@<TRIPOS>BOND
    1     1     2    1
    2     1     3    1
    3     1     4    1
    4     1     5    1
    5     5     6    1
    6     5     7    1
    7     5     8    1
    8     8     9    1
    9     8    10    1
   10     8    11    1
   11    11    12    1
   12    11    13    1
   13    11    14    1
   14    14    15    1
   15    14    16    1
   16    14    17    1
   17    17    18    1
   18    17    19    1
   19    19    20    1
   20    19    21    1
   21    19    22    1
   22    17    23    1
   23    23    24    1
   24    23    25    1
   25    23    26    1
@<TRIPOS>SUBSTRUCTURE
       1 MOL1            1 RESIDUE      1      MOL     
@<SCITEGIC>MOL_PROPERTY
VM2 Rank
SciTegic.value.IntegerValue
18

@<SCITEGIC>MOL_PROPERTY
Conf_Id
SciTegic.value.IntegerValue
441

@<SCITEGIC>MOL_PROPERTY
Probability
SciTegic.value.DoubleValue
1.90

@<SCITEGIC>MOL_PROPERTY
Sum Probability
SciTegic.value.DoubleValue
83.53

@<SCITEGIC>MOL_PROPERTY
Delta G
SciTegic.value.DoubleValue
1.307

@<SCITEGIC>MOL_PROPERTY
G
SciTegic.value.DoubleValue
25.017

@<SCITEGIC>MOL_PROPERTY
E
SciTegic.value.DoubleValue
-8.003

@<SCITEGIC>MOL_PROPERTY
-TS
SciTegic.value.DoubleValue
33.020

@<SCITEGIC>MOL_PROPERTY
U+W
SciTegic.value.DoubleValue
-29.465

@<SCITEGIC>MOL_PROPERTY
U
SciTegic.value.DoubleValue
24.584

@<SCITEGIC>MOL_PROPERTY
W
SciTegic.value.DoubleValue
-54.048

@<SCITEGIC>MOL_PROPERTY
W(PB)
SciTegic.value.DoubleValue
-56.337

@<SCITEGIC>MOL_PROPERTY
W(SA)
SciTegic.value.DoubleValue
2.288

@<SCITEGIC>MOL_PROPERTY
Valence
SciTegic.value.DoubleValue
3.508

@<SCITEGIC>MOL_PROPERTY
Coulomb
SciTegic.value.DoubleValue
20.402

@<SCITEGIC>MOL_PROPERTY
VdW
SciTegic.value.DoubleValue
0.674

@<SCITEGIC>MOL_PROPERTY
VdW6
SciTegic.value.DoubleValue
-8.749

@<SCITEGIC>MOL_PROPERTY
VdW12
SciTegic.value.DoubleValue
9.423

@<SCITEGIC>MOL_PROPERTY
Bond
SciTegic.value.DoubleValue
0.246

@<SCITEGIC>MOL_PROPERTY
Angle
SciTegic.value.DoubleValue
1.409

@<SCITEGIC>MOL_PROPERTY
Pdih
SciTegic.value.DoubleValue
1.854

@<SCITEGIC>MOL_PROPERTY
Idih
SciTegic.value.DoubleValue
0.000

@<SCITEGIC>MOL_PROPERTY
Tether
SciTegic.value.DoubleValue
0.000

@<TRIPOS>MOLECULE
guest-s13_vm2.mol2 : vm2 ligand conformer 19
          26          25           1
SMALL
USER_CHARGES
 
@<TRIPOS>ATOM
       1    C1      20.582842   18.953717   19.088314 C.3        1 MOL1        -0.2398
       2    H1      21.579082   19.069495   18.642069 H          1 MOL1         0.0972
       3    H2      20.145029   18.025645   18.698157 H          1 MOL1         0.0972
       4    H3      19.962109   19.793488   18.749617 H          1 MOL1         0.0972
       5    C2      20.676287   18.919309   20.628572 C.3        1 MOL1        -0.1383
       6    H4      21.155905   19.843828   20.975893 H          1 MOL1         0.0961
       7    H5      21.326161   18.087835   20.935157 H          1 MOL1         0.0961
       8    C3      19.282136   18.761088   21.280456 C.3        1 MOL1        -0.1407
       9    H6      18.650337   19.620935   21.018252 H          1 MOL1         0.0961
      10    H7      18.789130   17.876227   20.854583 H          1 MOL1         0.0961
      11    C4      19.329639   18.600944   22.820101 C.3        1 MOL1        -0.1407
      12    H8      19.957035   17.736197   23.073551 H          1 MOL1         0.0961
      13    H9      18.315771   18.360576   23.164923 H          1 MOL1         0.0961
      14    C5      19.842330   19.869132   23.556299 C.3        1 MOL1        -0.1472
      15    H10     20.867156   20.091938   23.235642 H          1 MOL1         0.0961
      16    H11     19.235917   20.733947   23.256412 H          1 MOL1         0.0961
      17    C6      19.839542   19.770871   25.100418 C.3        1 MOL1         0.1190
      18    H12     20.272170   20.699813   25.484787 H          1 MOL1         0.0923
      19    C7      18.416135   19.652075   25.673056 C.3        1 MOL1        -0.2463
      20    H13     17.952071   18.693041   25.414642 H          1 MOL1         0.0972
      21    H14     17.774938   20.457996   25.295041 H          1 MOL1         0.0972
      22    H15     18.436067   19.729217   26.767051 H          1 MOL1         0.0972
      23    N1      20.719089   18.660863   25.606784 N.4        1 MOL1        -0.5974
      24    H16     21.680240   18.758769   25.267681 H          1 MOL1         0.3625
      25    H17     20.755482   18.649446   26.629985 H          1 MOL1         0.3625
      26    H18     20.376002   17.746765   25.301791 H          1 MOL1         0.3625
@<TRIPOS>BOND
    1     1     2    1
    2     1     3    1
    3     1     4    1
    4     1     5    1
    5     5     6    1
    6     5     7    1
    7     5     8    1
    8     8     9    1
    9     8    10    1
   10     8    11    1
   11    11    12    1
   12    11    13    1
   13    11    14    1
   14    14    15    1
   15    14    16    1
   16    14    17    1
   17    17    18    1
   18    17    19    1
   19    19    20    1
   20    19    21    1
   21    19    22    1
   22    17    23    1
   23    23    24    1
   24    23    25    1
   25    23    26    1
@<TRIPOS>SUBSTRUCTURE
       1 MOL1            1 RESIDUE      1      MOL     
@<SCITEGIC>MOL_PROPERTY
VM2 Rank
SciTegic.value.IntegerValue
19

@<SCITEGIC>MOL_PROPERTY
Conf_Id
SciTegic.value.IntegerValue
1290

@<SCITEGIC>MOL_PROPERTY
Probability
SciTegic.value.DoubleValue
1.86

@<SCITEGIC>MOL_PROPERTY
Sum Probability
SciTegic.value.DoubleValue
85.39

@<SCITEGIC>MOL_PROPERTY
Delta G
SciTegic.value.DoubleValue
1.320

@<SCITEGIC>MOL_PROPERTY
G
SciTegic.value.DoubleValue
25.030

@<SCITEGIC>MOL_PROPERTY
E
SciTegic.value.DoubleValue
-7.728

@<SCITEGIC>MOL_PROPERTY
-TS
SciTegic.value.DoubleValue
32.758

@<SCITEGIC>MOL_PROPERTY
U+W
SciTegic.value.DoubleValue
-29.190

@<SCITEGIC>MOL_PROPERTY
U
SciTegic.value.DoubleValue
24.991

@<SCITEGIC>MOL_PROPERTY
W
SciTegic.value.DoubleValue
-54.180

@<SCITEGIC>MOL_PROPERTY
W(PB)
SciTegic.value.DoubleValue
-56.460

@<SCITEGIC>MOL_PROPERTY
W(SA)
SciTegic.value.DoubleValue
2.279

@<SCITEGIC>MOL_PROPERTY
Valence
SciTegic.value.DoubleValue
3.862

@<SCITEGIC>MOL_PROPERTY
Coulomb
SciTegic.value.DoubleValue
19.956

@<SCITEGIC>MOL_PROPERTY
VdW
SciTegic.value.DoubleValue
1.172

@<SCITEGIC>MOL_PROPERTY
VdW6
SciTegic.value.DoubleValue
-8.054

@<SCITEGIC>MOL_PROPERTY
VdW12
SciTegic.value.DoubleValue
9.225

@<SCITEGIC>MOL_PROPERTY
Bond
SciTegic.value.DoubleValue
0.258

@<SCITEGIC>MOL_PROPERTY
Angle
SciTegic.value.DoubleValue
1.499

@<SCITEGIC>MOL_PROPERTY
Pdih
SciTegic.value.DoubleValue
2.106

@<SCITEGIC>MOL_PROPERTY
Idih
SciTegic.value.DoubleValue
0.000

@<SCITEGIC>MOL_PROPERTY
Tether
SciTegic.value.DoubleValue
0.000

@<TRIPOS>MOLECULE
guest-s13_vm2.mol2 : vm2 ligand conformer 20
          26          25           1
SMALL
USER_CHARGES
 
@<TRIPOS>ATOM
       1    C1      20.294969   17.642537   20.325095 C.3        1 MOL1        -0.2398
       2    H1      21.320704   17.717772   19.941486 H          1 MOL1         0.0972
       3    H2      20.334556   17.206162   21.330828 H          1 MOL1         0.0972
       4    H3      19.746366   16.941882   19.682477 H          1 MOL1         0.0972
       5    C2      19.602740   19.024240   20.334034 C.3        1 MOL1        -0.1383
       6    H4      18.587211   18.927327   20.740735 H          1 MOL1         0.0961
       7    H5      19.479193   19.364486   19.296420 H          1 MOL1         0.0961
       8    C3      20.392501   20.104573   21.116169 C.3        1 MOL1        -0.1407
       9    H6      21.357468   20.269721   20.617421 H          1 MOL1         0.0961
      10    H7      19.851452   21.058276   21.046247 H          1 MOL1         0.0961
      11    C4      20.653456   19.780640   22.609802 C.3        1 MOL1        -0.1407
      12    H8      21.226257   20.609607   23.048153 H          1 MOL1         0.0961
      13    H9      21.295612   18.894000   22.685942 H          1 MOL1         0.0961
      14    C5      19.355175   19.575592   23.431268 C.3        1 MOL1        -0.1472
      15    H10     18.690026   20.433096   23.263694 H          1 MOL1         0.0961
      16    H11     18.819495   18.686461   23.075122 H          1 MOL1         0.0961
      17    C6      19.619915   19.438083   24.946043 C.3        1 MOL1         0.1190
      18    H12     20.169986   20.323399   25.279693 H          1 MOL1         0.0923
      19    C7      18.291883   19.376093   25.717459 C.3        1 MOL1        -0.2463
      20    H13     17.690287   20.274386   25.530713 H          1 MOL1         0.0972
      21    H14     18.472760   19.315752   26.797738 H          1 MOL1         0.0972
      22    H15     17.700442   18.500972   25.420379 H          1 MOL1         0.0972
      23    N1      20.477361   18.246241   25.274131 N.4        1 MOL1        -0.5974
      24    H16     21.383201   18.295893   24.800464 H          1 MOL1         0.3625
      25    H17     20.660790   18.182950   26.279497 H          1 MOL1         0.3625
      26    H18     20.027007   17.372667   24.989157 H          1 MOL1         0.3625
@<TRIPOS>BOND
    1     1     2    1
    2     1     3    1
    3     1     4    1
    4     1     5    1
    5     5     6    1
    6     5     7    1
    7     5     8    1
    8     8     9    1
    9     8    10    1
   10     8    11    1
   11    11    12    1
   12    11    13    1
   13    11    14    1
   14    14    15    1
   15    14    16    1
   16    14    17    1
   17    17    18    1
   18    17    19    1
   19    19    20    1
   20    19    21    1
   21    19    22    1
   22    17    23    1
   23    23    24    1
   24    23    25    1
   25    23    26    1
@<TRIPOS>SUBSTRUCTURE
       1 MOL1            1 RESIDUE      1      MOL     
@<SCITEGIC>MOL_PROPERTY
VM2 Rank
SciTegic.value.IntegerValue
20

@<SCITEGIC>MOL_PROPERTY
Conf_Id
SciTegic.value.IntegerValue
1326

@<SCITEGIC>MOL_PROPERTY
Probability
SciTegic.value.DoubleValue
1.62

@<SCITEGIC>MOL_PROPERTY
Sum Probability
SciTegic.value.DoubleValue
87.01

@<SCITEGIC>MOL_PROPERTY
Delta G
SciTegic.value.DoubleValue
1.403

@<SCITEGIC>MOL_PROPERTY
G
SciTegic.value.DoubleValue
25.112

@<SCITEGIC>MOL_PROPERTY
E
SciTegic.value.DoubleValue
-7.883

@<SCITEGIC>MOL_PROPERTY
-TS
SciTegic.value.DoubleValue
32.995

@<SCITEGIC>MOL_PROPERTY
U+W
SciTegic.value.DoubleValue
-29.345

@<SCITEGIC>MOL_PROPERTY
U
SciTegic.value.DoubleValue
24.852

@<SCITEGIC>MOL_PROPERTY
W
SciTegic.value.DoubleValue
-54.196

@<SCITEGIC>MOL_PROPERTY
W(PB)
SciTegic.value.DoubleValue
-56.469

@<SCITEGIC>MOL_PROPERTY
W(SA)
SciTegic.value.DoubleValue
2.273

@<SCITEGIC>MOL_PROPERTY
Valence
SciTegic.value.DoubleValue
3.679

@<SCITEGIC>MOL_PROPERTY
Coulomb
SciTegic.value.DoubleValue
20.236

@<SCITEGIC>MOL_PROPERTY
VdW
SciTegic.value.DoubleValue
0.936

@<SCITEGIC>MOL_PROPERTY
VdW6
SciTegic.value.DoubleValue
-8.465

@<SCITEGIC>MOL_PROPERTY
VdW12
SciTegic.value.DoubleValue
9.401

@<SCITEGIC>MOL_PROPERTY
Bond
SciTegic.value.DoubleValue
0.251

@<SCITEGIC>MOL_PROPERTY
Angle
SciTegic.value.DoubleValue
1.471

@<SCITEGIC>MOL_PROPERTY
Pdih
SciTegic.value.DoubleValue
1.958

@<SCITEGIC>MOL_PROPERTY
Idih
SciTegic.value.DoubleValue
0.000

@<SCITEGIC>MOL_PROPERTY
Tether
SciTegic.value.DoubleValue
0.000

@<TRIPOS>MOLECULE
guest-s13_vm2.mol2 : vm2 ligand conformer 21
          26          25           1
SMALL
USER_CHARGES
 
@<TRIPOS>ATOM
       1    C1      19.466468   19.736403   19.671708 C.3        1 MOL1        -0.2398
       2    H1      19.470076   20.772706   20.033737 H          1 MOL1         0.0972
       3    H2      19.518765   19.763663   18.575601 H          1 MOL1         0.0972
       4    H3      18.507049   19.279749   19.944517 H          1 MOL1         0.0972
       5    C2      20.658871   18.941239   20.250236 C.3        1 MOL1        -0.1383
       6    H4      21.592442   19.363683   19.853023 H          1 MOL1         0.0961
       7    H5      20.616907   17.901690   19.896228 H          1 MOL1         0.0961
       8    C3      20.720430   18.966499   21.796333 C.3        1 MOL1        -0.1407
       9    H6      21.649795   18.475851   22.116979 H          1 MOL1         0.0961
      10    H7      20.786193   20.008765   22.135943 H          1 MOL1         0.0961
      11    C4      19.516939   18.260308   22.470083 C.3        1 MOL1        -0.1407
      12    H8      19.410826   17.251025   22.049234 H          1 MOL1         0.0961
      13    H9      18.584873   18.787319   22.230724 H          1 MOL1         0.0961
      14    C5      19.667273   18.138241   24.008467 C.3        1 MOL1        -0.1472
      15    H10     18.787345   17.621228   24.413658 H          1 MOL1         0.0961
      16    H11     20.526687   17.489252   24.222451 H          1 MOL1         0.0961
      17    C6      19.860899   19.479220   24.755331 C.3        1 MOL1         0.1190
      18    H12     20.743304   19.978652   24.344492 H          1 MOL1         0.0923
      19    C7      18.650270   20.414899   24.588152 C.3        1 MOL1        -0.2463
      20    H13     17.726866   19.934813   24.935195 H          1 MOL1         0.0972
      21    H14     18.513864   20.705416   23.539922 H          1 MOL1         0.0972
      22    H15     18.791959   21.337234   25.164745 H          1 MOL1         0.0972
      23    N1      20.146851   19.251191   26.213689 N.4        1 MOL1        -0.5974
      24    H16     20.975555   18.664988   26.348698 H          1 MOL1         0.3625
      25    H17     20.315467   20.133815   26.704571 H          1 MOL1         0.3625
      26    H18     19.363093   18.787467   26.680767 H          1 MOL1         0.3625
@<TRIPOS>BOND
    1     1     2    1
    2     1     3    1
    3     1     4    1
    4     1     5    1
    5     5     6    1
    6     5     7    1
    7     5     8    1
    8     8     9    1
    9     8    10    1
   10     8    11    1
   11    11    12    1
   12    11    13    1
   13    11    14    1
   14    14    15    1
   15    14    16    1
   16    14    17    1
   17    17    18    1
   18    17    19    1
   19    19    20    1
   20    19    21    1
   21    19    22    1
   22    17    23    1
   23    23    24    1
   24    23    25    1
   25    23    26    1
@<TRIPOS>SUBSTRUCTURE
       1 MOL1            1 RESIDUE      1      MOL     
@<SCITEGIC>MOL_PROPERTY
VM2 Rank
SciTegic.value.IntegerValue
21

@<SCITEGIC>MOL_PROPERTY
Conf_Id
SciTegic.value.IntegerValue
183

@<SCITEGIC>MOL_PROPERTY
Probability
SciTegic.value.DoubleValue
1.60

@<SCITEGIC>MOL_PROPERTY
Sum Probability
SciTegic.value.DoubleValue
88.61

@<SCITEGIC>MOL_PROPERTY
Delta G
SciTegic.value.DoubleValue
1.410

@<SCITEGIC>MOL_PROPERTY
G
SciTegic.value.DoubleValue
25.119

@<SCITEGIC>MOL_PROPERTY
E
SciTegic.value.DoubleValue
-7.848

@<SCITEGIC>MOL_PROPERTY
-TS
SciTegic.value.DoubleValue
32.967

@<SCITEGIC>MOL_PROPERTY
U+W
SciTegic.value.DoubleValue
-29.309

@<SCITEGIC>MOL_PROPERTY
U
SciTegic.value.DoubleValue
24.864

@<SCITEGIC>MOL_PROPERTY
W
SciTegic.value.DoubleValue
-54.173

@<SCITEGIC>MOL_PROPERTY
W(PB)
SciTegic.value.DoubleValue
-56.445

@<SCITEGIC>MOL_PROPERTY
W(SA)
SciTegic.value.DoubleValue
2.272

@<SCITEGIC>MOL_PROPERTY
Valence
SciTegic.value.DoubleValue
4.005

@<SCITEGIC>MOL_PROPERTY
Coulomb
SciTegic.value.DoubleValue
19.922

@<SCITEGIC>MOL_PROPERTY
VdW
SciTegic.value.DoubleValue
0.937

@<SCITEGIC>MOL_PROPERTY
VdW6
SciTegic.value.DoubleValue
-8.619

@<SCITEGIC>MOL_PROPERTY
VdW12
SciTegic.value.DoubleValue
9.556

@<SCITEGIC>MOL_PROPERTY
Bond
SciTegic.value.DoubleValue
0.248

@<SCITEGIC>MOL_PROPERTY
Angle
SciTegic.value.DoubleValue
1.606

@<SCITEGIC>MOL_PROPERTY
Pdih
SciTegic.value.DoubleValue
2.151

@<SCITEGIC>MOL_PROPERTY
Idih
SciTegic.value.DoubleValue
0.000

@<SCITEGIC>MOL_PROPERTY
Tether
SciTegic.value.DoubleValue
0.000

@<TRIPOS>MOLECULE
guest-s13_vm2.mol2 : vm2 ligand conformer 22
          26          25           1
SMALL
USER_CHARGES
 
@<TRIPOS>ATOM
       1    C1      20.115495   18.573952   19.346038 C.3        1 MOL1        -0.2398
       2    H1      19.347087   19.301811   19.054854 H          1 MOL1         0.0972
       3    H2      20.712397   18.341679   18.454583 H          1 MOL1         0.0972
       4    H3      19.613945   17.648953   19.656008 H          1 MOL1         0.0972
       5    C2      21.017136   19.136272   20.468467 C.3        1 MOL1        -0.1383
       6    H4      21.591776   19.983169   20.067979 H          1 MOL1         0.0961
       7    H5      21.754877   18.377731   20.765207 H          1 MOL1         0.0961
       8    C3      20.229357   19.616068   21.711513 C.3        1 MOL1        -0.1407
       9    H6      20.935156   20.112634   22.390053 H          1 MOL1         0.0961
      10    H7      19.500291   20.380751   21.409955 H          1 MOL1         0.0961
      11    C4      19.504065   18.469883   22.461532 C.3        1 MOL1        -0.1407
      12    H8      20.226323   17.690641   22.738588 H          1 MOL1         0.0961
      13    H9      18.783304   17.989893   21.787017 H          1 MOL1         0.0961
      14    C5      18.734487   18.952629   23.718096 C.3        1 MOL1        -0.1472
      15    H10     17.958476   19.663751   23.404920 H          1 MOL1         0.0961
      16    H11     18.205739   18.098878   24.162412 H          1 MOL1         0.0961
      17    C6      19.622207   19.617765   24.794156 C.3        1 MOL1         0.1190
      18    H12     20.121900   20.480773   24.344583 H          1 MOL1         0.0923
      19    C7      18.759577   20.120756   25.962511 C.3        1 MOL1        -0.2463
      20    H13     18.237537   19.291824   26.456706 H          1 MOL1         0.0972
      21    H14     18.006898   20.837315   25.610747 H          1 MOL1         0.0972
      22    H15     19.378893   20.629546   26.711467 H          1 MOL1         0.0972
      23    N1      20.705675   18.700674   25.291688 N.4        1 MOL1        -0.5974
      24    H16     21.300115   19.163935   25.984780 H          1 MOL1         0.3625
      25    H17     20.313352   17.865124   25.733464 H          1 MOL1         0.3625
      26    H18     21.310190   18.390413   24.526218 H          1 MOL1         0.3625
@<TRIPOS>BOND
    1     1     2    1
    2     1     3    1
    3     1     4    1
    4     1     5    1
    5     5     6    1
    6     5     7    1
    7     5     8    1
    8     8     9    1
    9     8    10    1
   10     8    11    1
   11    11    12    1
   12    11    13    1
   13    11    14    1
   14    14    15    1
   15    14    16    1
   16    14    17    1
   17    17    18    1
   18    17    19    1
   19    19    20    1
   20    19    21    1
   21    19    22    1
   22    17    23    1
   23    23    24    1
   24    23    25    1
   25    23    26    1
@<TRIPOS>SUBSTRUCTURE
       1 MOL1            1 RESIDUE      1      MOL     
@<SCITEGIC>MOL_PROPERTY
VM2 Rank
SciTegic.value.IntegerValue
22

@<SCITEGIC>MOL_PROPERTY
Conf_Id
SciTegic.value.IntegerValue
1215

@<SCITEGIC>MOL_PROPERTY
Probability
SciTegic.value.DoubleValue
1.58

@<SCITEGIC>MOL_PROPERTY
Sum Probability
SciTegic.value.DoubleValue
90.19

@<SCITEGIC>MOL_PROPERTY
Delta G
SciTegic.value.DoubleValue
1.415

@<SCITEGIC>MOL_PROPERTY
G
SciTegic.value.DoubleValue
25.125

@<SCITEGIC>MOL_PROPERTY
E
SciTegic.value.DoubleValue
-7.705

@<SCITEGIC>MOL_PROPERTY
-TS
SciTegic.value.DoubleValue
32.830

@<SCITEGIC>MOL_PROPERTY
U+W
SciTegic.value.DoubleValue
-29.167

@<SCITEGIC>MOL_PROPERTY
U
SciTegic.value.DoubleValue
24.833

@<SCITEGIC>MOL_PROPERTY
W
SciTegic.value.DoubleValue
-54.000

@<SCITEGIC>MOL_PROPERTY
W(PB)
SciTegic.value.DoubleValue
-56.293

@<SCITEGIC>MOL_PROPERTY
W(SA)
SciTegic.value.DoubleValue
2.294

@<SCITEGIC>MOL_PROPERTY
Valence
SciTegic.value.DoubleValue
3.589

@<SCITEGIC>MOL_PROPERTY
Coulomb
SciTegic.value.DoubleValue
20.270

@<SCITEGIC>MOL_PROPERTY
VdW
SciTegic.value.DoubleValue
0.974

@<SCITEGIC>MOL_PROPERTY
VdW6
SciTegic.value.DoubleValue
-8.254

@<SCITEGIC>MOL_PROPERTY
VdW12
SciTegic.value.DoubleValue
9.228

@<SCITEGIC>MOL_PROPERTY
Bond
SciTegic.value.DoubleValue
0.244

@<SCITEGIC>MOL_PROPERTY
Angle
SciTegic.value.DoubleValue
1.377

@<SCITEGIC>MOL_PROPERTY
Pdih
SciTegic.value.DoubleValue
1.968

@<SCITEGIC>MOL_PROPERTY
Idih
SciTegic.value.DoubleValue
0.000

@<SCITEGIC>MOL_PROPERTY
Tether
SciTegic.value.DoubleValue
0.000

@<TRIPOS>MOLECULE
guest-s13_vm2.mol2 : vm2 ligand conformer 23
          26          25           1
SMALL
USER_CHARGES
 
@<TRIPOS>ATOM
       1    C1      21.241596   18.195709   20.074452 C.3        1 MOL1        -0.2398
       2    H1      22.152916   18.417251   20.644854 H          1 MOL1         0.0972
       3    H2      20.811598   17.263078   20.460095 H          1 MOL1         0.0972
       4    H3      21.533992   18.017074   19.031605 H          1 MOL1         0.0972
       5    C2      20.233753   19.364343   20.160305 C.3        1 MOL1        -0.1383
       6    H4      19.321191   19.107393   19.604457 H          1 MOL1         0.0961
       7    H5      20.664093   20.240863   19.655997 H          1 MOL1         0.0961
       8    C3      19.870198   19.755657   21.612704 C.3        1 MOL1        -0.1407
       9    H6      20.786885   20.033101   22.149802 H          1 MOL1         0.0961
      10    H7      19.242600   20.657115   21.584402 H          1 MOL1         0.0961
      11    C4      19.116371   18.639089   22.378452 C.3        1 MOL1        -0.1407
      12    H8      19.757563   17.755544   22.488915 H          1 MOL1         0.0961
      13    H9      18.252109   18.315429   21.782291 H          1 MOL1         0.0961
      14    C5      18.610923   19.092767   23.771937 C.3        1 MOL1        -0.1472
      15    H10     17.884891   19.905580   23.637175 H          1 MOL1         0.0961
      16    H11     18.061140   18.265561   24.240264 H          1 MOL1         0.0961
      17    C6      19.728828   19.569569   24.726331 C.3        1 MOL1         0.1190
      18    H12     20.251023   20.406869   24.253987 H          1 MOL1         0.0923
      19    C7      19.126356   20.066724   26.049942 C.3        1 MOL1        -0.2463
      20    H13     18.418766   20.886184   25.872413 H          1 MOL1         0.0972
      21    H14     19.911687   20.443792   26.716594 H          1 MOL1         0.0972
      22    H15     18.593135   19.261686   26.570968 H          1 MOL1         0.0972
      23    N1      20.759975   18.504142   24.979876 N.4        1 MOL1        -0.5974
      24    H16     20.345334   17.683296   25.428818 H          1 MOL1         0.3625
      25    H17     21.194150   18.192818   24.106774 H          1 MOL1         0.3625
      26    H18     21.507435   18.843847   25.591665 H          1 MOL1         0.3625
@<TRIPOS>BOND
    1     1     2    1
    2     1     3    1
    3     1     4    1
    4     1     5    1
    5     5     6    1
    6     5     7    1
    7     5     8    1
    8     8     9    1
    9     8    10    1
   10     8    11    1
   11    11    12    1
   12    11    13    1
   13    11    14    1
   14    14    15    1
   15    14    16    1
   16    14    17    1
   17    17    18    1
   18    17    19    1
   19    19    20    1
   20    19    21    1
   21    19    22    1
   22    17    23    1
   23    23    24    1
   24    23    25    1
   25    23    26    1
@<TRIPOS>SUBSTRUCTURE
       1 MOL1            1 RESIDUE      1      MOL     
@<SCITEGIC>MOL_PROPERTY
VM2 Rank
SciTegic.value.IntegerValue
23

@<SCITEGIC>MOL_PROPERTY
Conf_Id
SciTegic.value.IntegerValue
802

@<SCITEGIC>MOL_PROPERTY
Probability
SciTegic.value.DoubleValue
1.46

@<SCITEGIC>MOL_PROPERTY
Sum Probability
SciTegic.value.DoubleValue
91.64

@<SCITEGIC>MOL_PROPERTY
Delta G
SciTegic.value.DoubleValue
1.465

@<SCITEGIC>MOL_PROPERTY
G
SciTegic.value.DoubleValue
25.175

@<SCITEGIC>MOL_PROPERTY
E
SciTegic.value.DoubleValue
-7.697

@<SCITEGIC>MOL_PROPERTY
-TS
SciTegic.value.DoubleValue
32.872

@<SCITEGIC>MOL_PROPERTY
U+W
SciTegic.value.DoubleValue
-29.159

@<SCITEGIC>MOL_PROPERTY
U
SciTegic.value.DoubleValue
24.810

@<SCITEGIC>MOL_PROPERTY
W
SciTegic.value.DoubleValue
-53.969

@<SCITEGIC>MOL_PROPERTY
W(PB)
SciTegic.value.DoubleValue
-56.251

@<SCITEGIC>MOL_PROPERTY
W(SA)
SciTegic.value.DoubleValue
2.282

@<SCITEGIC>MOL_PROPERTY
Valence
SciTegic.value.DoubleValue
3.513

@<SCITEGIC>MOL_PROPERTY
Coulomb
SciTegic.value.DoubleValue
20.423

@<SCITEGIC>MOL_PROPERTY
VdW
SciTegic.value.DoubleValue
0.874

@<SCITEGIC>MOL_PROPERTY
VdW6
SciTegic.value.DoubleValue
-8.372

@<SCITEGIC>MOL_PROPERTY
VdW12
SciTegic.value.DoubleValue
9.246

@<SCITEGIC>MOL_PROPERTY
Bond
SciTegic.value.DoubleValue
0.236

@<SCITEGIC>MOL_PROPERTY
Angle
SciTegic.value.DoubleValue
1.287

@<SCITEGIC>MOL_PROPERTY
Pdih
SciTegic.value.DoubleValue
1.990

@<SCITEGIC>MOL_PROPERTY
Idih
SciTegic.value.DoubleValue
0.000

@<SCITEGIC>MOL_PROPERTY
Tether
SciTegic.value.DoubleValue
0.000

@<TRIPOS>MOLECULE
guest-s13_vm2.mol2 : vm2 ligand conformer 24
          26          25           1
SMALL
USER_CHARGES
 
@<TRIPOS>ATOM
       1    C1      19.082345   18.286405   20.098905 C.3        1 MOL1        -0.2398
       2    H1      18.441827   18.197943   20.985248 H          1 MOL1         0.0972
       3    H2      18.693795   19.100070   19.472869 H          1 MOL1         0.0972
       4    H3      18.990663   17.351865   19.530511 H          1 MOL1         0.0972
       5    C2      20.556161   18.540750   20.488336 C.3        1 MOL1        -0.1383
       6    H4      21.173635   18.502471   19.580077 H          1 MOL1         0.0961
       7    H5      20.915714   17.725329   21.130171 H          1 MOL1         0.0961
       8    C3      20.783500   19.908248   21.181807 C.3        1 MOL1        -0.1407
       9    H6      21.855260   20.023260   21.394595 H          1 MOL1         0.0961
      10    H7      20.529800   20.711130   20.475977 H          1 MOL1         0.0961
      11    C4      19.982423   20.125328   22.491493 C.3        1 MOL1        -0.1407
      12    H8      18.908941   20.133002   22.264687 H          1 MOL1         0.0961
      13    H9      20.218617   21.125366   22.880573 H          1 MOL1         0.0961
      14    C5      20.294354   19.071682   23.585192 C.3        1 MOL1        -0.1472
      15    H10     19.949834   18.081066   23.262109 H          1 MOL1         0.0961
      16    H11     21.383753   19.001965   23.702577 H          1 MOL1         0.0961
      17    C6      19.672295   19.404256   24.960433 C.3        1 MOL1         0.1190
      18    H12     19.993292   20.410188   25.248048 H          1 MOL1         0.0923
      19    C7      18.133695   19.376152   24.921302 C.3        1 MOL1        -0.2463
      20    H13     17.763100   18.402298   24.577868 H          1 MOL1         0.0972
      21    H14     17.737570   20.149735   24.253418 H          1 MOL1         0.0972
      22    H15     17.718378   19.565584   25.918763 H          1 MOL1         0.0972
      23    N1      20.183226   18.475178   26.026533 N.4        1 MOL1        -0.5974
      24    H16     21.204020   18.510090   26.099810 H          1 MOL1         0.3625
      25    H17     19.804162   18.717044   26.946453 H          1 MOL1         0.3625
      26    H18     19.921686   17.504573   25.834318 H          1 MOL1         0.3625
@<TRIPOS>BOND
    1     1     2    1
    2     1     3    1
    3     1     4    1
    4     1     5    1
    5     5     6    1
    6     5     7    1
    7     5     8    1
    8     8     9    1
    9     8    10    1
   10     8    11    1
   11    11    12    1
   12    11    13    1
   13    11    14    1
   14    14    15    1
   15    14    16    1
   16    14    17    1
   17    17    18    1
   18    17    19    1
   19    19    20    1
   20    19    21    1
   21    19    22    1
   22    17    23    1
   23    23    24    1
   24    23    25    1
   25    23    26    1
@<TRIPOS>SUBSTRUCTURE
       1 MOL1            1 RESIDUE      1      MOL     
@<SCITEGIC>MOL_PROPERTY
VM2 Rank
SciTegic.value.IntegerValue
24

@<SCITEGIC>MOL_PROPERTY
Conf_Id
SciTegic.value.IntegerValue
225

@<SCITEGIC>MOL_PROPERTY
Probability
SciTegic.value.DoubleValue
1.19

@<SCITEGIC>MOL_PROPERTY
Sum Probability
SciTegic.value.DoubleValue
92.83

@<SCITEGIC>MOL_PROPERTY
Delta G
SciTegic.value.DoubleValue
1.587

@<SCITEGIC>MOL_PROPERTY
G
SciTegic.value.DoubleValue
25.296

@<SCITEGIC>MOL_PROPERTY
E
SciTegic.value.DoubleValue
-7.727

@<SCITEGIC>MOL_PROPERTY
-TS
SciTegic.value.DoubleValue
33.023

@<SCITEGIC>MOL_PROPERTY
U+W
SciTegic.value.DoubleValue
-29.189

@<SCITEGIC>MOL_PROPERTY
U
SciTegic.value.DoubleValue
25.014

@<SCITEGIC>MOL_PROPERTY
W
SciTegic.value.DoubleValue
-54.203

@<SCITEGIC>MOL_PROPERTY
W(PB)
SciTegic.value.DoubleValue
-56.465

@<SCITEGIC>MOL_PROPERTY
W(SA)
SciTegic.value.DoubleValue
2.262

@<SCITEGIC>MOL_PROPERTY
Valence
SciTegic.value.DoubleValue
4.188

@<SCITEGIC>MOL_PROPERTY
Coulomb
SciTegic.value.DoubleValue
19.774

@<SCITEGIC>MOL_PROPERTY
VdW
SciTegic.value.DoubleValue
1.052

@<SCITEGIC>MOL_PROPERTY
VdW6
SciTegic.value.DoubleValue
-8.655

@<SCITEGIC>MOL_PROPERTY
VdW12
SciTegic.value.DoubleValue
9.707

@<SCITEGIC>MOL_PROPERTY
Bond
SciTegic.value.DoubleValue
0.263

@<SCITEGIC>MOL_PROPERTY
Angle
SciTegic.value.DoubleValue
1.714

@<SCITEGIC>MOL_PROPERTY
Pdih
SciTegic.value.DoubleValue
2.211

@<SCITEGIC>MOL_PROPERTY
Idih
SciTegic.value.DoubleValue
0.000

@<SCITEGIC>MOL_PROPERTY
Tether
SciTegic.value.DoubleValue
0.000

@<TRIPOS>MOLECULE
guest-s13_vm2.mol2 : vm2 ligand conformer 25
          26          25           1
SMALL
USER_CHARGES
 
@<TRIPOS>ATOM
       1    C1      20.060935   18.616815   19.331028 C.3        1 MOL1        -0.2398
       2    H1      20.051111   18.996266   18.301050 H          1 MOL1         0.0972
       3    H2      20.809761   17.816054   19.386310 H          1 MOL1         0.0972
       4    H3      19.074480   18.180265   19.529939 H          1 MOL1         0.0972
       5    C2      20.390196   19.755412   20.323094 C.3        1 MOL1        -0.1383
       6    H4      19.609184   20.526965   20.273365 H          1 MOL1         0.0961
       7    H5      21.322881   20.241712   20.004611 H          1 MOL1         0.0961
       8    C3      20.557377   19.272617   21.784209 C.3        1 MOL1        -0.1407
       9    H6      21.344778   18.507687   21.829559 H          1 MOL1         0.0961
      10    H7      20.914285   20.120701   22.383118 H          1 MOL1         0.0961
      11    C4      19.250085   18.715012   22.402351 C.3        1 MOL1        -0.1407
      12    H8      18.902304   17.857645   21.811846 H          1 MOL1         0.0961
      13    H9      18.455190   19.469429   22.336231 H          1 MOL1         0.0961
      14    C5      19.419460   18.245771   23.870872 C.3        1 MOL1        -0.1472
      15    H10     18.463340   17.840099   24.227295 H          1 MOL1         0.0961
      16    H11     20.129611   17.408505   23.886887 H          1 MOL1         0.0961
      17    C6      19.910802   19.330980   24.858213 C.3        1 MOL1         0.1190
      18    H12     20.868920   19.717461   24.498704 H          1 MOL1         0.0923
      19    C7      18.921981   20.505410   24.966812 C.3        1 MOL1        -0.2463
      20    H13     17.926244   20.158980   25.270298 H          1 MOL1         0.0972
      21    H14     18.825889   21.033938   24.011242 H          1 MOL1         0.0972
      22    H15     19.268961   21.235722   25.708093 H          1 MOL1         0.0972
      23    N1      20.177164   18.745984   26.217420 N.4        1 MOL1        -0.5974
      24    H16     20.865908   17.989414   26.174357 H          1 MOL1         0.3625
      25    H17     20.540788   19.451763   26.864015 H          1 MOL1         0.3625
      26    H18     19.324508   18.361958   26.633331 H          1 MOL1         0.3625
@<TRIPOS>BOND
    1     1     2    1
    2     1     3    1
    3     1     4    1
    4     1     5    1
    5     5     6    1
    6     5     7    1
    7     5     8    1
    8     8     9    1
    9     8    10    1
   10     8    11    1
   11    11    12    1
   12    11    13    1
   13    11    14    1
   14    14    15    1
   15    14    16    1
   16    14    17    1
   17    17    18    1
   18    17    19    1
   19    19    20    1
   20    19    21    1
   21    19    22    1
   22    17    23    1
   23    23    24    1
   24    23    25    1
   25    23    26    1
@<TRIPOS>SUBSTRUCTURE
       1 MOL1            1 RESIDUE      1      MOL     
@<SCITEGIC>MOL_PROPERTY
VM2 Rank
SciTegic.value.IntegerValue
25

@<SCITEGIC>MOL_PROPERTY
Conf_Id
SciTegic.value.IntegerValue
5

@<SCITEGIC>MOL_PROPERTY
Probability
SciTegic.value.DoubleValue
1.14

@<SCITEGIC>MOL_PROPERTY
Sum Probability
SciTegic.value.DoubleValue
93.97

@<SCITEGIC>MOL_PROPERTY
Delta G
SciTegic.value.DoubleValue
1.610

@<SCITEGIC>MOL_PROPERTY
G
SciTegic.value.DoubleValue
25.320

@<SCITEGIC>MOL_PROPERTY
E
SciTegic.value.DoubleValue
-7.603

@<SCITEGIC>MOL_PROPERTY
-TS
SciTegic.value.DoubleValue
32.924

@<SCITEGIC>MOL_PROPERTY
U+W
SciTegic.value.DoubleValue
-29.065

@<SCITEGIC>MOL_PROPERTY
U
SciTegic.value.DoubleValue
25.023

@<SCITEGIC>MOL_PROPERTY
W
SciTegic.value.DoubleValue
-54.088

@<SCITEGIC>MOL_PROPERTY
W(PB)
SciTegic.value.DoubleValue
-56.383

@<SCITEGIC>MOL_PROPERTY
W(SA)
SciTegic.value.DoubleValue
2.296

@<SCITEGIC>MOL_PROPERTY
Valence
SciTegic.value.DoubleValue
4.083

@<SCITEGIC>MOL_PROPERTY
Coulomb
SciTegic.value.DoubleValue
19.893

@<SCITEGIC>MOL_PROPERTY
VdW
SciTegic.value.DoubleValue
1.047

@<SCITEGIC>MOL_PROPERTY
VdW6
SciTegic.value.DoubleValue
-8.479

@<SCITEGIC>MOL_PROPERTY
VdW12
SciTegic.value.DoubleValue
9.527

@<SCITEGIC>MOL_PROPERTY
Bond
SciTegic.value.DoubleValue
0.256

@<SCITEGIC>MOL_PROPERTY
Angle
SciTegic.value.DoubleValue
1.716

@<SCITEGIC>MOL_PROPERTY
Pdih
SciTegic.value.DoubleValue
2.112

@<SCITEGIC>MOL_PROPERTY
Idih
SciTegic.value.DoubleValue
0.000

@<SCITEGIC>MOL_PROPERTY
Tether
SciTegic.value.DoubleValue
0.000

@<TRIPOS>MOLECULE
guest-s13_vm2.mol2 : vm2 ligand conformer 26
          26          25           1
SMALL
USER_CHARGES
 
@<TRIPOS>ATOM
       1    C1      21.167935   19.399825   19.780405 C.3        1 MOL1        -0.2398
       2    H1      22.008012   18.811631   19.388849 H          1 MOL1         0.0972
       3    H2      20.481082   19.601232   18.948009 H          1 MOL1         0.0972
       4    H3      21.565166   20.359522   20.135936 H          1 MOL1         0.0972
       5    C2      20.453955   18.639614   20.918020 C.3        1 MOL1        -0.1383
       6    H4      21.180887   18.421808   21.711730 H          1 MOL1         0.0961
       7    H5      20.094494   17.672133   20.540573 H          1 MOL1         0.0961
       8    C3      19.266899   19.450934   21.488279 C.3        1 MOL1        -0.1407
       9    H6      19.631450   20.402889   21.896763 H          1 MOL1         0.0961
      10    H7      18.587894   19.715631   20.665972 H          1 MOL1         0.0961
      11    C4      18.454773   18.686634   22.565552 C.3        1 MOL1        -0.1407
      12    H8      18.011227   17.790630   22.109944 H          1 MOL1         0.0961
      13    H9      17.605209   19.308337   22.878187 H          1 MOL1         0.0961
      14    C5      19.269163   18.258188   23.815941 C.3        1 MOL1        -0.1472
      15    H10     18.589712   17.788016   24.539106 H          1 MOL1         0.0961
      16    H11     19.980145   17.475132   23.523330 H          1 MOL1         0.0961
      17    C6      20.043341   19.401816   24.512255 C.3        1 MOL1         0.1190
      18    H12     20.703858   19.868670   23.775465 H          1 MOL1         0.0923
      19    C7      19.098052   20.479632   25.072192 C.3        1 MOL1        -0.2463
      20    H13     18.384054   20.049146   25.785277 H          1 MOL1         0.0972
      21    H14     18.530768   20.966790   24.270616 H          1 MOL1         0.0972
      22    H15     19.666912   21.261576   25.590060 H          1 MOL1         0.0972
      23    N1      20.933882   18.871358   25.601357 N.4        1 MOL1        -0.5974
      24    H16     20.390883   18.417147   26.340504 H          1 MOL1         0.3625
      25    H17     21.600765   18.182376   25.242133 H          1 MOL1         0.3625
      26    H18     21.476947   19.621032   26.038961 H          1 MOL1         0.3625
@<TRIPOS>BOND
    1     1     2    1
    2     1     3    1
    3     1     4    1
    4     1     5    1
    5     5     6    1
    6     5     7    1
    7     5     8    1
    8     8     9    1
    9     8    10    1
   10     8    11    1
   11    11    12    1
   12    11    13    1
   13    11    14    1
   14    14    15    1
   15    14    16    1
   16    14    17    1
   17    17    18    1
   18    17    19    1
   19    19    20    1
   20    19    21    1
   21    19    22    1
   22    17    23    1
   23    23    24    1
   24    23    25    1
   25    23    26    1
@<TRIPOS>SUBSTRUCTURE
       1 MOL1            1 RESIDUE      1      MOL     
@<SCITEGIC>MOL_PROPERTY
VM2 Rank
SciTegic.value.IntegerValue
26

@<SCITEGIC>MOL_PROPERTY
Conf_Id
SciTegic.value.IntegerValue
1349

@<SCITEGIC>MOL_PROPERTY
Probability
SciTegic.value.DoubleValue
1.06

@<SCITEGIC>MOL_PROPERTY
Sum Probability
SciTegic.value.DoubleValue
95.03

@<SCITEGIC>MOL_PROPERTY
Delta G
SciTegic.value.DoubleValue
1.655

@<SCITEGIC>MOL_PROPERTY
G
SciTegic.value.DoubleValue
25.365

@<SCITEGIC>MOL_PROPERTY
E
SciTegic.value.DoubleValue
-7.775

@<SCITEGIC>MOL_PROPERTY
-TS
SciTegic.value.DoubleValue
33.140

@<SCITEGIC>MOL_PROPERTY
U+W
SciTegic.value.DoubleValue
-29.237

@<SCITEGIC>MOL_PROPERTY
U
SciTegic.value.DoubleValue
25.091

@<SCITEGIC>MOL_PROPERTY
W
SciTegic.value.DoubleValue
-54.328

@<SCITEGIC>MOL_PROPERTY
W(PB)
SciTegic.value.DoubleValue
-56.621

@<SCITEGIC>MOL_PROPERTY
W(SA)
SciTegic.value.DoubleValue
2.294

@<SCITEGIC>MOL_PROPERTY
Valence
SciTegic.value.DoubleValue
3.982

@<SCITEGIC>MOL_PROPERTY
Coulomb
SciTegic.value.DoubleValue
20.360

@<SCITEGIC>MOL_PROPERTY
VdW
SciTegic.value.DoubleValue
0.750

@<SCITEGIC>MOL_PROPERTY
VdW6
SciTegic.value.DoubleValue
-8.971

@<SCITEGIC>MOL_PROPERTY
VdW12
SciTegic.value.DoubleValue
9.720

@<SCITEGIC>MOL_PROPERTY
Bond
SciTegic.value.DoubleValue
0.256

@<SCITEGIC>MOL_PROPERTY
Angle
SciTegic.value.DoubleValue
1.694

@<SCITEGIC>MOL_PROPERTY
Pdih
SciTegic.value.DoubleValue
2.032

@<SCITEGIC>MOL_PROPERTY
Idih
SciTegic.value.DoubleValue
0.000

@<SCITEGIC>MOL_PROPERTY
Tether
SciTegic.value.DoubleValue
0.000

@<TRIPOS>MOLECULE
guest-s13_vm2.mol2 : vm2 ligand conformer 27
          26          25           1
SMALL
USER_CHARGES
 
@<TRIPOS>ATOM
       1    C1      19.030211   19.323401   19.975093 C.3        1 MOL1        -0.2398
       2    H1      18.710458   18.332020   19.628884 H          1 MOL1         0.0972
       3    H2      18.382977   19.622248   20.809045 H          1 MOL1         0.0972
       4    H3      18.863747   20.035224   19.156292 H          1 MOL1         0.0972
       5    C2      20.519116   19.313300   20.389284 C.3        1 MOL1        -0.1383
       6    H4      20.809905   20.308528   20.751159 H          1 MOL1         0.0961
       7    H5      21.133081   19.127796   19.496926 H          1 MOL1         0.0961
       8    C3      20.856719   18.236461   21.451994 C.3        1 MOL1        -0.1407
       9    H6      20.677447   17.242822   21.018734 H          1 MOL1         0.0961
      10    H7      21.932817   18.279144   21.669589 H          1 MOL1         0.0961
      11    C4      20.067905   18.347733   22.782336 C.3        1 MOL1        -0.1407
      12    H8      20.382161   17.521322   23.432923 H          1 MOL1         0.0961
      13    H9      18.999642   18.190939   22.586932 H          1 MOL1         0.0961
      14    C5      20.287535   19.698561   23.516433 C.3        1 MOL1        -0.1472
      15    H10     21.364865   19.879949   23.624198 H          1 MOL1         0.0961
      16    H11     19.901232   20.520041   22.900162 H          1 MOL1         0.0961
      17    C6      19.631399   19.792482   24.914176 C.3        1 MOL1         0.1190
      18    H12     19.874287   20.778954   25.321233 H          1 MOL1         0.0923
      19    C7      18.098246   19.684291   24.840371 C.3        1 MOL1        -0.2463
      20    H13     17.776884   18.683567   24.528074 H          1 MOL1         0.0972
      21    H14     17.689608   20.414104   24.130472 H          1 MOL1         0.0972
      22    H15     17.651695   19.888553   25.821198 H          1 MOL1         0.0972
      23    N1      20.196868   18.791772   25.884313 N.4        1 MOL1        -0.5974
      24    H16     21.212748   18.885803   25.971340 H          1 MOL1         0.3625
      25    H17     19.797682   18.910657   26.819664 H          1 MOL1         0.3625
      26    H18     20.000407   17.833140   25.586704 H          1 MOL1         0.3625
@<TRIPOS>BOND
    1     1     2    1
    2     1     3    1
    3     1     4    1
    4     1     5    1
    5     5     6    1
    6     5     7    1
    7     5     8    1
    8     8     9    1
    9     8    10    1
   10     8    11    1
   11    11    12    1
   12    11    13    1
   13    11    14    1
   14    14    15    1
   15    14    16    1
   16    14    17    1
   17    17    18    1
   18    17    19    1
   19    19    20    1
   20    19    21    1
   21    19    22    1
   22    17    23    1
   23    23    24    1
   24    23    25    1
   25    23    26    1
@<TRIPOS>SUBSTRUCTURE
       1 MOL1            1 RESIDUE      1      MOL     
@<SCITEGIC>MOL_PROPERTY
VM2 Rank
SciTegic.value.IntegerValue
27

@<SCITEGIC>MOL_PROPERTY
Conf_Id
SciTegic.value.IntegerValue
859

@<SCITEGIC>MOL_PROPERTY
Probability
SciTegic.value.DoubleValue
0.84

@<SCITEGIC>MOL_PROPERTY
Sum Probability
SciTegic.value.DoubleValue
95.87

@<SCITEGIC>MOL_PROPERTY
Delta G
SciTegic.value.DoubleValue
1.794

@<SCITEGIC>MOL_PROPERTY
G
SciTegic.value.DoubleValue
25.504

@<SCITEGIC>MOL_PROPERTY
E
SciTegic.value.DoubleValue
-7.647

@<SCITEGIC>MOL_PROPERTY
-TS
SciTegic.value.DoubleValue
33.151

@<SCITEGIC>MOL_PROPERTY
U+W
SciTegic.value.DoubleValue
-29.109

@<SCITEGIC>MOL_PROPERTY
U
SciTegic.value.DoubleValue
25.100

@<SCITEGIC>MOL_PROPERTY
W
SciTegic.value.DoubleValue
-54.209

@<SCITEGIC>MOL_PROPERTY
W(PB)
SciTegic.value.DoubleValue
-56.438

@<SCITEGIC>MOL_PROPERTY
W(SA)
SciTegic.value.DoubleValue
2.229

@<SCITEGIC>MOL_PROPERTY
Valence
SciTegic.value.DoubleValue
4.185

@<SCITEGIC>MOL_PROPERTY
Coulomb
SciTegic.value.DoubleValue
19.843

@<SCITEGIC>MOL_PROPERTY
VdW
SciTegic.value.DoubleValue
1.072

@<SCITEGIC>MOL_PROPERTY
VdW6
SciTegic.value.DoubleValue
-9.125

@<SCITEGIC>MOL_PROPERTY
VdW12
SciTegic.value.DoubleValue
10.197

@<SCITEGIC>MOL_PROPERTY
Bond
SciTegic.value.DoubleValue
0.294

@<SCITEGIC>MOL_PROPERTY
Angle
SciTegic.value.DoubleValue
1.814

@<SCITEGIC>MOL_PROPERTY
Pdih
SciTegic.value.DoubleValue
2.077

@<SCITEGIC>MOL_PROPERTY
Idih
SciTegic.value.DoubleValue
0.000

@<SCITEGIC>MOL_PROPERTY
Tether
SciTegic.value.DoubleValue
0.000

@<TRIPOS>MOLECULE
guest-s13_vm2.mol2 : vm2 ligand conformer 28
          26          25           1
SMALL
USER_CHARGES
 
@<TRIPOS>ATOM
       1    C1      21.308540   19.240394   20.127428 C.3        1 MOL1        -0.2398
       2    H1      21.755256   19.614196   21.057149 H          1 MOL1         0.0972
       3    H2      22.091617   18.702235   19.577861 H          1 MOL1         0.0972
       4    H3      21.003919   20.102738   19.520364 H          1 MOL1         0.0972
       5    C2      20.108351   18.308928   20.410583 C.3        1 MOL1        -0.1383
       6    H4      20.432104   17.466141   21.035607 H          1 MOL1         0.0961
       7    H5      19.773693   17.865903   19.462201 H          1 MOL1         0.0961
       8    C3      18.905097   19.033905   21.066257 C.3        1 MOL1        -0.1407
       9    H6      18.514786   19.778811   20.359162 H          1 MOL1         0.0961
      10    H7      18.093513   18.308503   21.215597 H          1 MOL1         0.0961
      11    C4      19.203952   19.740903   22.414130 C.3        1 MOL1        -0.1407
      12    H8      18.281897   20.238854   22.739771 H          1 MOL1         0.0961
      13    H9      19.942108   20.539542   22.262501 H          1 MOL1         0.0961
      14    C5      19.695077   18.776649   23.525121 C.3        1 MOL1        -0.1472
      15    H10     18.949689   17.986871   23.687120 H          1 MOL1         0.0961
      16    H11     20.610059   18.277595   23.183610 H          1 MOL1         0.0961
      17    C6      20.009096   19.479535   24.865995 C.3        1 MOL1         0.1190
      18    H12     20.706018   20.299860   24.668406 H          1 MOL1         0.0923
      19    C7      18.747257   20.060332   25.529741 C.3        1 MOL1        -0.2463
      20    H13     18.991147   20.498090   26.505556 H          1 MOL1         0.0972
      21    H14     17.987857   19.284073   25.685962 H          1 MOL1         0.0972
      22    H15     18.305014   20.856824   24.920660 H          1 MOL1         0.0972
      23    N1      20.710630   18.547355   25.814745 N.4        1 MOL1        -0.5974
      24    H16     21.578699   18.182254   25.412598 H          1 MOL1         0.3625
      25    H17     20.955977   19.019224   26.689729 H          1 MOL1         0.3625
      26    H18     20.121917   17.745456   26.055340 H          1 MOL1         0.3625
@<TRIPOS>BOND
    1     1     2    1
    2     1     3    1
    3     1     4    1
    4     1     5    1
    5     5     6    1
    6     5     7    1
    7     5     8    1
    8     8     9    1
    9     8    10    1
   10     8    11    1
   11    11    12    1
   12    11    13    1
   13    11    14    1
   14    14    15    1
   15    14    16    1
   16    14    17    1
   17    17    18    1
   18    17    19    1
   19    19    20    1
   20    19    21    1
   21    19    22    1
   22    17    23    1
   23    23    24    1
   24    23    25    1
   25    23    26    1
@<TRIPOS>SUBSTRUCTURE
       1 MOL1            1 RESIDUE      1      MOL     
@<SCITEGIC>MOL_PROPERTY
VM2 Rank
SciTegic.value.IntegerValue
28

@<SCITEGIC>MOL_PROPERTY
Conf_Id
SciTegic.value.IntegerValue
1007

@<SCITEGIC>MOL_PROPERTY
Probability
SciTegic.value.DoubleValue
0.77

@<SCITEGIC>MOL_PROPERTY
Sum Probability
SciTegic.value.DoubleValue
96.64

@<SCITEGIC>MOL_PROPERTY
Delta G
SciTegic.value.DoubleValue
1.848

@<SCITEGIC>MOL_PROPERTY
G
SciTegic.value.DoubleValue
25.558

@<SCITEGIC>MOL_PROPERTY
E
SciTegic.value.DoubleValue
-7.392

@<SCITEGIC>MOL_PROPERTY
-TS
SciTegic.value.DoubleValue
32.950

@<SCITEGIC>MOL_PROPERTY
U+W
SciTegic.value.DoubleValue
-28.854

@<SCITEGIC>MOL_PROPERTY
U
SciTegic.value.DoubleValue
25.366

@<SCITEGIC>MOL_PROPERTY
W
SciTegic.value.DoubleValue
-54.220

@<SCITEGIC>MOL_PROPERTY
W(PB)
SciTegic.value.DoubleValue
-56.490

@<SCITEGIC>MOL_PROPERTY
W(SA)
SciTegic.value.DoubleValue
2.270

@<SCITEGIC>MOL_PROPERTY
Valence
SciTegic.value.DoubleValue
4.329

@<SCITEGIC>MOL_PROPERTY
Coulomb
SciTegic.value.DoubleValue
19.841

@<SCITEGIC>MOL_PROPERTY
VdW
SciTegic.value.DoubleValue
1.196

@<SCITEGIC>MOL_PROPERTY
VdW6
SciTegic.value.DoubleValue
-8.514

@<SCITEGIC>MOL_PROPERTY
VdW12
SciTegic.value.DoubleValue
9.710

@<SCITEGIC>MOL_PROPERTY
Bond
SciTegic.value.DoubleValue
0.275

@<SCITEGIC>MOL_PROPERTY
Angle
SciTegic.value.DoubleValue
1.896

@<SCITEGIC>MOL_PROPERTY
Pdih
SciTegic.value.DoubleValue
2.159

@<SCITEGIC>MOL_PROPERTY
Idih
SciTegic.value.DoubleValue
0.000

@<SCITEGIC>MOL_PROPERTY
Tether
SciTegic.value.DoubleValue
0.000

@<TRIPOS>MOLECULE
guest-s13_vm2.mol2 : vm2 ligand conformer 29
          26          25           1
SMALL
USER_CHARGES
 
@<TRIPOS>ATOM
       1    C1      19.526225   19.232550   19.786239 C.3        1 MOL1        -0.2398
       2    H1      19.246344   20.042938   19.100838 H          1 MOL1         0.0972
       3    H2      20.017268   18.447935   19.196156 H          1 MOL1         0.0972
       4    H3      18.600337   18.819020   20.204863 H          1 MOL1         0.0972
       5    C2      20.463347   19.761012   20.895585 C.3        1 MOL1        -0.1383
       6    H4      19.946951   20.534706   21.479350 H          1 MOL1         0.0961
       7    H5      21.320954   20.261562   20.424824 H          1 MOL1         0.0961
       8    C3      20.995330   18.646972   21.832497 C.3        1 MOL1        -0.1407
       9    H6      21.591311   17.940013   21.239033 H          1 MOL1         0.0961
      10    H7      21.696325   19.092816   22.550606 H          1 MOL1         0.0961
      11    C4      19.903141   17.852933   22.598785 C.3        1 MOL1        -0.1407
      12    H8      20.392398   17.104368   23.236128 H          1 MOL1         0.0961
      13    H9      19.303067   17.275367   21.883101 H          1 MOL1         0.0961
      14    C5      18.952390   18.722800   23.463586 C.3        1 MOL1        -0.1472
      15    H10     18.339350   19.349783   22.803512 H          1 MOL1         0.0961
      16    H11     18.249091   18.065843   23.992206 H          1 MOL1         0.0961
      17    C6      19.678984   19.623298   24.486958 C.3        1 MOL1         0.1190
      18    H12     20.375662   20.268415   23.943365 H          1 MOL1         0.0923
      19    C7      18.670528   20.519304   25.223141 C.3        1 MOL1        -0.2463
      20    H13     19.184834   21.187811   25.924512 H          1 MOL1         0.0972
      21    H14     17.946803   19.920324   25.789980 H          1 MOL1         0.0972
      22    H15     18.114965   21.145104   24.513613 H          1 MOL1         0.0972
      23    N1      20.498054   18.829131   25.467208 N.4        1 MOL1        -0.5974
      24    H16     20.998448   19.439481   26.119407 H          1 MOL1         0.3625
      25    H17     19.909923   18.202766   26.023033 H          1 MOL1         0.3625
      26    H18     21.195079   18.253063   24.987879 H          1 MOL1         0.3625
@<TRIPOS>BOND
    1     1     2    1
    2     1     3    1
    3     1     4    1
    4     1     5    1
    5     5     6    1
    6     5     7    1
    7     5     8    1
    8     8     9    1
    9     8    10    1
   10     8    11    1
   11    11    12    1
   12    11    13    1
   13    11    14    1
   14    14    15    1
   15    14    16    1
   16    14    17    1
   17    17    18    1
   18    17    19    1
   19    19    20    1
   20    19    21    1
   21    19    22    1
   22    17    23    1
   23    23    24    1
   24    23    25    1
   25    23    26    1
@<TRIPOS>SUBSTRUCTURE
       1 MOL1            1 RESIDUE      1      MOL     
@<SCITEGIC>MOL_PROPERTY
VM2 Rank
SciTegic.value.IntegerValue
29

@<SCITEGIC>MOL_PROPERTY
Conf_Id
SciTegic.value.IntegerValue
457

@<SCITEGIC>MOL_PROPERTY
Probability
SciTegic.value.DoubleValue
0.72

@<SCITEGIC>MOL_PROPERTY
Sum Probability
SciTegic.value.DoubleValue
97.36

@<SCITEGIC>MOL_PROPERTY
Delta G
SciTegic.value.DoubleValue
1.885

@<SCITEGIC>MOL_PROPERTY
G
SciTegic.value.DoubleValue
25.594

@<SCITEGIC>MOL_PROPERTY
E
SciTegic.value.DoubleValue
-7.748

@<SCITEGIC>MOL_PROPERTY
-TS
SciTegic.value.DoubleValue
33.343

@<SCITEGIC>MOL_PROPERTY
U+W
SciTegic.value.DoubleValue
-29.210

@<SCITEGIC>MOL_PROPERTY
U
SciTegic.value.DoubleValue
24.974

@<SCITEGIC>MOL_PROPERTY
W
SciTegic.value.DoubleValue
-54.183

@<SCITEGIC>MOL_PROPERTY
W(PB)
SciTegic.value.DoubleValue
-56.448

@<SCITEGIC>MOL_PROPERTY
W(SA)
SciTegic.value.DoubleValue
2.265

@<SCITEGIC>MOL_PROPERTY
Valence
SciTegic.value.DoubleValue
3.932

@<SCITEGIC>MOL_PROPERTY
Coulomb
SciTegic.value.DoubleValue
20.395

@<SCITEGIC>MOL_PROPERTY
VdW
SciTegic.value.DoubleValue
0.646

@<SCITEGIC>MOL_PROPERTY
VdW6
SciTegic.value.DoubleValue
-9.633

@<SCITEGIC>MOL_PROPERTY
VdW12
SciTegic.value.DoubleValue
10.279

@<SCITEGIC>MOL_PROPERTY
Bond
SciTegic.value.DoubleValue
0.286

@<SCITEGIC>MOL_PROPERTY
Angle
SciTegic.value.DoubleValue
1.718

@<SCITEGIC>MOL_PROPERTY
Pdih
SciTegic.value.DoubleValue
1.928

@<SCITEGIC>MOL_PROPERTY
Idih
SciTegic.value.DoubleValue
0.000

@<SCITEGIC>MOL_PROPERTY
Tether
SciTegic.value.DoubleValue
0.000

@<TRIPOS>MOLECULE
guest-s13_vm2.mol2 : vm2 ligand conformer 30
          26          25           1
SMALL
USER_CHARGES
 
@<TRIPOS>ATOM
       1    C1      21.197111   18.189499   20.363477 C.3        1 MOL1        -0.2398
       2    H1      22.074924   18.351822   19.724783 H          1 MOL1         0.0972
       3    H2      21.560956   17.970303   21.374915 H          1 MOL1         0.0972
       4    H3      20.667484   17.304253   19.988278 H          1 MOL1         0.0972
       5    C2      20.279736   19.433097   20.348849 C.3        1 MOL1        -0.1383
       6    H4      20.041506   19.684126   19.305824 H          1 MOL1         0.0961
       7    H5      20.823361   20.299678   20.748035 H          1 MOL1         0.0961
       8    C3      18.951415   19.229613   21.121632 C.3        1 MOL1        -0.1407
       9    H6      18.351992   20.147017   21.042806 H          1 MOL1         0.0961
      10    H7      18.367352   18.445879   20.619820 H          1 MOL1         0.0961
      11    C4      19.102926   18.852918   22.618326 C.3        1 MOL1        -0.1407
      12    H8      19.605938   17.881508   22.703544 H          1 MOL1         0.0961
      13    H9      18.095868   18.710610   23.030689 H          1 MOL1         0.0961
      14    C5      19.859014   19.924592   23.450369 C.3        1 MOL1        -0.1472
      15    H10     20.874508   20.047020   23.054316 H          1 MOL1         0.0961
      16    H11     19.364967   20.897084   23.325283 H          1 MOL1         0.0961
      17    C6      19.973455   19.614047   24.961668 C.3        1 MOL1         0.1190
      18    H12     20.567553   20.414901   25.412772 H          1 MOL1         0.0923
      19    C7      18.601862   19.606483   25.659289 C.3        1 MOL1        -0.2463
      20    H13     18.725758   19.527591   26.746297 H          1 MOL1         0.0972
      21    H14     17.983320   18.762643   25.331825 H          1 MOL1         0.0972
      22    H15     18.054612   20.534861   25.453958 H          1 MOL1         0.0972
      23    N1      20.722481   18.337751   25.230389 N.4        1 MOL1        -0.5974
      24    H16     21.655639   18.354309   24.809398 H          1 MOL1         0.3625
      25    H17     20.842758   18.179197   26.234779 H          1 MOL1         0.3625
      26    H18     20.225863   17.528788   24.849320 H          1 MOL1         0.3625
@<TRIPOS>BOND
    1     1     2    1
    2     1     3    1
    3     1     4    1
    4     1     5    1
    5     5     6    1
    6     5     7    1
    7     5     8    1
    8     8     9    1
    9     8    10    1
   10     8    11    1
   11    11    12    1
   12    11    13    1
   13    11    14    1
   14    14    15    1
   15    14    16    1
   16    14    17    1
   17    17    18    1
   18    17    19    1
   19    19    20    1
   20    19    21    1
   21    19    22    1
   22    17    23    1
   23    23    24    1
   24    23    25    1
   25    23    26    1
@<TRIPOS>SUBSTRUCTURE
       1 MOL1            1 RESIDUE      1      MOL     
@<SCITEGIC>MOL_PROPERTY
VM2 Rank
SciTegic.value.IntegerValue
30

@<SCITEGIC>MOL_PROPERTY
Conf_Id
SciTegic.value.IntegerValue
237

@<SCITEGIC>MOL_PROPERTY
Probability
SciTegic.value.DoubleValue
0.49

@<SCITEGIC>MOL_PROPERTY
Sum Probability
SciTegic.value.DoubleValue
97.85

@<SCITEGIC>MOL_PROPERTY
Delta G
SciTegic.value.DoubleValue
2.112

@<SCITEGIC>MOL_PROPERTY
G
SciTegic.value.DoubleValue
25.822

@<SCITEGIC>MOL_PROPERTY
E
SciTegic.value.DoubleValue
-7.288

@<SCITEGIC>MOL_PROPERTY
-TS
SciTegic.value.DoubleValue
33.110

@<SCITEGIC>MOL_PROPERTY
U+W
SciTegic.value.DoubleValue
-28.750

@<SCITEGIC>MOL_PROPERTY
U
SciTegic.value.DoubleValue
25.589

@<SCITEGIC>MOL_PROPERTY
W
SciTegic.value.DoubleValue
-54.339

@<SCITEGIC>MOL_PROPERTY
W(PB)
SciTegic.value.DoubleValue
-56.599

@<SCITEGIC>MOL_PROPERTY
W(SA)
SciTegic.value.DoubleValue
2.260

@<SCITEGIC>MOL_PROPERTY
Valence
SciTegic.value.DoubleValue
4.269

@<SCITEGIC>MOL_PROPERTY
Coulomb
SciTegic.value.DoubleValue
20.216

@<SCITEGIC>MOL_PROPERTY
VdW
SciTegic.value.DoubleValue
1.104

@<SCITEGIC>MOL_PROPERTY
VdW6
SciTegic.value.DoubleValue
-9.052

@<SCITEGIC>MOL_PROPERTY
VdW12
SciTegic.value.DoubleValue
10.157

@<SCITEGIC>MOL_PROPERTY
Bond
SciTegic.value.DoubleValue
0.298

@<SCITEGIC>MOL_PROPERTY
Angle
SciTegic.value.DoubleValue
1.891

@<SCITEGIC>MOL_PROPERTY
Pdih
SciTegic.value.DoubleValue
2.079

@<SCITEGIC>MOL_PROPERTY
Idih
SciTegic.value.DoubleValue
0.000

@<SCITEGIC>MOL_PROPERTY
Tether
SciTegic.value.DoubleValue
0.000

@<TRIPOS>MOLECULE
guest-s13_vm2.mol2 : vm2 ligand conformer 31
          26          25           1
SMALL
USER_CHARGES
 
@<TRIPOS>ATOM
       1    C1      20.536891   18.209422   19.994724 C.3        1 MOL1        -0.2398
       2    H1      21.455918   17.792863   19.562640 H          1 MOL1         0.0972
       3    H2      20.002293   17.388667   20.488770 H          1 MOL1         0.0972
       4    H3      19.914247   18.577595   19.169072 H          1 MOL1         0.0972
       5    C2      20.871759   19.346011   20.986748 C.3        1 MOL1        -0.1383
       6    H4      21.498818   20.088889   20.474330 H          1 MOL1         0.0961
       7    H5      21.483686   18.951623   21.808895 H          1 MOL1         0.0961
       8    C3      19.616472   20.061714   21.547009 C.3        1 MOL1        -0.1407
       9    H6      19.938183   20.890377   22.191896 H          1 MOL1         0.0961
      10    H7      19.074149   20.529867   20.714046 H          1 MOL1         0.0961
      11    C4      18.632562   19.150721   22.329352 C.3        1 MOL1        -0.1407
      12    H8      18.187148   18.419878   21.641426 H          1 MOL1         0.0961
      13    H9      17.791561   19.760987   22.684331 H          1 MOL1         0.0961
      14    C5      19.262123   18.391924   23.528266 C.3        1 MOL1        -0.1472
      15    H10     18.475977   17.824488   24.043597 H          1 MOL1         0.0961
      16    H11     19.965517   17.643664   23.141442 H          1 MOL1         0.0961
      17    C6      19.998592   19.288657   24.550689 C.3        1 MOL1         0.1190
      18    H12     20.763853   19.860960   24.017930 H          1 MOL1         0.0923
      19    C7      19.043785   20.277687   25.242735 C.3        1 MOL1        -0.2463
      20    H13     19.581484   20.877304   25.987422 H          1 MOL1         0.0972
      21    H14     18.229013   19.750277   25.754184 H          1 MOL1         0.0972
      22    H15     18.601712   20.974855   24.521539 H          1 MOL1         0.0972
      23    N1      20.725817   18.461864   25.574476 N.4        1 MOL1        -0.5974
      24    H16     21.398223   17.825199   25.137461 H          1 MOL1         0.3625
      25    H17     21.246491   19.051296   26.230130 H          1 MOL1         0.3625
      26    H18     20.077110   17.893128   26.125106 H          1 MOL1         0.3625
@<TRIPOS>BOND
    1     1     2    1
    2     1     3    1
    3     1     4    1
    4     1     5    1
    5     5     6    1
    6     5     7    1
    7     5     8    1
    8     8     9    1
    9     8    10    1
   10     8    11    1
   11    11    12    1
   12    11    13    1
   13    11    14    1
   14    14    15    1
   15    14    16    1
   16    14    17    1
   17    17    18    1
   18    17    19    1
   19    19    20    1
   20    19    21    1
   21    19    22    1
   22    17    23    1
   23    23    24    1
   24    23    25    1
   25    23    26    1
@<TRIPOS>SUBSTRUCTURE
       1 MOL1            1 RESIDUE      1      MOL     
@<SCITEGIC>MOL_PROPERTY
VM2 Rank
SciTegic.value.IntegerValue
31

@<SCITEGIC>MOL_PROPERTY
Conf_Id
SciTegic.value.IntegerValue
72

@<SCITEGIC>MOL_PROPERTY
Probability
SciTegic.value.DoubleValue
0.40

@<SCITEGIC>MOL_PROPERTY
Sum Probability
SciTegic.value.DoubleValue
98.25

@<SCITEGIC>MOL_PROPERTY
Delta G
SciTegic.value.DoubleValue
2.235

@<SCITEGIC>MOL_PROPERTY
G
SciTegic.value.DoubleValue
25.945

@<SCITEGIC>MOL_PROPERTY
E
SciTegic.value.DoubleValue
-7.506

@<SCITEGIC>MOL_PROPERTY
-TS
SciTegic.value.DoubleValue
33.451

@<SCITEGIC>MOL_PROPERTY
U+W
SciTegic.value.DoubleValue
-28.968

@<SCITEGIC>MOL_PROPERTY
U
SciTegic.value.DoubleValue
25.506

@<SCITEGIC>MOL_PROPERTY
W
SciTegic.value.DoubleValue
-54.474

@<SCITEGIC>MOL_PROPERTY
W(PB)
SciTegic.value.DoubleValue
-56.692

@<SCITEGIC>MOL_PROPERTY
W(SA)
SciTegic.value.DoubleValue
2.218

@<SCITEGIC>MOL_PROPERTY
Valence
SciTegic.value.DoubleValue
4.414

@<SCITEGIC>MOL_PROPERTY
Coulomb
SciTegic.value.DoubleValue
20.363

@<SCITEGIC>MOL_PROPERTY
VdW
SciTegic.value.DoubleValue
0.729

@<SCITEGIC>MOL_PROPERTY
VdW6
SciTegic.value.DoubleValue
-9.838

@<SCITEGIC>MOL_PROPERTY
VdW12
SciTegic.value.DoubleValue
10.567

@<SCITEGIC>MOL_PROPERTY
Bond
SciTegic.value.DoubleValue
0.296

@<SCITEGIC>MOL_PROPERTY
Angle
SciTegic.value.DoubleValue
2.006

@<SCITEGIC>MOL_PROPERTY
Pdih
SciTegic.value.DoubleValue
2.112

@<SCITEGIC>MOL_PROPERTY
Idih
SciTegic.value.DoubleValue
0.000

@<SCITEGIC>MOL_PROPERTY
Tether
SciTegic.value.DoubleValue
0.000

@<TRIPOS>MOLECULE
guest-s13_vm2.mol2 : vm2 ligand conformer 32
          26          25           1
SMALL
USER_CHARGES
 
@<TRIPOS>ATOM
       1    C1      20.714543   17.885196   19.438270 C.3        1 MOL1        -0.2398
       2    H1      19.724958   17.493025   19.169624 H          1 MOL1         0.0972
       3    H2      21.255292   18.101058   18.507657 H          1 MOL1         0.0972
       4    H3      21.261978   17.096475   19.970657 H          1 MOL1         0.0972
       5    C2      20.590975   19.156963   20.304070 C.3        1 MOL1        -0.1383
       6    H4      20.071241   19.937992   19.731514 H          1 MOL1         0.0961
       7    H5      21.594883   19.543851   20.528640 H          1 MOL1         0.0961
       8    C3      19.831366   18.881368   21.620638 C.3        1 MOL1        -0.1407
       9    H6      18.828274   18.498456   21.386911 H          1 MOL1         0.0961
      10    H7      20.350488   18.088541   22.170005 H          1 MOL1         0.0961
      11    C4      19.705869   20.159171   22.486886 C.3        1 MOL1        -0.1407
      12    H8      19.202143   20.928716   21.885486 H          1 MOL1         0.0961
      13    H9      20.700802   20.562185   22.721893 H          1 MOL1         0.0961
      14    C5      18.892717   19.960401   23.793436 C.3        1 MOL1        -0.1472
      15    H10     18.440592   20.927026   24.052958 H          1 MOL1         0.0961
      16    H11     18.053780   19.273401   23.620361 H          1 MOL1         0.0961
      17    C6      19.730401   19.493585   25.007291 C.3        1 MOL1         0.1190
      18    H12     20.556720   20.198428   25.141525 H          1 MOL1         0.0923
      19    C7      18.872278   19.513840   26.282733 C.3        1 MOL1        -0.2463
      20    H13     18.024960   18.821404   26.202029 H          1 MOL1         0.0972
      21    H14     18.475167   20.519185   26.470617 H          1 MOL1         0.0972
      22    H15     19.468379   19.224035   27.156849 H          1 MOL1         0.0972
      23    N1      20.349851   18.137477   24.820677 N.4        1 MOL1        -0.5974
      24    H16     20.975297   18.125926   24.011029 H          1 MOL1         0.3625
      25    H17     20.901277   17.862725   25.638533 H          1 MOL1         0.3625
      26    H18     19.636358   17.418571   24.674817 H          1 MOL1         0.3625
@<TRIPOS>BOND
    1     1     2    1
    2     1     3    1
    3     1     4    1
    4     1     5    1
    5     5     6    1
    6     5     7    1
    7     5     8    1
    8     8     9    1
    9     8    10    1
   10     8    11    1
   11    11    12    1
   12    11    13    1
   13    11    14    1
   14    14    15    1
   15    14    16    1
   16    14    17    1
   17    17    18    1
   18    17    19    1
   19    19    20    1
   20    19    21    1
   21    19    22    1
   22    17    23    1
   23    23    24    1
   24    23    25    1
   25    23    26    1
@<TRIPOS>SUBSTRUCTURE
       1 MOL1            1 RESIDUE      1      MOL     
@<SCITEGIC>MOL_PROPERTY
VM2 Rank
SciTegic.value.IntegerValue
32

@<SCITEGIC>MOL_PROPERTY
Conf_Id
SciTegic.value.IntegerValue
282

@<SCITEGIC>MOL_PROPERTY
Probability
SciTegic.value.DoubleValue
0.18

@<SCITEGIC>MOL_PROPERTY
Sum Probability
SciTegic.value.DoubleValue
98.43

@<SCITEGIC>MOL_PROPERTY
Delta G
SciTegic.value.DoubleValue
2.695

@<SCITEGIC>MOL_PROPERTY
G
SciTegic.value.DoubleValue
26.405

@<SCITEGIC>MOL_PROPERTY
E
SciTegic.value.DoubleValue
-5.958

@<SCITEGIC>MOL_PROPERTY
-TS
SciTegic.value.DoubleValue
32.364

@<SCITEGIC>MOL_PROPERTY
U+W
SciTegic.value.DoubleValue
-27.420

@<SCITEGIC>MOL_PROPERTY
U
SciTegic.value.DoubleValue
26.493

@<SCITEGIC>MOL_PROPERTY
W
SciTegic.value.DoubleValue
-53.913

@<SCITEGIC>MOL_PROPERTY
W(PB)
SciTegic.value.DoubleValue
-56.220

@<SCITEGIC>MOL_PROPERTY
W(SA)
SciTegic.value.DoubleValue
2.307

@<SCITEGIC>MOL_PROPERTY
Valence
SciTegic.value.DoubleValue
4.731

@<SCITEGIC>MOL_PROPERTY
Coulomb
SciTegic.value.DoubleValue
20.826

@<SCITEGIC>MOL_PROPERTY
VdW
SciTegic.value.DoubleValue
0.936

@<SCITEGIC>MOL_PROPERTY
VdW6
SciTegic.value.DoubleValue
-7.662

@<SCITEGIC>MOL_PROPERTY
VdW12
SciTegic.value.DoubleValue
8.598

@<SCITEGIC>MOL_PROPERTY
Bond
SciTegic.value.DoubleValue
0.241

@<SCITEGIC>MOL_PROPERTY
Angle
SciTegic.value.DoubleValue
1.432

@<SCITEGIC>MOL_PROPERTY
Pdih
SciTegic.value.DoubleValue
3.058

@<SCITEGIC>MOL_PROPERTY
Idih
SciTegic.value.DoubleValue
0.000

@<SCITEGIC>MOL_PROPERTY
Tether
SciTegic.value.DoubleValue
0.000

@<TRIPOS>MOLECULE
guest-s13_vm2.mol2 : vm2 ligand conformer 33
          26          25           1
SMALL
USER_CHARGES
 
@<TRIPOS>ATOM
       1    C1      21.364892   19.243723   19.931737 C.3        1 MOL1        -0.2398
       2    H1      21.647193   19.185046   18.872590 H          1 MOL1         0.0972
       3    H2      21.179567   20.299466   20.165290 H          1 MOL1         0.0972
       4    H3      22.222813   18.904734   20.526695 H          1 MOL1         0.0972
       5    C2      20.117699   18.373589   20.207664 C.3        1 MOL1        -0.1383
       6    H4      20.312214   17.352387   19.851075 H          1 MOL1         0.0961
       7    H5      19.268315   18.747583   19.619060 H          1 MOL1         0.0961
       8    C3      19.732060   18.312410   21.705228 C.3        1 MOL1        -0.1407
       9    H6      18.909671   17.593121   21.821502 H          1 MOL1         0.0961
      10    H7      20.578937   17.907544   22.269640 H          1 MOL1         0.0961
      11    C4      19.289894   19.684215   22.278133 C.3        1 MOL1        -0.1407
      12    H8      18.516941   20.095990   21.614563 H          1 MOL1         0.0961
      13    H9      20.122008   20.400342   22.256606 H          1 MOL1         0.0961
      14    C5      18.701773   19.614682   23.712579 C.3        1 MOL1        -0.1472
      15    H10     18.035468   20.478733   23.837336 H          1 MOL1         0.0961
      16    H11     18.064854   18.727032   23.822122 H          1 MOL1         0.0961
      17    C6      19.753746   19.665662   24.845705 C.3        1 MOL1         0.1190
      18    H12     20.385262   20.544931   24.685457 H          1 MOL1         0.0923
      19    C7      19.057594   19.818366   26.207988 C.3        1 MOL1        -0.2463
      20    H13     18.443329   20.727072   26.233419 H          1 MOL1         0.0972
      21    H14     19.796167   19.894884   27.015489 H          1 MOL1         0.0972
      22    H15     18.407288   18.960339   26.419716 H          1 MOL1         0.0972
      23    N1      20.670342   18.475353   24.864965 N.4        1 MOL1        -0.5974
      24    H16     20.148233   17.604643   24.993101 H          1 MOL1         0.3625
      25    H17     21.194632   18.399488   23.989968 H          1 MOL1         0.3625
      26    H18     21.351836   18.540862   25.626323 H          1 MOL1         0.3625
@<TRIPOS>BOND
    1     1     2    1
    2     1     3    1
    3     1     4    1
    4     1     5    1
    5     5     6    1
    6     5     7    1
    7     5     8    1
    8     8     9    1
    9     8    10    1
   10     8    11    1
   11    11    12    1
   12    11    13    1
   13    11    14    1
   14    14    15    1
   15    14    16    1
   16    14    17    1
   17    17    18    1
   18    17    19    1
   19    19    20    1
   20    19    21    1
   21    19    22    1
   22    17    23    1
   23    23    24    1
   24    23    25    1
   25    23    26    1
@<TRIPOS>SUBSTRUCTURE
       1 MOL1            1 RESIDUE      1      MOL     
@<SCITEGIC>MOL_PROPERTY
VM2 Rank
SciTegic.value.IntegerValue
33

@<SCITEGIC>MOL_PROPERTY
Conf_Id
SciTegic.value.IntegerValue
973

@<SCITEGIC>MOL_PROPERTY
Probability
SciTegic.value.DoubleValue
0.12

@<SCITEGIC>MOL_PROPERTY
Sum Probability
SciTegic.value.DoubleValue
98.55

@<SCITEGIC>MOL_PROPERTY
Delta G
SciTegic.value.DoubleValue
2.964

@<SCITEGIC>MOL_PROPERTY
G
SciTegic.value.DoubleValue
26.674

@<SCITEGIC>MOL_PROPERTY
E
SciTegic.value.DoubleValue
-5.424

@<SCITEGIC>MOL_PROPERTY
-TS
SciTegic.value.DoubleValue
32.097

@<SCITEGIC>MOL_PROPERTY
U+W
SciTegic.value.DoubleValue
-26.885

@<SCITEGIC>MOL_PROPERTY
U
SciTegic.value.DoubleValue
27.054

@<SCITEGIC>MOL_PROPERTY
W
SciTegic.value.DoubleValue
-53.940

@<SCITEGIC>MOL_PROPERTY
W(PB)
SciTegic.value.DoubleValue
-56.225

@<SCITEGIC>MOL_PROPERTY
W(SA)
SciTegic.value.DoubleValue
2.286

@<SCITEGIC>MOL_PROPERTY
Valence
SciTegic.value.DoubleValue
5.139

@<SCITEGIC>MOL_PROPERTY
Coulomb
SciTegic.value.DoubleValue
20.885

@<SCITEGIC>MOL_PROPERTY
VdW
SciTegic.value.DoubleValue
1.031

@<SCITEGIC>MOL_PROPERTY
VdW6
SciTegic.value.DoubleValue
-8.326

@<SCITEGIC>MOL_PROPERTY
VdW12
SciTegic.value.DoubleValue
9.356

@<SCITEGIC>MOL_PROPERTY
Bond
SciTegic.value.DoubleValue
0.283

@<SCITEGIC>MOL_PROPERTY
Angle
SciTegic.value.DoubleValue
1.709

@<SCITEGIC>MOL_PROPERTY
Pdih
SciTegic.value.DoubleValue
3.147

@<SCITEGIC>MOL_PROPERTY
Idih
SciTegic.value.DoubleValue
0.000

@<SCITEGIC>MOL_PROPERTY
Tether
SciTegic.value.DoubleValue
0.000

@<TRIPOS>MOLECULE
guest-s13_vm2.mol2 : vm2 ligand conformer 34
          26          25           1
SMALL
USER_CHARGES
 
@<TRIPOS>ATOM
       1    C1      21.153271   18.070695   19.580663 C.3        1 MOL1        -0.2398
       2    H1      22.128005   17.982736   20.078018 H          1 MOL1         0.0972
       3    H2      20.652605   17.095129   19.634099 H          1 MOL1         0.0972
       4    H3      21.334765   18.298520   18.522264 H          1 MOL1         0.0972
       5    C2      20.293060   19.172472   20.235185 C.3        1 MOL1        -0.1383
       6    H4      19.341121   19.260598   19.692969 H          1 MOL1         0.0961
       7    H5      20.804277   20.140553   20.137702 H          1 MOL1         0.0961
       8    C3      20.020122   18.874548   21.726178 C.3        1 MOL1        -0.1407
       9    H6      19.501343   17.909981   21.815423 H          1 MOL1         0.0961
      10    H7      20.982473   18.781860   22.244008 H          1 MOL1         0.0961
      11    C4      19.171870   19.987461   22.386611 C.3        1 MOL1        -0.1407
      12    H8      18.298312   20.188947   21.751170 H          1 MOL1         0.0961
      13    H9      19.750162   20.921457   22.413421 H          1 MOL1         0.0961
      14    C5      18.657372   19.657162   23.812691 C.3        1 MOL1        -0.1472
      15    H10     17.987467   20.474977   24.110238 H          1 MOL1         0.0961
      16    H11     18.034078   18.753468   23.790759 H          1 MOL1         0.0961
      17    C6      19.762952   19.509954   24.885130 C.3        1 MOL1         0.1190
      18    H12     20.527298   20.270907   24.699847 H          1 MOL1         0.0923
      19    C7      19.181335   19.744428   26.289230 C.3        1 MOL1        -0.2463
      20    H13     18.395076   19.014671   26.520008 H          1 MOL1         0.0972
      21    H14     18.749583   20.749764   26.370831 H          1 MOL1         0.0972
      22    H15     19.963532   19.657749   27.053505 H          1 MOL1         0.0972
      23    N1      20.448019   18.171280   24.838312 N.4        1 MOL1        -0.5974
      24    H16     19.792815   17.411487   25.040228 H          1 MOL1         0.3625
      25    H17     20.854643   17.990372   23.917902 H          1 MOL1         0.3625
      26    H18     21.203839   18.113960   25.526804 H          1 MOL1         0.3625
@<TRIPOS>BOND
    1     1     2    1
    2     1     3    1
    3     1     4    1
    4     1     5    1
    5     5     6    1
    6     5     7    1
    7     5     8    1
    8     8     9    1
    9     8    10    1
   10     8    11    1
   11    11    12    1
   12    11    13    1
   13    11    14    1
   14    14    15    1
   15    14    16    1
   16    14    17    1
   17    17    18    1
   18    17    19    1
   19    19    20    1
   20    19    21    1
   21    19    22    1
   22    17    23    1
   23    23    24    1
   24    23    25    1
   25    23    26    1
@<TRIPOS>SUBSTRUCTURE
       1 MOL1            1 RESIDUE      1      MOL     
@<SCITEGIC>MOL_PROPERTY
VM2 Rank
SciTegic.value.IntegerValue
34

@<SCITEGIC>MOL_PROPERTY
Conf_Id
SciTegic.value.IntegerValue
809

@<SCITEGIC>MOL_PROPERTY
Probability
SciTegic.value.DoubleValue
0.11

@<SCITEGIC>MOL_PROPERTY
Sum Probability
SciTegic.value.DoubleValue
98.66

@<SCITEGIC>MOL_PROPERTY
Delta G
SciTegic.value.DoubleValue
3.004

@<SCITEGIC>MOL_PROPERTY
G
SciTegic.value.DoubleValue
26.714

@<SCITEGIC>MOL_PROPERTY
E
SciTegic.value.DoubleValue
-5.842

@<SCITEGIC>MOL_PROPERTY
-TS
SciTegic.value.DoubleValue
32.556

@<SCITEGIC>MOL_PROPERTY
U+W
SciTegic.value.DoubleValue
-27.304

@<SCITEGIC>MOL_PROPERTY
U
SciTegic.value.DoubleValue
26.574

@<SCITEGIC>MOL_PROPERTY
W
SciTegic.value.DoubleValue
-53.878

@<SCITEGIC>MOL_PROPERTY
W(PB)
SciTegic.value.DoubleValue
-56.194

@<SCITEGIC>MOL_PROPERTY
W(SA)
SciTegic.value.DoubleValue
2.316

@<SCITEGIC>MOL_PROPERTY
Valence
SciTegic.value.DoubleValue
4.532

@<SCITEGIC>MOL_PROPERTY
Coulomb
SciTegic.value.DoubleValue
21.136

@<SCITEGIC>MOL_PROPERTY
VdW
SciTegic.value.DoubleValue
0.906

@<SCITEGIC>MOL_PROPERTY
VdW6
SciTegic.value.DoubleValue
-7.877

@<SCITEGIC>MOL_PROPERTY
VdW12
SciTegic.value.DoubleValue
8.783

@<SCITEGIC>MOL_PROPERTY
Bond
SciTegic.value.DoubleValue
0.227

@<SCITEGIC>MOL_PROPERTY
Angle
SciTegic.value.DoubleValue
1.591

@<SCITEGIC>MOL_PROPERTY
Pdih
SciTegic.value.DoubleValue
2.714

@<SCITEGIC>MOL_PROPERTY
Idih
SciTegic.value.DoubleValue
0.000

@<SCITEGIC>MOL_PROPERTY
Tether
SciTegic.value.DoubleValue
0.000

@<TRIPOS>MOLECULE
guest-s13_vm2.mol2 : vm2 ligand conformer 35
          26          25           1
SMALL
USER_CHARGES
 
@<TRIPOS>ATOM
       1    C1      19.866699   19.804702   19.235459 C.3        1 MOL1        -0.2398
       2    H1      20.335060   19.639542   18.256476 H          1 MOL1         0.0972
       3    H2      18.784104   19.664524   19.118958 H          1 MOL1         0.0972
       4    H3      20.047358   20.848545   19.523524 H          1 MOL1         0.0972
       5    C2      20.442283   18.831406   20.285966 C.3        1 MOL1        -0.1383
       6    H4      21.530054   18.972093   20.356110 H          1 MOL1         0.0961
       7    H5      20.277160   17.797099   19.953001 H          1 MOL1         0.0961
       8    C3      19.798490   19.042553   21.674143 C.3        1 MOL1        -0.1407
       9    H6      19.965484   20.080851   21.989585 H          1 MOL1         0.0961
      10    H7      18.712043   18.896970   21.598741 H          1 MOL1         0.0961
      11    C4      20.379753   18.073531   22.730199 C.3        1 MOL1        -0.1407
      12    H8      21.454094   18.268818   22.853502 H          1 MOL1         0.0961
      13    H9      20.296044   17.043814   22.355920 H          1 MOL1         0.0961
      14    C5      19.682929   18.148864   24.112696 C.3        1 MOL1        -0.1472
      15    H10     18.625057   17.869512   24.017879 H          1 MOL1         0.0961
      16    H11     20.135810   17.377479   24.749570 H          1 MOL1         0.0961
      17    C6      19.818879   19.525253   24.808448 C.3        1 MOL1         0.1190
      18    H12     20.660966   20.056091   24.353789 H          1 MOL1         0.0923
      19    C7      18.547248   20.376707   24.638376 C.3        1 MOL1        -0.2463
      20    H13     18.297495   20.522147   23.581736 H          1 MOL1         0.0972
      21    H14     18.684534   21.369024   25.085286 H          1 MOL1         0.0972
      22    H15     17.686315   19.902095   25.125586 H          1 MOL1         0.0972
      23    N1      20.151719   19.384985   26.268714 N.4        1 MOL1        -0.5974
      24    H16     21.021412   18.862574   26.408454 H          1 MOL1         0.3625
      25    H17     20.271231   20.298990   26.714631 H          1 MOL1         0.3625
      26    H18     19.411560   18.892469   26.775925 H          1 MOL1         0.3625
@<TRIPOS>BOND
    1     1     2    1
    2     1     3    1
    3     1     4    1
    4     1     5    1
    5     5     6    1
    6     5     7    1
    7     5     8    1
    8     8     9    1
    9     8    10    1
   10     8    11    1
   11    11    12    1
   12    11    13    1
   13    11    14    1
   14    14    15    1
   15    14    16    1
   16    14    17    1
   17    17    18    1
   18    17    19    1
   19    19    20    1
   20    19    21    1
   21    19    22    1
   22    17    23    1
   23    23    24    1
   24    23    25    1
   25    23    26    1
@<TRIPOS>SUBSTRUCTURE
       1 MOL1            1 RESIDUE      1      MOL     
@<SCITEGIC>MOL_PROPERTY
VM2 Rank
SciTegic.value.IntegerValue
35

@<SCITEGIC>MOL_PROPERTY
Conf_Id
SciTegic.value.IntegerValue
188

@<SCITEGIC>MOL_PROPERTY
Probability
SciTegic.value.DoubleValue
0.08

@<SCITEGIC>MOL_PROPERTY
Sum Probability
SciTegic.value.DoubleValue
98.74

@<SCITEGIC>MOL_PROPERTY
Delta G
SciTegic.value.DoubleValue
3.209

@<SCITEGIC>MOL_PROPERTY
G
SciTegic.value.DoubleValue
26.919

@<SCITEGIC>MOL_PROPERTY
E
SciTegic.value.DoubleValue
-5.787

@<SCITEGIC>MOL_PROPERTY
-TS
SciTegic.value.DoubleValue
32.706

@<SCITEGIC>MOL_PROPERTY
U+W
SciTegic.value.DoubleValue
-27.249

@<SCITEGIC>MOL_PROPERTY
U
SciTegic.value.DoubleValue
26.735

@<SCITEGIC>MOL_PROPERTY
W
SciTegic.value.DoubleValue
-53.984

@<SCITEGIC>MOL_PROPERTY
W(PB)
SciTegic.value.DoubleValue
-56.284

@<SCITEGIC>MOL_PROPERTY
W(SA)
SciTegic.value.DoubleValue
2.300

@<SCITEGIC>MOL_PROPERTY
Valence
SciTegic.value.DoubleValue
5.862

@<SCITEGIC>MOL_PROPERTY
Coulomb
SciTegic.value.DoubleValue
19.879

@<SCITEGIC>MOL_PROPERTY
VdW
SciTegic.value.DoubleValue
0.994

@<SCITEGIC>MOL_PROPERTY
VdW6
SciTegic.value.DoubleValue
-7.879

@<SCITEGIC>MOL_PROPERTY
VdW12
SciTegic.value.DoubleValue
8.873

@<SCITEGIC>MOL_PROPERTY
Bond
SciTegic.value.DoubleValue
0.209

@<SCITEGIC>MOL_PROPERTY
Angle
SciTegic.value.DoubleValue
1.378

@<SCITEGIC>MOL_PROPERTY
Pdih
SciTegic.value.DoubleValue
4.275

@<SCITEGIC>MOL_PROPERTY
Idih
SciTegic.value.DoubleValue
0.000

@<SCITEGIC>MOL_PROPERTY
Tether
SciTegic.value.DoubleValue
0.000

@<TRIPOS>MOLECULE
guest-s13_vm2.mol2 : vm2 ligand conformer 36
          26          25           1
SMALL
USER_CHARGES
 
@<TRIPOS>ATOM
       1    C1      20.741628   19.788923   19.693147 C.3        1 MOL1        -0.2398
       2    H1      21.407474   20.657235   19.605297 H          1 MOL1         0.0972
       3    H2      21.215546   18.947527   19.170958 H          1 MOL1         0.0972
       4    H3      19.804248   20.029077   19.174580 H          1 MOL1         0.0972
       5    C2      20.483267   19.448309   21.176183 C.3        1 MOL1        -0.1383
       6    H4      20.046980   20.328409   21.665874 H          1 MOL1         0.0961
       7    H5      21.440240   19.237174   21.673320 H          1 MOL1         0.0961
       8    C3      19.533308   18.237825   21.325290 C.3        1 MOL1        -0.1407
       9    H6      18.540603   18.504402   20.937031 H          1 MOL1         0.0961
      10    H7      19.898245   17.419290   20.689468 H          1 MOL1         0.0961
      11    C4      19.394610   17.697207   22.772198 C.3        1 MOL1        -0.1407
      12    H8      20.362242   17.317386   23.124083 H          1 MOL1         0.0961
      13    H9      18.734393   16.819787   22.731680 H          1 MOL1         0.0961
      14    C5      18.790308   18.701046   23.791699 C.3        1 MOL1        -0.1472
      15    H10     17.997160   19.279298   23.299332 H          1 MOL1         0.0961
      16    H11     18.296068   18.134900   24.592422 H          1 MOL1         0.0961
      17    C6      19.815326   19.661287   24.439250 C.3        1 MOL1         0.1190
      18    H12     20.365540   20.178368   23.650228 H          1 MOL1         0.0923
      19    C7      19.091318   20.719191   25.287085 C.3        1 MOL1        -0.2463
      20    H13     18.391012   21.298523   24.672523 H          1 MOL1         0.0972
      21    H14     19.809092   21.423205   25.725882 H          1 MOL1         0.0972
      22    H15     18.525224   20.254402   26.104052 H          1 MOL1         0.0972
      23    N1      20.838234   18.934213   25.269147 N.4        1 MOL1        -0.5974
      24    H16     21.360601   18.254910   24.709879 H          1 MOL1         0.3625
      25    H17     21.517902   19.581907   25.677710 H          1 MOL1         0.3625
      26    H18     20.399055   18.425158   26.040702 H          1 MOL1         0.3625
@<TRIPOS>BOND
    1     1     2    1
    2     1     3    1
    3     1     4    1
    4     1     5    1
    5     5     6    1
    6     5     7    1
    7     5     8    1
    8     8     9    1
    9     8    10    1
   10     8    11    1
   11    11    12    1
   12    11    13    1
   13    11    14    1
   14    14    15    1
   15    14    16    1
   16    14    17    1
   17    17    18    1
   18    17    19    1
   19    19    20    1
   20    19    21    1
   21    19    22    1
   22    17    23    1
   23    23    24    1
   24    23    25    1
   25    23    26    1
@<TRIPOS>SUBSTRUCTURE
       1 MOL1            1 RESIDUE      1      MOL     
@<SCITEGIC>MOL_PROPERTY
VM2 Rank
SciTegic.value.IntegerValue
36

@<SCITEGIC>MOL_PROPERTY
Conf_Id
SciTegic.value.IntegerValue
1131

@<SCITEGIC>MOL_PROPERTY
Probability
SciTegic.value.DoubleValue
0.07

@<SCITEGIC>MOL_PROPERTY
Sum Probability
SciTegic.value.DoubleValue
98.81

@<SCITEGIC>MOL_PROPERTY
Delta G
SciTegic.value.DoubleValue
3.252

@<SCITEGIC>MOL_PROPERTY
G
SciTegic.value.DoubleValue
26.962

@<SCITEGIC>MOL_PROPERTY
E
SciTegic.value.DoubleValue
-5.911

@<SCITEGIC>MOL_PROPERTY
-TS
SciTegic.value.DoubleValue
32.873

@<SCITEGIC>MOL_PROPERTY
U+W
SciTegic.value.DoubleValue
-27.373

@<SCITEGIC>MOL_PROPERTY
U
SciTegic.value.DoubleValue
26.753

@<SCITEGIC>MOL_PROPERTY
W
SciTegic.value.DoubleValue
-54.126

@<SCITEGIC>MOL_PROPERTY
W(PB)
SciTegic.value.DoubleValue
-56.390

@<SCITEGIC>MOL_PROPERTY
W(SA)
SciTegic.value.DoubleValue
2.264

@<SCITEGIC>MOL_PROPERTY
Valence
SciTegic.value.DoubleValue
5.252

@<SCITEGIC>MOL_PROPERTY
Coulomb
SciTegic.value.DoubleValue
20.764

@<SCITEGIC>MOL_PROPERTY
VdW
SciTegic.value.DoubleValue
0.737

@<SCITEGIC>MOL_PROPERTY
VdW6
SciTegic.value.DoubleValue
-8.685

@<SCITEGIC>MOL_PROPERTY
VdW12
SciTegic.value.DoubleValue
9.422

@<SCITEGIC>MOL_PROPERTY
Bond
SciTegic.value.DoubleValue
0.256

@<SCITEGIC>MOL_PROPERTY
Angle
SciTegic.value.DoubleValue
1.803

@<SCITEGIC>MOL_PROPERTY
Pdih
SciTegic.value.DoubleValue
3.193

@<SCITEGIC>MOL_PROPERTY
Idih
SciTegic.value.DoubleValue
0.000

@<SCITEGIC>MOL_PROPERTY
Tether
SciTegic.value.DoubleValue
0.000

@<TRIPOS>MOLECULE
guest-s13_vm2.mol2 : vm2 ligand conformer 37
          26          25           1
SMALL
USER_CHARGES
 
@<TRIPOS>ATOM
       1    C1      20.316250   17.794021   19.662790 C.3        1 MOL1        -0.2398
       2    H1      21.391964   17.605757   19.775218 H          1 MOL1         0.0972
       3    H2      19.773582   16.928049   20.063772 H          1 MOL1         0.0972
       4    H3      20.096562   17.861415   18.589368 H          1 MOL1         0.0972
       5    C2      19.901746   19.092932   20.386121 C.3        1 MOL1        -0.1383
       6    H4      18.828700   19.271422   20.228979 H          1 MOL1         0.0961
       7    H5      20.433679   19.944168   19.938493 H          1 MOL1         0.0961
       8    C3      20.203108   19.025441   21.899582 C.3        1 MOL1        -0.1407
       9    H6      19.671477   18.165049   22.323354 H          1 MOL1         0.0961
      10    H7      21.278206   18.855403   22.049796 H          1 MOL1         0.0961
      11    C4      19.773501   20.321244   22.627799 C.3        1 MOL1        -0.1407
      12    H8      18.683659   20.438988   22.560822 H          1 MOL1         0.0961
      13    H9      20.197717   21.181481   22.091781 H          1 MOL1         0.0961
      14    C5      20.230411   20.415979   24.111034 C.3        1 MOL1        -0.1472
      15    H10     21.327456   20.422750   24.152677 H          1 MOL1         0.0961
      16    H11     19.919341   21.397067   24.493454 H          1 MOL1         0.0961
      17    C6      19.696738   19.341964   25.093279 C.3        1 MOL1         0.1190
      18    H12     19.934362   19.692393   26.102493 H          1 MOL1         0.0923
      19    C7      18.168843   19.178742   25.013325 C.3        1 MOL1        -0.2463
      20    H13     17.810145   18.522558   25.815719 H          1 MOL1         0.0972
      21    H14     17.857573   18.740665   24.057507 H          1 MOL1         0.0972
      22    H15     17.668093   20.148177   25.127238 H          1 MOL1         0.0972
      23    N1      20.397403   18.017676   24.960068 N.4        1 MOL1        -0.5974
      24    H16     21.408764   18.114861   25.087371 H          1 MOL1         0.3625
      25    H17     20.065238   17.347644   25.659557 H          1 MOL1         0.3625
      26    H18     20.241046   17.604767   24.038487 H          1 MOL1         0.3625
@<TRIPOS>BOND
    1     1     2    1
    2     1     3    1
    3     1     4    1
    4     1     5    1
    5     5     6    1
    6     5     7    1
    7     5     8    1
    8     8     9    1
    9     8    10    1
   10     8    11    1
   11    11    12    1
   12    11    13    1
   13    11    14    1
   14    14    15    1
   15    14    16    1
   16    14    17    1
   17    17    18    1
   18    17    19    1
   19    19    20    1
   20    19    21    1
   21    19    22    1
   22    17    23    1
   23    23    24    1
   24    23    25    1
   25    23    26    1
@<TRIPOS>SUBSTRUCTURE
       1 MOL1            1 RESIDUE      1      MOL     
@<SCITEGIC>MOL_PROPERTY
VM2 Rank
SciTegic.value.IntegerValue
37

@<SCITEGIC>MOL_PROPERTY
Conf_Id
SciTegic.value.IntegerValue
846

@<SCITEGIC>MOL_PROPERTY
Probability
SciTegic.value.DoubleValue
0.07

@<SCITEGIC>MOL_PROPERTY
Sum Probability
SciTegic.value.DoubleValue
98.88

@<SCITEGIC>MOL_PROPERTY
Delta G
SciTegic.value.DoubleValue
3.304

@<SCITEGIC>MOL_PROPERTY
G
SciTegic.value.DoubleValue
27.013

@<SCITEGIC>MOL_PROPERTY
E
SciTegic.value.DoubleValue
-6.121

@<SCITEGIC>MOL_PROPERTY
-TS
SciTegic.value.DoubleValue
33.134

@<SCITEGIC>MOL_PROPERTY
U+W
SciTegic.value.DoubleValue
-27.583

@<SCITEGIC>MOL_PROPERTY
U
SciTegic.value.DoubleValue
26.681

@<SCITEGIC>MOL_PROPERTY
W
SciTegic.value.DoubleValue
-54.264

@<SCITEGIC>MOL_PROPERTY
W(PB)
SciTegic.value.DoubleValue
-56.533

@<SCITEGIC>MOL_PROPERTY
W(SA)
SciTegic.value.DoubleValue
2.269

@<SCITEGIC>MOL_PROPERTY
Valence
SciTegic.value.DoubleValue
4.633

@<SCITEGIC>MOL_PROPERTY
Coulomb
SciTegic.value.DoubleValue
21.285

@<SCITEGIC>MOL_PROPERTY
VdW
SciTegic.value.DoubleValue
0.764

@<SCITEGIC>MOL_PROPERTY
VdW6
SciTegic.value.DoubleValue
-8.907

@<SCITEGIC>MOL_PROPERTY
VdW12
SciTegic.value.DoubleValue
9.671

@<SCITEGIC>MOL_PROPERTY
Bond
SciTegic.value.DoubleValue
0.277

@<SCITEGIC>MOL_PROPERTY
Angle
SciTegic.value.DoubleValue
2.161

@<SCITEGIC>MOL_PROPERTY
Pdih
SciTegic.value.DoubleValue
2.195

@<SCITEGIC>MOL_PROPERTY
Idih
SciTegic.value.DoubleValue
0.000

@<SCITEGIC>MOL_PROPERTY
Tether
SciTegic.value.DoubleValue
0.000

@<TRIPOS>MOLECULE
guest-s13_vm2.mol2 : vm2 ligand conformer 38
          26          25           1
SMALL
USER_CHARGES
 
@<TRIPOS>ATOM
       1    C1      19.370026   18.954721   19.119719 C.3        1 MOL1        -0.2398
       2    H1      19.674325   19.406260   18.166538 H          1 MOL1         0.0972
       3    H2      19.361146   17.864788   18.988570 H          1 MOL1         0.0972
       4    H3      18.344383   19.281629   19.335159 H          1 MOL1         0.0972
       5    C2      20.334005   19.369502   20.251471 C.3        1 MOL1        -0.1383
       6    H4      20.346483   20.465218   20.336006 H          1 MOL1         0.0961
       7    H5      21.356021   19.059914   19.991538 H          1 MOL1         0.0961
       8    C3      19.928251   18.746782   21.605582 C.3        1 MOL1        -0.1407
       9    H6      18.902764   19.049267   21.849247 H          1 MOL1         0.0961
      10    H7      19.917149   17.651936   21.513145 H          1 MOL1         0.0961
      11    C4      20.899669   19.155985   22.740073 C.3        1 MOL1        -0.1407
      12    H8      20.976503   20.250210   22.805153 H          1 MOL1         0.0961
      13    H9      21.904125   18.797797   22.474824 H          1 MOL1         0.0961
      14    C5      20.516894   18.565425   24.123235 C.3        1 MOL1        -0.1472
      15    H10     19.965959   17.624020   23.996654 H          1 MOL1         0.0961
      16    H11     21.447188   18.299202   24.642288 H          1 MOL1         0.0961
      17    C6      19.728775   19.526329   25.046001 C.3        1 MOL1         0.1190
      18    H12     20.329583   20.429876   25.188405 H          1 MOL1         0.0923
      19    C7      18.370764   19.942471   24.455980 C.3        1 MOL1        -0.2463
      20    H13     17.760932   19.066033   24.203966 H          1 MOL1         0.0972
      21    H14     18.503810   20.547573   23.551799 H          1 MOL1         0.0972
      22    H15     17.808605   20.553979   25.172434 H          1 MOL1         0.0972
      23    N1      19.539616   18.926784   26.411939 N.4        1 MOL1        -0.5974
      24    H16     20.435322   18.686066   26.845967 H          1 MOL1         0.3625
      25    H17     19.061164   19.576249   27.042566 H          1 MOL1         0.3625
      26    H18     18.978215   18.072020   26.371030 H          1 MOL1         0.3625
@<TRIPOS>BOND
    1     1     2    1
    2     1     3    1
    3     1     4    1
    4     1     5    1
    5     5     6    1
    6     5     7    1
    7     5     8    1
    8     8     9    1
    9     8    10    1
   10     8    11    1
   11    11    12    1
   12    11    13    1
   13    11    14    1
   14    14    15    1
   15    14    16    1
   16    14    17    1
   17    17    18    1
   18    17    19    1
   19    19    20    1
   20    19    21    1
   21    19    22    1
   22    17    23    1
   23    23    24    1
   24    23    25    1
   25    23    26    1
@<TRIPOS>SUBSTRUCTURE
       1 MOL1            1 RESIDUE      1      MOL     
@<SCITEGIC>MOL_PROPERTY
VM2 Rank
SciTegic.value.IntegerValue
38

@<SCITEGIC>MOL_PROPERTY
Conf_Id
SciTegic.value.IntegerValue
172

@<SCITEGIC>MOL_PROPERTY
Probability
SciTegic.value.DoubleValue
0.06

@<SCITEGIC>MOL_PROPERTY
Sum Probability
SciTegic.value.DoubleValue
98.94

@<SCITEGIC>MOL_PROPERTY
Delta G
SciTegic.value.DoubleValue
3.325

@<SCITEGIC>MOL_PROPERTY
G
SciTegic.value.DoubleValue
27.035

@<SCITEGIC>MOL_PROPERTY
E
SciTegic.value.DoubleValue
-5.808

@<SCITEGIC>MOL_PROPERTY
-TS
SciTegic.value.DoubleValue
32.843

@<SCITEGIC>MOL_PROPERTY
U+W
SciTegic.value.DoubleValue
-27.270

@<SCITEGIC>MOL_PROPERTY
U
SciTegic.value.DoubleValue
26.589

@<SCITEGIC>MOL_PROPERTY
W
SciTegic.value.DoubleValue
-53.859

@<SCITEGIC>MOL_PROPERTY
W(PB)
SciTegic.value.DoubleValue
-56.174

@<SCITEGIC>MOL_PROPERTY
W(SA)
SciTegic.value.DoubleValue
2.315

@<SCITEGIC>MOL_PROPERTY
Valence
SciTegic.value.DoubleValue
5.830

@<SCITEGIC>MOL_PROPERTY
Coulomb
SciTegic.value.DoubleValue
19.752

@<SCITEGIC>MOL_PROPERTY
VdW
SciTegic.value.DoubleValue
1.008

@<SCITEGIC>MOL_PROPERTY
VdW6
SciTegic.value.DoubleValue
-7.925

@<SCITEGIC>MOL_PROPERTY
VdW12
SciTegic.value.DoubleValue
8.932

@<SCITEGIC>MOL_PROPERTY
Bond
SciTegic.value.DoubleValue
0.235

@<SCITEGIC>MOL_PROPERTY
Angle
SciTegic.value.DoubleValue
1.652

@<SCITEGIC>MOL_PROPERTY
Pdih
SciTegic.value.DoubleValue
3.943

@<SCITEGIC>MOL_PROPERTY
Idih
SciTegic.value.DoubleValue
0.000

@<SCITEGIC>MOL_PROPERTY
Tether
SciTegic.value.DoubleValue
0.000

@<TRIPOS>MOLECULE
guest-s13_vm2.mol2 : vm2 ligand conformer 39
          26          25           1
SMALL
USER_CHARGES
 
@<TRIPOS>ATOM
       1    C1      19.527894   18.452268   19.249311 C.3        1 MOL1        -0.2398
       2    H1      18.563098   17.997215   19.508772 H          1 MOL1         0.0972
       3    H2      19.334819   19.450299   18.834717 H          1 MOL1         0.0972
       4    H3      19.986570   17.842559   18.460069 H          1 MOL1         0.0972
       5    C2      20.452825   18.533132   20.482251 C.3        1 MOL1        -0.1383
       6    H4      21.420865   18.959753   20.184245 H          1 MOL1         0.0961
       7    H5      20.654292   17.518538   20.853580 H          1 MOL1         0.0961
       8    C3      19.830585   19.386851   21.609272 C.3        1 MOL1        -0.1407
       9    H6      19.631395   20.398788   21.230338 H          1 MOL1         0.0961
      10    H7      18.859765   18.960874   21.888498 H          1 MOL1         0.0961
      11    C4      20.761189   19.474002   22.843935 C.3        1 MOL1        -0.1407
      12    H8      21.709493   19.926671   22.522579 H          1 MOL1         0.0961
      13    H9      21.014510   18.467060   23.199912 H          1 MOL1         0.0961
      14    C5      20.179012   20.334139   24.000453 C.3        1 MOL1        -0.1472
      15    H10     21.007597   20.870804   24.481045 H          1 MOL1         0.0961
      16    H11     19.526834   21.117368   23.592104 H          1 MOL1         0.0961
      17    C6      19.422205   19.561850   25.109710 C.3        1 MOL1         0.1190
      18    H12     19.070106   20.303515   25.833420 H          1 MOL1         0.0923
      19    C7      18.188918   18.810888   24.582392 C.3        1 MOL1        -0.2463
      20    H13     18.475088   17.966893   23.943698 H          1 MOL1         0.0972
      21    H14     17.540007   19.481725   24.005951 H          1 MOL1         0.0972
      22    H15     17.598071   18.412476   25.416217 H          1 MOL1         0.0972
      23    N1      20.325372   18.634871   25.876677 N.4        1 MOL1        -0.5974
      24    H16     21.122362   19.135386   26.280089 H          1 MOL1         0.3625
      25    H17     19.827605   18.181431   26.648044 H          1 MOL1         0.3625
      26    H18     20.698198   17.895928   25.275838 H          1 MOL1         0.3625
@<TRIPOS>BOND
    1     1     2    1
    2     1     3    1
    3     1     4    1
    4     1     5    1
    5     5     6    1
    6     5     7    1
    7     5     8    1
    8     8     9    1
    9     8    10    1
   10     8    11    1
   11    11    12    1
   12    11    13    1
   13    11    14    1
   14    14    15    1
   15    14    16    1
   16    14    17    1
   17    17    18    1
   18    17    19    1
   19    19    20    1
   20    19    21    1
   21    19    22    1
   22    17    23    1
   23    23    24    1
   24    23    25    1
   25    23    26    1
@<TRIPOS>SUBSTRUCTURE
       1 MOL1            1 RESIDUE      1      MOL     
@<SCITEGIC>MOL_PROPERTY
VM2 Rank
SciTegic.value.IntegerValue
39

@<SCITEGIC>MOL_PROPERTY
Conf_Id
SciTegic.value.IntegerValue
808

@<SCITEGIC>MOL_PROPERTY
Probability
SciTegic.value.DoubleValue
0.06

@<SCITEGIC>MOL_PROPERTY
Sum Probability
SciTegic.value.DoubleValue
99.01

@<SCITEGIC>MOL_PROPERTY
Delta G
SciTegic.value.DoubleValue
3.330

@<SCITEGIC>MOL_PROPERTY
G
SciTegic.value.DoubleValue
27.040

@<SCITEGIC>MOL_PROPERTY
E
SciTegic.value.DoubleValue
-5.868

@<SCITEGIC>MOL_PROPERTY
-TS
SciTegic.value.DoubleValue
32.907

@<SCITEGIC>MOL_PROPERTY
U+W
SciTegic.value.DoubleValue
-27.330

@<SCITEGIC>MOL_PROPERTY
U
SciTegic.value.DoubleValue
26.848

@<SCITEGIC>MOL_PROPERTY
W
SciTegic.value.DoubleValue
-54.178

@<SCITEGIC>MOL_PROPERTY
W(PB)
SciTegic.value.DoubleValue
-56.437

@<SCITEGIC>MOL_PROPERTY
W(SA)
SciTegic.value.DoubleValue
2.259

@<SCITEGIC>MOL_PROPERTY
Valence
SciTegic.value.DoubleValue
5.824

@<SCITEGIC>MOL_PROPERTY
Coulomb
SciTegic.value.DoubleValue
20.057

@<SCITEGIC>MOL_PROPERTY
VdW
SciTegic.value.DoubleValue
0.968

@<SCITEGIC>MOL_PROPERTY
VdW6
SciTegic.value.DoubleValue
-8.367

@<SCITEGIC>MOL_PROPERTY
VdW12
SciTegic.value.DoubleValue
9.335

@<SCITEGIC>MOL_PROPERTY
Bond
SciTegic.value.DoubleValue
0.267

@<SCITEGIC>MOL_PROPERTY
Angle
SciTegic.value.DoubleValue
1.799

@<SCITEGIC>MOL_PROPERTY
Pdih
SciTegic.value.DoubleValue
3.758

@<SCITEGIC>MOL_PROPERTY
Idih
SciTegic.value.DoubleValue
0.000

@<SCITEGIC>MOL_PROPERTY
Tether
SciTegic.value.DoubleValue
0.000

@<TRIPOS>MOLECULE
guest-s13_vm2.mol2 : vm2 ligand conformer 40
          26          25           1
SMALL
USER_CHARGES
 
@<TRIPOS>ATOM
       1    C1      18.994460   18.448880   20.074556 C.3        1 MOL1        -0.2398
       2    H1      18.339940   18.487704   20.951977 H          1 MOL1         0.0972
       3    H2      18.742694   19.298880   19.427143 H          1 MOL1         0.0972
       4    H3      18.756459   17.529652   19.523851 H          1 MOL1         0.0972
       5    C2      20.491664   18.474343   20.461449 C.3        1 MOL1        -0.1383
       6    H4      21.080492   18.397394   19.536638 H          1 MOL1         0.0961
       7    H5      20.747550   17.586906   21.056875 H          1 MOL1         0.0961
       8    C3      20.914949   19.765422   21.208541 C.3        1 MOL1        -0.1407
       9    H6      21.942340   20.012469   20.907061 H          1 MOL1         0.0961
      10    H7      20.299030   20.614000   20.880318 H          1 MOL1         0.0961
      11    C4      20.897148   19.658404   22.755317 C.3        1 MOL1        -0.1407
      12    H8      21.285475   20.599505   23.168999 H          1 MOL1         0.0961
      13    H9      21.597688   18.872414   23.067610 H          1 MOL1         0.0961
      14    C5      19.497238   19.384927   23.358306 C.3        1 MOL1        -0.1472
      15    H10     18.777256   20.090384   22.922727 H          1 MOL1         0.0961
      16    H11     19.164313   18.375908   23.085001 H          1 MOL1         0.0961
      17    C6      19.468379   19.528149   24.895254 C.3        1 MOL1         0.1190
      18    H12     19.819187   20.532348   25.152558 H          1 MOL1         0.0923
      19    C7      18.032340   19.369647   25.419885 C.3        1 MOL1        -0.2463
      20    H13     17.632762   18.374155   25.189172 H          1 MOL1         0.0972
      21    H14     17.367897   20.117331   24.969098 H          1 MOL1         0.0972
      22    H15     17.998858   19.507776   26.507617 H          1 MOL1         0.0972
      23    N1      20.391821   18.558229   25.580691 N.4        1 MOL1        -0.5974
      24    H16     20.377223   18.682104   26.596974 H          1 MOL1         0.3625
      25    H17     20.126710   17.589166   25.386210 H          1 MOL1         0.3625
      26    H18     21.359585   18.681541   25.271362 H          1 MOL1         0.3625
@<TRIPOS>BOND
    1     1     2    1
    2     1     3    1
    3     1     4    1
    4     1     5    1
    5     5     6    1
    6     5     7    1
    7     5     8    1
    8     8     9    1
    9     8    10    1
   10     8    11    1
   11    11    12    1
   12    11    13    1
   13    11    14    1
   14    14    15    1
   15    14    16    1
   16    14    17    1
   17    17    18    1
   18    17    19    1
   19    19    20    1
   20    19    21    1
   21    19    22    1
   22    17    23    1
   23    23    24    1
   24    23    25    1
   25    23    26    1
@<TRIPOS>SUBSTRUCTURE
       1 MOL1            1 RESIDUE      1      MOL     
@<SCITEGIC>MOL_PROPERTY
VM2 Rank
SciTegic.value.IntegerValue
40

@<SCITEGIC>MOL_PROPERTY
Conf_Id
SciTegic.value.IntegerValue
288

@<SCITEGIC>MOL_PROPERTY
Probability
SciTegic.value.DoubleValue
0.06

@<SCITEGIC>MOL_PROPERTY
Sum Probability
SciTegic.value.DoubleValue
99.07

@<SCITEGIC>MOL_PROPERTY
Delta G
SciTegic.value.DoubleValue
3.347

@<SCITEGIC>MOL_PROPERTY
G
SciTegic.value.DoubleValue
27.057

@<SCITEGIC>MOL_PROPERTY
E
SciTegic.value.DoubleValue
-5.845

@<SCITEGIC>MOL_PROPERTY
-TS
SciTegic.value.DoubleValue
32.901

@<SCITEGIC>MOL_PROPERTY
U+W
SciTegic.value.DoubleValue
-27.306

@<SCITEGIC>MOL_PROPERTY
U
SciTegic.value.DoubleValue
26.796

@<SCITEGIC>MOL_PROPERTY
W
SciTegic.value.DoubleValue
-54.102

@<SCITEGIC>MOL_PROPERTY
W(PB)
SciTegic.value.DoubleValue
-56.406

@<SCITEGIC>MOL_PROPERTY
W(SA)
SciTegic.value.DoubleValue
2.304

@<SCITEGIC>MOL_PROPERTY
Valence
SciTegic.value.DoubleValue
5.707

@<SCITEGIC>MOL_PROPERTY
Coulomb
SciTegic.value.DoubleValue
20.107

@<SCITEGIC>MOL_PROPERTY
VdW
SciTegic.value.DoubleValue
0.982

@<SCITEGIC>MOL_PROPERTY
VdW6
SciTegic.value.DoubleValue
-8.397

@<SCITEGIC>MOL_PROPERTY
VdW12
SciTegic.value.DoubleValue
9.379

@<SCITEGIC>MOL_PROPERTY
Bond
SciTegic.value.DoubleValue
0.254

@<SCITEGIC>MOL_PROPERTY
Angle
SciTegic.value.DoubleValue
1.644

@<SCITEGIC>MOL_PROPERTY
Pdih
SciTegic.value.DoubleValue
3.808

@<SCITEGIC>MOL_PROPERTY
Idih
SciTegic.value.DoubleValue
0.000

@<SCITEGIC>MOL_PROPERTY
Tether
SciTegic.value.DoubleValue
0.000

@<TRIPOS>MOLECULE
guest-s13_vm2.mol2 : vm2 ligand conformer 41
          26          25           1
SMALL
USER_CHARGES
 
@<TRIPOS>ATOM
       1    C1      19.495746   20.015387   20.147384 C.3        1 MOL1        -0.2398
       2    H1      19.692123   20.713943   20.970067 H          1 MOL1         0.0972
       3    H2      19.560863   20.585077   19.211381 H          1 MOL1         0.0972
       4    H3      18.467911   19.642005   20.242159 H          1 MOL1         0.0972
       5    C2      20.512669   18.853175   20.143065 C.3        1 MOL1        -0.1383
       6    H4      21.532213   19.261508   20.103866 H          1 MOL1         0.0961
       7    H5      20.381561   18.274030   19.218311 H          1 MOL1         0.0961
       8    C3      20.385835   17.888293   21.349656 C.3        1 MOL1        -0.1407
       9    H6      19.403048   17.397149   21.339230 H          1 MOL1         0.0961
      10    H7      21.120096   17.083316   21.207023 H          1 MOL1         0.0961
      11    C4      20.647299   18.541905   22.731719 C.3        1 MOL1        -0.1407
      12    H8      21.334087   19.392459   22.620895 H          1 MOL1         0.0961
      13    H9      21.167731   17.809040   23.362541 H          1 MOL1         0.0961
      14    C5      19.349496   18.986065   23.455461 C.3        1 MOL1        -0.1472
      15    H10     18.762617   19.636497   22.797275 H          1 MOL1         0.0961
      16    H11     18.722399   18.107743   23.658165 H          1 MOL1         0.0961
      17    C6      19.625510   19.739603   24.774636 C.3        1 MOL1         0.1190
      18    H12     20.270925   20.594858   24.551743 H          1 MOL1         0.0923
      19    C7      18.312331   20.269650   25.372424 C.3        1 MOL1        -0.2463
      20    H13     17.805340   20.940039   24.667244 H          1 MOL1         0.0972
      21    H14     18.505146   20.837695   26.290855 H          1 MOL1         0.0972
      22    H15     17.626848   19.448254   25.615994 H          1 MOL1         0.0972
      23    N1      20.359113   18.893921   25.779655 N.4        1 MOL1        -0.5974
      24    H16     19.815918   18.066168   26.038541 H          1 MOL1         0.3625
      25    H17     21.257709   18.570684   25.411611 H          1 MOL1         0.3625
      26    H18     20.550680   19.416016   26.639362 H          1 MOL1         0.3625
@<TRIPOS>BOND
    1     1     2    1
    2     1     3    1
    3     1     4    1
    4     1     5    1
    5     5     6    1
    6     5     7    1
    7     5     8    1
    8     8     9    1
    9     8    10    1
   10     8    11    1
   11    11    12    1
   12    11    13    1
   13    11    14    1
   14    14    15    1
   15    14    16    1
   16    14    17    1
   17    17    18    1
   18    17    19    1
   19    19    20    1
   20    19    21    1
   21    19    22    1
   22    17    23    1
   23    23    24    1
   24    23    25    1
   25    23    26    1
@<TRIPOS>SUBSTRUCTURE
       1 MOL1            1 RESIDUE      1      MOL     
@<SCITEGIC>MOL_PROPERTY
VM2 Rank
SciTegic.value.IntegerValue
41

@<SCITEGIC>MOL_PROPERTY
Conf_Id
SciTegic.value.IntegerValue
696

@<SCITEGIC>MOL_PROPERTY
Probability
SciTegic.value.DoubleValue
0.06

@<SCITEGIC>MOL_PROPERTY
Sum Probability
SciTegic.value.DoubleValue
99.13

@<SCITEGIC>MOL_PROPERTY
Delta G
SciTegic.value.DoubleValue
3.389

@<SCITEGIC>MOL_PROPERTY
G
SciTegic.value.DoubleValue
27.099

@<SCITEGIC>MOL_PROPERTY
E
SciTegic.value.DoubleValue
-5.836

@<SCITEGIC>MOL_PROPERTY
-TS
SciTegic.value.DoubleValue
32.935

@<SCITEGIC>MOL_PROPERTY
U+W
SciTegic.value.DoubleValue
-27.297

@<SCITEGIC>MOL_PROPERTY
U
SciTegic.value.DoubleValue
26.787

@<SCITEGIC>MOL_PROPERTY
W
SciTegic.value.DoubleValue
-54.084

@<SCITEGIC>MOL_PROPERTY
W(PB)
SciTegic.value.DoubleValue
-56.348

@<SCITEGIC>MOL_PROPERTY
W(SA)
SciTegic.value.DoubleValue
2.264

@<SCITEGIC>MOL_PROPERTY
Valence
SciTegic.value.DoubleValue
5.742

@<SCITEGIC>MOL_PROPERTY
Coulomb
SciTegic.value.DoubleValue
20.023

@<SCITEGIC>MOL_PROPERTY
VdW
SciTegic.value.DoubleValue
1.022

@<SCITEGIC>MOL_PROPERTY
VdW6
SciTegic.value.DoubleValue
-8.392

@<SCITEGIC>MOL_PROPERTY
VdW12
SciTegic.value.DoubleValue
9.413

@<SCITEGIC>MOL_PROPERTY
Bond
SciTegic.value.DoubleValue
0.261

@<SCITEGIC>MOL_PROPERTY
Angle
SciTegic.value.DoubleValue
1.577

@<SCITEGIC>MOL_PROPERTY
Pdih
SciTegic.value.DoubleValue
3.904

@<SCITEGIC>MOL_PROPERTY
Idih
SciTegic.value.DoubleValue
0.000

@<SCITEGIC>MOL_PROPERTY
Tether
SciTegic.value.DoubleValue
0.000

@<TRIPOS>MOLECULE
guest-s13_vm2.mol2 : vm2 ligand conformer 42
          26          25           1
SMALL
USER_CHARGES
 
@<TRIPOS>ATOM
       1    C1      19.573997   17.715522   20.530108 C.3        1 MOL1        -0.2398
       2    H1      18.534465   18.067861   20.520807 H          1 MOL1         0.0972
       3    H2      19.665580   16.919470   19.779917 H          1 MOL1         0.0972
       4    H3      19.783963   17.267476   21.508903 H          1 MOL1         0.0972
       5    C2      20.555671   18.865874   20.217860 C.3        1 MOL1        -0.1383
       6    H4      20.427564   19.162389   19.167417 H          1 MOL1         0.0961
       7    H5      21.587514   18.498104   20.305942 H          1 MOL1         0.0961
       8    C3      20.373549   20.121917   21.107830 C.3        1 MOL1        -0.1407
       9    H6      21.090439   20.878740   20.760370 H          1 MOL1         0.0961
      10    H7      19.379361   20.559657   20.943508 H          1 MOL1         0.0961
      11    C4      20.616623   19.886312   22.621554 C.3        1 MOL1        -0.1407
      12    H8      21.075629   20.791234   23.043533 H          1 MOL1         0.0961
      13    H9      21.350805   19.081216   22.756157 H          1 MOL1         0.0961
      14    C5      19.316946   19.592071   23.415566 C.3        1 MOL1        -0.1472
      15    H10     18.614116   20.421058   23.258622 H          1 MOL1         0.0961
      16    H11     18.822660   18.692644   23.031849 H          1 MOL1         0.0961
      17    C6      19.563541   19.433517   24.931445 C.3        1 MOL1         0.1190
      18    H12     20.073915   20.332034   25.291827 H          1 MOL1         0.0923
      19    C7      18.227235   19.304506   25.680059 C.3        1 MOL1        -0.2463
      20    H13     17.594534   20.183135   25.502797 H          1 MOL1         0.0972
      21    H14     18.393867   19.227725   26.761589 H          1 MOL1         0.0972
      22    H15     17.674299   18.414189   25.355244 H          1 MOL1         0.0972
      23    N1      20.460437   18.268281   25.249579 N.4        1 MOL1        -0.5974
      24    H16     20.048016   17.384372   24.940193 H          1 MOL1         0.3625
      25    H17     21.370962   18.361399   24.791774 H          1 MOL1         0.3625
      26    H18     20.630659   18.191476   26.256327 H          1 MOL1         0.3625
@<TRIPOS>BOND
    1     1     2    1
    2     1     3    1
    3     1     4    1
    4     1     5    1
    5     5     6    1
    6     5     7    1
    7     5     8    1
    8     8     9    1
    9     8    10    1
   10     8    11    1
   11    11    12    1
   12    11    13    1
   13    11    14    1
   14    14    15    1
   15    14    16    1
   16    14    17    1
   17    17    18    1
   18    17    19    1
   19    19    20    1
   20    19    21    1
   21    19    22    1
   22    17    23    1
   23    23    24    1
   24    23    25    1
   25    23    26    1
@<TRIPOS>SUBSTRUCTURE
       1 MOL1            1 RESIDUE      1      MOL     
@<SCITEGIC>MOL_PROPERTY
VM2 Rank
SciTegic.value.IntegerValue
42

@<SCITEGIC>MOL_PROPERTY
Conf_Id
SciTegic.value.IntegerValue
952

@<SCITEGIC>MOL_PROPERTY
Probability
SciTegic.value.DoubleValue
0.05

@<SCITEGIC>MOL_PROPERTY
Sum Probability
SciTegic.value.DoubleValue
99.18

@<SCITEGIC>MOL_PROPERTY
Delta G
SciTegic.value.DoubleValue
3.469

@<SCITEGIC>MOL_PROPERTY
G
SciTegic.value.DoubleValue
27.178

@<SCITEGIC>MOL_PROPERTY
E
SciTegic.value.DoubleValue
-5.708

@<SCITEGIC>MOL_PROPERTY
-TS
SciTegic.value.DoubleValue
32.886

@<SCITEGIC>MOL_PROPERTY
U+W
SciTegic.value.DoubleValue
-27.170

@<SCITEGIC>MOL_PROPERTY
U
SciTegic.value.DoubleValue
27.046

@<SCITEGIC>MOL_PROPERTY
W
SciTegic.value.DoubleValue
-54.212

@<SCITEGIC>MOL_PROPERTY
W(PB)
SciTegic.value.DoubleValue
-56.478

@<SCITEGIC>MOL_PROPERTY
W(SA)
SciTegic.value.DoubleValue
2.266

@<SCITEGIC>MOL_PROPERTY
Valence
SciTegic.value.DoubleValue
5.685

@<SCITEGIC>MOL_PROPERTY
Coulomb
SciTegic.value.DoubleValue
20.401

@<SCITEGIC>MOL_PROPERTY
VdW
SciTegic.value.DoubleValue
0.960

@<SCITEGIC>MOL_PROPERTY
VdW6
SciTegic.value.DoubleValue
-8.446

@<SCITEGIC>MOL_PROPERTY
VdW12
SciTegic.value.DoubleValue
9.405

@<SCITEGIC>MOL_PROPERTY
Bond
SciTegic.value.DoubleValue
0.263

@<SCITEGIC>MOL_PROPERTY
Angle
SciTegic.value.DoubleValue
1.662

@<SCITEGIC>MOL_PROPERTY
Pdih
SciTegic.value.DoubleValue
3.760

@<SCITEGIC>MOL_PROPERTY
Idih
SciTegic.value.DoubleValue
0.000

@<SCITEGIC>MOL_PROPERTY
Tether
SciTegic.value.DoubleValue
0.000

@<TRIPOS>MOLECULE
guest-s13_vm2.mol2 : vm2 ligand conformer 43
          26          25           1
SMALL
USER_CHARGES
 
@<TRIPOS>ATOM
       1    C1      21.236008   19.328274   19.874326 C.3        1 MOL1        -0.2398
       2    H1      20.658209   19.072336   18.976617 H          1 MOL1         0.0972
       3    H2      21.862128   20.197606   19.634984 H          1 MOL1         0.0972
       4    H3      21.902047   18.486281   20.103847 H          1 MOL1         0.0972
       5    C2      20.304524   19.638785   21.065070 C.3        1 MOL1        -0.1383
       6    H4      19.674260   20.503484   20.814687 H          1 MOL1         0.0961
       7    H5      20.917337   19.934111   21.923990 H          1 MOL1         0.0961
       8    C3      19.409008   18.426413   21.417042 C.3        1 MOL1        -0.1407
       9    H6      18.847264   18.147717   20.514630 H          1 MOL1         0.0961
      10    H7      20.028789   17.554594   21.667890 H          1 MOL1         0.0961
      11    C4      18.388495   18.699716   22.553145 C.3        1 MOL1        -0.1407
      12    H8      17.515041   18.056237   22.378732 H          1 MOL1         0.0961
      13    H9      18.006088   19.726785   22.488139 H          1 MOL1         0.0961
      14    C5      18.906043   18.387871   23.984021 C.3        1 MOL1        -0.1472
      15    H10     18.073429   18.500415   24.691068 H          1 MOL1         0.0961
      16    H11     19.191699   17.328464   24.023711 H          1 MOL1         0.0961
      17    C6      20.097074   19.240149   24.477260 C.3        1 MOL1         0.1190
      18    H12     20.919980   19.128206   23.766743 H          1 MOL1         0.0923
      19    C7      19.732063   20.731665   24.587639 C.3        1 MOL1        -0.2463
      20    H13     19.456720   21.150393   23.613122 H          1 MOL1         0.0972
      21    H14     20.584632   21.311337   24.962249 H          1 MOL1         0.0972
      22    H15     18.889978   20.883164   25.274332 H          1 MOL1         0.0972
      23    N1      20.614784   18.735126   25.795497 N.4        1 MOL1        -0.5974
      24    H16     21.427850   19.272693   26.109138 H          1 MOL1         0.3625
      25    H17     19.903285   18.803459   26.528013 H          1 MOL1         0.3625
      26    H18     20.902774   17.754169   25.737243 H          1 MOL1         0.3625
@<TRIPOS>BOND
    1     1     2    1
    2     1     3    1
    3     1     4    1
    4     1     5    1
    5     5     6    1
    6     5     7    1
    7     5     8    1
    8     8     9    1
    9     8    10    1
   10     8    11    1
   11    11    12    1
   12    11    13    1
   13    11    14    1
   14    14    15    1
   15    14    16    1
   16    14    17    1
   17    17    18    1
   18    17    19    1
   19    19    20    1
   20    19    21    1
   21    19    22    1
   22    17    23    1
   23    23    24    1
   24    23    25    1
   25    23    26    1
@<TRIPOS>SUBSTRUCTURE
       1 MOL1            1 RESIDUE      1      MOL     
@<SCITEGIC>MOL_PROPERTY
VM2 Rank
SciTegic.value.IntegerValue
43

@<SCITEGIC>MOL_PROPERTY
Conf_Id
SciTegic.value.IntegerValue
1246

@<SCITEGIC>MOL_PROPERTY
Probability
SciTegic.value.DoubleValue
0.05

@<SCITEGIC>MOL_PROPERTY
Sum Probability
SciTegic.value.DoubleValue
99.23

@<SCITEGIC>MOL_PROPERTY
Delta G
SciTegic.value.DoubleValue
3.477

@<SCITEGIC>MOL_PROPERTY
G
SciTegic.value.DoubleValue
27.187

@<SCITEGIC>MOL_PROPERTY
E
SciTegic.value.DoubleValue
-5.999

@<SCITEGIC>MOL_PROPERTY
-TS
SciTegic.value.DoubleValue
33.186

@<SCITEGIC>MOL_PROPERTY
U+W
SciTegic.value.DoubleValue
-27.461

@<SCITEGIC>MOL_PROPERTY
U
SciTegic.value.DoubleValue
26.923

@<SCITEGIC>MOL_PROPERTY
W
SciTegic.value.DoubleValue
-54.385

@<SCITEGIC>MOL_PROPERTY
W(PB)
SciTegic.value.DoubleValue
-56.636

@<SCITEGIC>MOL_PROPERTY
W(SA)
SciTegic.value.DoubleValue
2.251

@<SCITEGIC>MOL_PROPERTY
Valence
SciTegic.value.DoubleValue
5.933

@<SCITEGIC>MOL_PROPERTY
Coulomb
SciTegic.value.DoubleValue
20.334

@<SCITEGIC>MOL_PROPERTY
VdW
SciTegic.value.DoubleValue
0.657

@<SCITEGIC>MOL_PROPERTY
VdW6
SciTegic.value.DoubleValue
-9.078

@<SCITEGIC>MOL_PROPERTY
VdW12
SciTegic.value.DoubleValue
9.735

@<SCITEGIC>MOL_PROPERTY
Bond
SciTegic.value.DoubleValue
0.268

@<SCITEGIC>MOL_PROPERTY
Angle
SciTegic.value.DoubleValue
2.253

@<SCITEGIC>MOL_PROPERTY
Pdih
SciTegic.value.DoubleValue
3.411

@<SCITEGIC>MOL_PROPERTY
Idih
SciTegic.value.DoubleValue
0.000

@<SCITEGIC>MOL_PROPERTY
Tether
SciTegic.value.DoubleValue
0.000

@<TRIPOS>MOLECULE
guest-s13_vm2.mol2 : vm2 ligand conformer 44
          26          25           1
SMALL
USER_CHARGES
 
@<TRIPOS>ATOM
       1    C1      21.236733   19.153147   19.806796 C.3        1 MOL1        -0.2398
       2    H1      21.310517   18.094463   19.525700 H          1 MOL1         0.0972
       3    H2      20.651496   19.671679   19.036181 H          1 MOL1         0.0972
       4    H3      22.250119   19.575092   19.800154 H          1 MOL1         0.0972
       5    C2      20.588971   19.313353   21.198531 C.3        1 MOL1        -0.1383
       6    H4      20.551083   20.379501   21.462360 H          1 MOL1         0.0961
       7    H5      21.226585   18.815006   21.939936 H          1 MOL1         0.0961
       8    C3      19.166145   18.710177   21.237452 C.3        1 MOL1        -0.1407
       9    H6      18.595465   19.091227   20.379215 H          1 MOL1         0.0961
      10    H7      19.228101   17.621616   21.101608 H          1 MOL1         0.0961
      11    C4      18.363433   19.026708   22.526141 C.3        1 MOL1        -0.1407
      12    H8      17.363624   18.587681   22.403905 H          1 MOL1         0.0961
      13    H9      18.196795   20.107827   22.605624 H          1 MOL1         0.0961
      14    C5      18.974350   18.457253   23.836227 C.3        1 MOL1        -0.1472
      15    H10     18.166962   18.304166   24.564649 H          1 MOL1         0.0961
      16    H11     19.380504   17.458494   23.628851 H          1 MOL1         0.0961
      17    C6      20.066398   19.333117   24.497837 C.3        1 MOL1         0.1190
      18    H12     20.808918   19.605121   23.744727 H          1 MOL1         0.0923
      19    C7      19.486133   20.629147   25.092816 C.3        1 MOL1        -0.2463
      20    H13     18.704645   20.411940   25.831566 H          1 MOL1         0.0972
      21    H14     19.054412   21.270445   24.316468 H          1 MOL1         0.0972
      22    H15     20.271861   21.209697   25.591728 H          1 MOL1         0.0972
      23    N1      20.805837   18.565098   25.558200 N.4        1 MOL1        -0.5974
      24    H16     21.240265   17.719219   25.178313 H          1 MOL1         0.3625
      25    H17     21.551293   19.128213   25.977318 H          1 MOL1         0.3625
      26    H18     20.180461   18.275794   26.315018 H          1 MOL1         0.3625
@<TRIPOS>BOND
    1     1     2    1
    2     1     3    1
    3     1     4    1
    4     1     5    1
    5     5     6    1
    6     5     7    1
    7     5     8    1
    8     8     9    1
    9     8    10    1
   10     8    11    1
   11    11    12    1
   12    11    13    1
   13    11    14    1
   14    14    15    1
   15    14    16    1
   16    14    17    1
   17    17    18    1
   18    17    19    1
   19    19    20    1
   20    19    21    1
   21    19    22    1
   22    17    23    1
   23    23    24    1
   24    23    25    1
   25    23    26    1
@<TRIPOS>SUBSTRUCTURE
       1 MOL1            1 RESIDUE      1      MOL     
@<SCITEGIC>MOL_PROPERTY
VM2 Rank
SciTegic.value.IntegerValue
44

@<SCITEGIC>MOL_PROPERTY
Conf_Id
SciTegic.value.IntegerValue
110

@<SCITEGIC>MOL_PROPERTY
Probability
SciTegic.value.DoubleValue
0.05

@<SCITEGIC>MOL_PROPERTY
Sum Probability
SciTegic.value.DoubleValue
99.27

@<SCITEGIC>MOL_PROPERTY
Delta G
SciTegic.value.DoubleValue
3.517

@<SCITEGIC>MOL_PROPERTY
G
SciTegic.value.DoubleValue
27.226

@<SCITEGIC>MOL_PROPERTY
E
SciTegic.value.DoubleValue
-5.561

@<SCITEGIC>MOL_PROPERTY
-TS
SciTegic.value.DoubleValue
32.787

@<SCITEGIC>MOL_PROPERTY
U+W
SciTegic.value.DoubleValue
-27.023

@<SCITEGIC>MOL_PROPERTY
U
SciTegic.value.DoubleValue
27.379

@<SCITEGIC>MOL_PROPERTY
W
SciTegic.value.DoubleValue
-54.402

@<SCITEGIC>MOL_PROPERTY
W(PB)
SciTegic.value.DoubleValue
-56.657

@<SCITEGIC>MOL_PROPERTY
W(SA)
SciTegic.value.DoubleValue
2.255

@<SCITEGIC>MOL_PROPERTY
Valence
SciTegic.value.DoubleValue
5.925

@<SCITEGIC>MOL_PROPERTY
Coulomb
SciTegic.value.DoubleValue
20.577

@<SCITEGIC>MOL_PROPERTY
VdW
SciTegic.value.DoubleValue
0.876

@<SCITEGIC>MOL_PROPERTY
VdW6
SciTegic.value.DoubleValue
-8.774

@<SCITEGIC>MOL_PROPERTY
VdW12
SciTegic.value.DoubleValue
9.650

@<SCITEGIC>MOL_PROPERTY
Bond
SciTegic.value.DoubleValue
0.273

@<SCITEGIC>MOL_PROPERTY
Angle
SciTegic.value.DoubleValue
2.153

@<SCITEGIC>MOL_PROPERTY
Pdih
SciTegic.value.DoubleValue
3.500

@<SCITEGIC>MOL_PROPERTY
Idih
SciTegic.value.DoubleValue
0.000

@<SCITEGIC>MOL_PROPERTY
Tether
SciTegic.value.DoubleValue
0.000

@<TRIPOS>MOLECULE
guest-s13_vm2.mol2 : vm2 ligand conformer 45
          26          25           1
SMALL
USER_CHARGES
 
@<TRIPOS>ATOM
       1    C1      18.927144   18.992410   19.966411 C.3        1 MOL1        -0.2398
       2    H1      18.523205   19.668738   19.202002 H          1 MOL1         0.0972
       3    H2      18.866840   17.970038   19.571205 H          1 MOL1         0.0972
       4    H3      18.272885   19.053289   20.843026 H          1 MOL1         0.0972
       5    C2      20.389373   19.367826   20.302639 C.3        1 MOL1        -0.1383
       6    H4      20.451043   20.417201   20.622904 H          1 MOL1         0.0961
       7    H5      20.977342   19.300177   19.376548 H          1 MOL1         0.0961
       8    C3      21.033045   18.440249   21.365390 C.3        1 MOL1        -0.1407
       9    H6      20.580137   17.440178   21.321161 H          1 MOL1         0.0961
      10    H7      22.089523   18.297542   21.099015 H          1 MOL1         0.0961
      11    C4      20.987977   18.981567   22.817904 C.3        1 MOL1        -0.1407
      12    H8      21.539592   19.930483   22.869947 H          1 MOL1         0.0961
      13    H9      21.534284   18.274728   23.455786 H          1 MOL1         0.0961
      14    C5      19.557927   19.188383   23.376662 C.3        1 MOL1        -0.1472
      15    H10     19.053750   19.961132   22.783595 H          1 MOL1         0.0961
      16    H11     18.974915   18.264968   23.262425 H          1 MOL1         0.0961
      17    C6      19.545270   19.631979   24.855914 C.3        1 MOL1         0.1190
      18    H12     20.167635   20.527147   24.951001 H          1 MOL1         0.0923
      19    C7      18.115670   19.989831   25.293226 C.3        1 MOL1        -0.2463
      20    H13     18.103535   20.339075   26.333061 H          1 MOL1         0.0972
      21    H14     17.448026   19.122533   25.215999 H          1 MOL1         0.0972
      22    H15     17.705898   20.793093   24.668251 H          1 MOL1         0.0972
      23    N1      20.131593   18.595755   25.775853 N.4        1 MOL1        -0.5974
      24    H16     20.128945   18.914916   26.748738 H          1 MOL1         0.3625
      25    H17     19.601579   17.721122   25.739037 H          1 MOL1         0.3625
      26    H18     21.100695   18.379782   25.528036 H          1 MOL1         0.3625
@<TRIPOS>BOND
    1     1     2    1
    2     1     3    1
    3     1     4    1
    4     1     5    1
    5     5     6    1
    6     5     7    1
    7     5     8    1
    8     8     9    1
    9     8    10    1
   10     8    11    1
   11    11    12    1
   12    11    13    1
   13    11    14    1
   14    14    15    1
   15    14    16    1
   16    14    17    1
   17    17    18    1
   18    17    19    1
   19    19    20    1
   20    19    21    1
   21    19    22    1
   22    17    23    1
   23    23    24    1
   24    23    25    1
   25    23    26    1
@<TRIPOS>SUBSTRUCTURE
       1 MOL1            1 RESIDUE      1      MOL     
@<SCITEGIC>MOL_PROPERTY
VM2 Rank
SciTegic.value.IntegerValue
45

@<SCITEGIC>MOL_PROPERTY
Conf_Id
SciTegic.value.IntegerValue
1334

@<SCITEGIC>MOL_PROPERTY
Probability
SciTegic.value.DoubleValue
0.05

@<SCITEGIC>MOL_PROPERTY
Sum Probability
SciTegic.value.DoubleValue
99.32

@<SCITEGIC>MOL_PROPERTY
Delta G
SciTegic.value.DoubleValue
3.529

@<SCITEGIC>MOL_PROPERTY
G
SciTegic.value.DoubleValue
27.239

@<SCITEGIC>MOL_PROPERTY
E
SciTegic.value.DoubleValue
-5.653

@<SCITEGIC>MOL_PROPERTY
-TS
SciTegic.value.DoubleValue
32.892

@<SCITEGIC>MOL_PROPERTY
U+W
SciTegic.value.DoubleValue
-27.114

@<SCITEGIC>MOL_PROPERTY
U
SciTegic.value.DoubleValue
26.879

@<SCITEGIC>MOL_PROPERTY
W
SciTegic.value.DoubleValue
-53.994

@<SCITEGIC>MOL_PROPERTY
W(PB)
SciTegic.value.DoubleValue
-56.259

@<SCITEGIC>MOL_PROPERTY
W(SA)
SciTegic.value.DoubleValue
2.265

@<SCITEGIC>MOL_PROPERTY
Valence
SciTegic.value.DoubleValue
5.789

@<SCITEGIC>MOL_PROPERTY
Coulomb
SciTegic.value.DoubleValue
20.012

@<SCITEGIC>MOL_PROPERTY
VdW
SciTegic.value.DoubleValue
1.078

@<SCITEGIC>MOL_PROPERTY
VdW6
SciTegic.value.DoubleValue
-8.363

@<SCITEGIC>MOL_PROPERTY
VdW12
SciTegic.value.DoubleValue
9.442

@<SCITEGIC>MOL_PROPERTY
Bond
SciTegic.value.DoubleValue
0.261

@<SCITEGIC>MOL_PROPERTY
Angle
SciTegic.value.DoubleValue
1.699

@<SCITEGIC>MOL_PROPERTY
Pdih
SciTegic.value.DoubleValue
3.829

@<SCITEGIC>MOL_PROPERTY
Idih
SciTegic.value.DoubleValue
0.000

@<SCITEGIC>MOL_PROPERTY
Tether
SciTegic.value.DoubleValue
0.000

@<TRIPOS>MOLECULE
guest-s13_vm2.mol2 : vm2 ligand conformer 46
          26          25           1
SMALL
USER_CHARGES
 
@<TRIPOS>ATOM
       1    C1      19.298793   19.846392   20.286662 C.3        1 MOL1        -0.2398
       2    H1      19.134168   20.180418   19.254084 H          1 MOL1         0.0972
       3    H2      18.416820   19.266546   20.582672 H          1 MOL1         0.0972
       4    H3      19.365246   20.738884   20.922220 H          1 MOL1         0.0972
       5    C2      20.584157   18.996083   20.377842 C.3        1 MOL1        -0.1383
       6    H4      21.388813   19.523779   19.846910 H          1 MOL1         0.0961
       7    H5      20.435856   18.049874   19.838996 H          1 MOL1         0.0961
       8    C3      21.066218   18.706285   21.822335 C.3        1 MOL1        -0.1407
       9    H6      22.019124   18.165147   21.741348 H          1 MOL1         0.0961
      10    H7      21.311800   19.647294   22.329711 H          1 MOL1         0.0961
      11    C4      20.103646   17.839184   22.680644 C.3        1 MOL1        -0.1407
      12    H8      20.704150   17.249839   23.386293 H          1 MOL1         0.0961
      13    H9      19.608270   17.098913   22.037588 H          1 MOL1         0.0961
      14    C5      19.029741   18.621632   23.487146 C.3        1 MOL1        -0.1472
      15    H10     18.333524   19.114220   22.800751 H          1 MOL1         0.0961
      16    H11     18.425963   17.901256   24.054806 H          1 MOL1         0.0961
      17    C6      19.599433   19.677309   24.461848 C.3        1 MOL1         0.1190
      18    H12     20.169969   20.409963   23.884156 H          1 MOL1         0.0923
      19    C7      18.456715   20.419440   25.172975 C.3        1 MOL1        -0.2463
      20    H13     17.851009   19.731813   25.776430 H          1 MOL1         0.0972
      21    H14     17.796644   20.907351   24.444968 H          1 MOL1         0.0972
      22    H15     18.853060   21.197844   25.836554 H          1 MOL1         0.0972
      23    N1      20.549297   19.081675   25.464548 N.4        1 MOL1        -0.5974
      24    H16     20.935815   19.797443   26.086288 H          1 MOL1         0.3625
      25    H17     20.083530   18.384519   26.051237 H          1 MOL1         0.3625
      26    H18     21.336159   18.619441   25.001058 H          1 MOL1         0.3625
@<TRIPOS>BOND
    1     1     2    1
    2     1     3    1
    3     1     4    1
    4     1     5    1
    5     5     6    1
    6     5     7    1
    7     5     8    1
    8     8     9    1
    9     8    10    1
   10     8    11    1
   11    11    12    1
   12    11    13    1
   13    11    14    1
   14    14    15    1
   15    14    16    1
   16    14    17    1
   17    17    18    1
   18    17    19    1
   19    19    20    1
   20    19    21    1
   21    19    22    1
   22    17    23    1
   23    23    24    1
   24    23    25    1
   25    23    26    1
@<TRIPOS>SUBSTRUCTURE
       1 MOL1            1 RESIDUE      1      MOL     
@<SCITEGIC>MOL_PROPERTY
VM2 Rank
SciTegic.value.IntegerValue
46

@<SCITEGIC>MOL_PROPERTY
Conf_Id
SciTegic.value.IntegerValue
247

@<SCITEGIC>MOL_PROPERTY
Probability
SciTegic.value.DoubleValue
0.04

@<SCITEGIC>MOL_PROPERTY
Sum Probability
SciTegic.value.DoubleValue
99.36

@<SCITEGIC>MOL_PROPERTY
Delta G
SciTegic.value.DoubleValue
3.595

@<SCITEGIC>MOL_PROPERTY
G
SciTegic.value.DoubleValue
27.305

@<SCITEGIC>MOL_PROPERTY
E
SciTegic.value.DoubleValue
-5.212

@<SCITEGIC>MOL_PROPERTY
-TS
SciTegic.value.DoubleValue
32.517

@<SCITEGIC>MOL_PROPERTY
U+W
SciTegic.value.DoubleValue
-26.674

@<SCITEGIC>MOL_PROPERTY
U
SciTegic.value.DoubleValue
27.544

@<SCITEGIC>MOL_PROPERTY
W
SciTegic.value.DoubleValue
-54.217

@<SCITEGIC>MOL_PROPERTY
W(PB)
SciTegic.value.DoubleValue
-56.451

@<SCITEGIC>MOL_PROPERTY
W(SA)
SciTegic.value.DoubleValue
2.234

@<SCITEGIC>MOL_PROPERTY
Valence
SciTegic.value.DoubleValue
6.186

@<SCITEGIC>MOL_PROPERTY
Coulomb
SciTegic.value.DoubleValue
20.490

@<SCITEGIC>MOL_PROPERTY
VdW
SciTegic.value.DoubleValue
0.868

@<SCITEGIC>MOL_PROPERTY
VdW6
SciTegic.value.DoubleValue
-9.300

@<SCITEGIC>MOL_PROPERTY
VdW12
SciTegic.value.DoubleValue
10.168

@<SCITEGIC>MOL_PROPERTY
Bond
SciTegic.value.DoubleValue
0.324

@<SCITEGIC>MOL_PROPERTY
Angle
SciTegic.value.DoubleValue
2.319

@<SCITEGIC>MOL_PROPERTY
Pdih
SciTegic.value.DoubleValue
3.543

@<SCITEGIC>MOL_PROPERTY
Idih
SciTegic.value.DoubleValue
0.000

@<SCITEGIC>MOL_PROPERTY
Tether
SciTegic.value.DoubleValue
0.000

@<TRIPOS>MOLECULE
guest-s13_vm2.mol2 : vm2 ligand conformer 47
          26          25           1
SMALL
USER_CHARGES
 
@<TRIPOS>ATOM
       1    C1      20.881256   19.587729   19.682102 C.3        1 MOL1        -0.2398
       2    H1      21.796084   19.966208   20.156280 H          1 MOL1         0.0972
       3    H2      21.091661   19.443001   18.614534 H          1 MOL1         0.0972
       4    H3      20.106420   20.360150   19.764245 H          1 MOL1         0.0972
       5    C2      20.428168   18.259374   20.329300 C.3        1 MOL1        -0.1383
       6    H4      21.184945   17.488787   20.126052 H          1 MOL1         0.0961
       7    H5      19.501272   17.912949   19.851116 H          1 MOL1         0.0961
       8    C3      20.221248   18.363497   21.859495 C.3        1 MOL1        -0.1407
       9    H6      19.989174   17.362390   22.248406 H          1 MOL1         0.0961
      10    H7      21.166994   18.676518   22.318344 H          1 MOL1         0.0961
      11    C4      19.088168   19.343116   22.255669 C.3        1 MOL1        -0.1407
      12    H8      18.215423   19.147293   21.617518 H          1 MOL1         0.0961
      13    H9      19.397172   20.375313   22.042674 H          1 MOL1         0.0961
      14    C5      18.629876   19.244112   23.734700 C.3        1 MOL1        -0.1472
      15    H10     17.745415   19.886369   23.841173 H          1 MOL1         0.0961
      16    H11     18.288019   18.225044   23.958829 H          1 MOL1         0.0961
      17    C6      19.687165   19.688082   24.773419 C.3        1 MOL1         0.1190
      18    H12     20.194774   20.578572   24.390067 H          1 MOL1         0.0923
      19    C7      19.008194   20.056620   26.103024 C.3        1 MOL1        -0.2463
      20    H13     18.469373   19.198736   26.524575 H          1 MOL1         0.0972
      21    H14     18.291349   20.875228   25.962429 H          1 MOL1         0.0972
      22    H15     19.750140   20.389872   26.839171 H          1 MOL1         0.0972
      23    N1      20.743925   18.645471   25.016290 N.4        1 MOL1        -0.5974
      24    H16     21.224758   18.391579   24.150621 H          1 MOL1         0.3625
      25    H17     21.452168   18.978025   25.676829 H          1 MOL1         0.3625
      26    H18     20.339490   17.790317   25.406711 H          1 MOL1         0.3625
@<TRIPOS>BOND
    1     1     2    1
    2     1     3    1
    3     1     4    1
    4     1     5    1
    5     5     6    1
    6     5     7    1
    7     5     8    1
    8     8     9    1
    9     8    10    1
   10     8    11    1
   11    11    12    1
   12    11    13    1
   13    11    14    1
   14    14    15    1
   15    14    16    1
   16    14    17    1
   17    17    18    1
   18    17    19    1
   19    19    20    1
   20    19    21    1
   21    19    22    1
   22    17    23    1
   23    23    24    1
   24    23    25    1
   25    23    26    1
@<TRIPOS>SUBSTRUCTURE
       1 MOL1            1 RESIDUE      1      MOL     
@<SCITEGIC>MOL_PROPERTY
VM2 Rank
SciTegic.value.IntegerValue
47

@<SCITEGIC>MOL_PROPERTY
Conf_Id
SciTegic.value.IntegerValue
1073

@<SCITEGIC>MOL_PROPERTY
Probability
SciTegic.value.DoubleValue
0.04

@<SCITEGIC>MOL_PROPERTY
Sum Probability
SciTegic.value.DoubleValue
99.40

@<SCITEGIC>MOL_PROPERTY
Delta G
SciTegic.value.DoubleValue
3.605

@<SCITEGIC>MOL_PROPERTY
G
SciTegic.value.DoubleValue
27.315

@<SCITEGIC>MOL_PROPERTY
E
SciTegic.value.DoubleValue
-5.350

@<SCITEGIC>MOL_PROPERTY
-TS
SciTegic.value.DoubleValue
32.664

@<SCITEGIC>MOL_PROPERTY
U+W
SciTegic.value.DoubleValue
-26.811

@<SCITEGIC>MOL_PROPERTY
U
SciTegic.value.DoubleValue
27.043

@<SCITEGIC>MOL_PROPERTY
W
SciTegic.value.DoubleValue
-53.854

@<SCITEGIC>MOL_PROPERTY
W(PB)
SciTegic.value.DoubleValue
-56.139

@<SCITEGIC>MOL_PROPERTY
W(SA)
SciTegic.value.DoubleValue
2.285

@<SCITEGIC>MOL_PROPERTY
Valence
SciTegic.value.DoubleValue
4.968

@<SCITEGIC>MOL_PROPERTY
Coulomb
SciTegic.value.DoubleValue
21.068

@<SCITEGIC>MOL_PROPERTY
VdW
SciTegic.value.DoubleValue
1.006

@<SCITEGIC>MOL_PROPERTY
VdW6
SciTegic.value.DoubleValue
-8.510

@<SCITEGIC>MOL_PROPERTY
VdW12
SciTegic.value.DoubleValue
9.516

@<SCITEGIC>MOL_PROPERTY
Bond
SciTegic.value.DoubleValue
0.263

@<SCITEGIC>MOL_PROPERTY
Angle
SciTegic.value.DoubleValue
1.758

@<SCITEGIC>MOL_PROPERTY
Pdih
SciTegic.value.DoubleValue
2.947

@<SCITEGIC>MOL_PROPERTY
Idih
SciTegic.value.DoubleValue
0.000

@<SCITEGIC>MOL_PROPERTY
Tether
SciTegic.value.DoubleValue
0.000

@<TRIPOS>MOLECULE
guest-s13_vm2.mol2 : vm2 ligand conformer 48
          26          25           1
SMALL
USER_CHARGES
 
@<TRIPOS>ATOM
       1    C1      20.280630   19.118979   19.303779 C.3        1 MOL1        -0.2398
       2    H1      19.330989   18.633874   19.043254 H          1 MOL1         0.0972
       3    H2      20.082869   20.179840   19.501092 H          1 MOL1         0.0972
       4    H3      20.937312   19.064194   18.425886 H          1 MOL1         0.0972
       5    C2      20.942786   18.428915   20.517970 C.3        1 MOL1        -0.1383
       6    H4      21.873269   18.952644   20.778053 H          1 MOL1         0.0961
       7    H5      21.234673   17.409538   20.228950 H          1 MOL1         0.0961
       8    C3      20.022432   18.348115   21.759911 C.3        1 MOL1        -0.1407
       9    H6      19.103877   17.805562   21.496805 H          1 MOL1         0.0961
      10    H7      20.526825   17.739127   22.518119 H          1 MOL1         0.0961
      11    C4      19.653605   19.737078   22.342920 C.3        1 MOL1        -0.1407
      12    H8      19.063113   20.281592   21.594372 H          1 MOL1         0.0961
      13    H9      20.559167   20.336385   22.510551 H          1 MOL1         0.0961
      14    C5      18.816810   19.664608   23.647492 C.3        1 MOL1        -0.1472
      15    H10     18.163376   20.546870   23.675257 H          1 MOL1         0.0961
      16    H11     18.146887   18.794854   23.623573 H          1 MOL1         0.0961
      17    C6      19.658210   19.663158   24.945477 C.3        1 MOL1         0.1190
      18    H12     20.297831   20.551091   24.935723 H          1 MOL1         0.0923
      19    C7      18.738808   19.749051   26.174523 C.3        1 MOL1        -0.2463
      20    H13     18.116922   20.652039   26.134729 H          1 MOL1         0.0972
      21    H14     19.328403   19.792561   27.098578 H          1 MOL1         0.0972
      22    H15     18.073614   18.878496   26.234149 H          1 MOL1         0.0972
      23    N1      20.574720   18.478096   25.061928 N.4        1 MOL1        -0.5974
      24    H16     21.130679   18.518173   25.920869 H          1 MOL1         0.3625
      25    H17     20.048806   17.600413   25.076458 H          1 MOL1         0.3625
      26    H18     21.227446   18.438278   24.274660 H          1 MOL1         0.3625
@<TRIPOS>BOND
    1     1     2    1
    2     1     3    1
    3     1     4    1
    4     1     5    1
    5     5     6    1
    6     5     7    1
    7     5     8    1
    8     8     9    1
    9     8    10    1
   10     8    11    1
   11    11    12    1
   12    11    13    1
   13    11    14    1
   14    14    15    1
   15    14    16    1
   16    14    17    1
   17    17    18    1
   18    17    19    1
   19    19    20    1
   20    19    21    1
   21    19    22    1
   22    17    23    1
   23    23    24    1
   24    23    25    1
   25    23    26    1
@<TRIPOS>SUBSTRUCTURE
       1 MOL1            1 RESIDUE      1      MOL     
@<SCITEGIC>MOL_PROPERTY
VM2 Rank
SciTegic.value.IntegerValue
48

@<SCITEGIC>MOL_PROPERTY
Conf_Id
SciTegic.value.IntegerValue
1200

@<SCITEGIC>MOL_PROPERTY
Probability
SciTegic.value.DoubleValue
0.04

@<SCITEGIC>MOL_PROPERTY
Sum Probability
SciTegic.value.DoubleValue
99.44

@<SCITEGIC>MOL_PROPERTY
Delta G
SciTegic.value.DoubleValue
3.670

@<SCITEGIC>MOL_PROPERTY
G
SciTegic.value.DoubleValue
27.379

@<SCITEGIC>MOL_PROPERTY
E
SciTegic.value.DoubleValue
-5.272

@<SCITEGIC>MOL_PROPERTY
-TS
SciTegic.value.DoubleValue
32.651

@<SCITEGIC>MOL_PROPERTY
U+W
SciTegic.value.DoubleValue
-26.734

@<SCITEGIC>MOL_PROPERTY
U
SciTegic.value.DoubleValue
27.192

@<SCITEGIC>MOL_PROPERTY
W
SciTegic.value.DoubleValue
-53.926

@<SCITEGIC>MOL_PROPERTY
W(PB)
SciTegic.value.DoubleValue
-56.221

@<SCITEGIC>MOL_PROPERTY
W(SA)
SciTegic.value.DoubleValue
2.295

@<SCITEGIC>MOL_PROPERTY
Valence
SciTegic.value.DoubleValue
5.377

@<SCITEGIC>MOL_PROPERTY
Coulomb
SciTegic.value.DoubleValue
20.710

@<SCITEGIC>MOL_PROPERTY
VdW
SciTegic.value.DoubleValue
1.105

@<SCITEGIC>MOL_PROPERTY
VdW6
SciTegic.value.DoubleValue
-8.250

@<SCITEGIC>MOL_PROPERTY
VdW12
SciTegic.value.DoubleValue
9.355

@<SCITEGIC>MOL_PROPERTY
Bond
SciTegic.value.DoubleValue
0.276

@<SCITEGIC>MOL_PROPERTY
Angle
SciTegic.value.DoubleValue
1.583

@<SCITEGIC>MOL_PROPERTY
Pdih
SciTegic.value.DoubleValue
3.519

@<SCITEGIC>MOL_PROPERTY
Idih
SciTegic.value.DoubleValue
0.000

@<SCITEGIC>MOL_PROPERTY
Tether
SciTegic.value.DoubleValue
0.000

@<TRIPOS>MOLECULE
guest-s13_vm2.mol2 : vm2 ligand conformer 49
          26          25           1
SMALL
USER_CHARGES
 
@<TRIPOS>ATOM
       1    C1      19.301789   17.905724   20.458265 C.3        1 MOL1        -0.2398
       2    H1      18.763815   17.516520   19.584209 H          1 MOL1         0.0972
       3    H2      20.018541   17.139304   20.780316 H          1 MOL1         0.0972
       4    H3      18.564127   18.053987   21.256377 H          1 MOL1         0.0972
       5    C2      20.018899   19.227015   20.105459 C.3        1 MOL1        -0.1383
       6    H4      19.270271   19.992753   19.858630 H          1 MOL1         0.0961
       7    H5      20.609551   19.073884   19.191430 H          1 MOL1         0.0961
       8    C3      20.961127   19.759841   21.215086 C.3        1 MOL1        -0.1407
       9    H6      21.779232   19.047502   21.389036 H          1 MOL1         0.0961
      10    H7      21.440091   20.671204   20.831099 H          1 MOL1         0.0961
      11    C4      20.256731   20.111521   22.551741 C.3        1 MOL1        -0.1407
      12    H8      19.225575   20.428355   22.349499 H          1 MOL1         0.0961
      13    H9      20.762760   20.981975   22.991843 H          1 MOL1         0.0961
      14    C5      20.293736   18.958453   23.589478 C.3        1 MOL1        -0.1472
      15    H10     19.779316   18.071874   23.202437 H          1 MOL1         0.0961
      16    H11     21.340434   18.663739   23.741053 H          1 MOL1         0.0961
      17    C6      19.692837   19.340685   24.961332 C.3        1 MOL1         0.1190
      18    H12     20.181257   20.256915   25.307217 H          1 MOL1         0.0923
      19    C7      18.177107   19.596476   24.878007 C.3        1 MOL1        -0.2463
      20    H13     17.951587   20.458658   24.240173 H          1 MOL1         0.0972
      21    H14     17.766921   19.813361   25.871997 H          1 MOL1         0.0972
      22    H15     17.648775   18.723293   24.475405 H          1 MOL1         0.0972
      23    N1      19.985774   18.288285   25.994632 N.4        1 MOL1        -0.5974
      24    H16     20.992372   18.131831   26.099039 H          1 MOL1         0.3625
      25    H17     19.623047   18.555799   26.914044 H          1 MOL1         0.3625
      26    H18     19.559065   17.391489   25.747432 H          1 MOL1         0.3625
@<TRIPOS>BOND
    1     1     2    1
    2     1     3    1
    3     1     4    1
    4     1     5    1
    5     5     6    1
    6     5     7    1
    7     5     8    1
    8     8     9    1
    9     8    10    1
   10     8    11    1
   11    11    12    1
   12    11    13    1
   13    11    14    1
   14    14    15    1
   15    14    16    1
   16    14    17    1
   17    17    18    1
   18    17    19    1
   19    19    20    1
   20    19    21    1
   21    19    22    1
   22    17    23    1
   23    23    24    1
   24    23    25    1
   25    23    26    1
@<TRIPOS>SUBSTRUCTURE
       1 MOL1            1 RESIDUE      1      MOL     
@<SCITEGIC>MOL_PROPERTY
VM2 Rank
SciTegic.value.IntegerValue
49

@<SCITEGIC>MOL_PROPERTY
Conf_Id
SciTegic.value.IntegerValue
135

@<SCITEGIC>MOL_PROPERTY
Probability
SciTegic.value.DoubleValue
0.04

@<SCITEGIC>MOL_PROPERTY
Sum Probability
SciTegic.value.DoubleValue
99.47

@<SCITEGIC>MOL_PROPERTY
Delta G
SciTegic.value.DoubleValue
3.672

@<SCITEGIC>MOL_PROPERTY
G
SciTegic.value.DoubleValue
27.382

@<SCITEGIC>MOL_PROPERTY
E
SciTegic.value.DoubleValue
-5.486

@<SCITEGIC>MOL_PROPERTY
-TS
SciTegic.value.DoubleValue
32.868

@<SCITEGIC>MOL_PROPERTY
U+W
SciTegic.value.DoubleValue
-26.948

@<SCITEGIC>MOL_PROPERTY
U
SciTegic.value.DoubleValue
27.261

@<SCITEGIC>MOL_PROPERTY
W
SciTegic.value.DoubleValue
-54.209

@<SCITEGIC>MOL_PROPERTY
W(PB)
SciTegic.value.DoubleValue
-56.472

@<SCITEGIC>MOL_PROPERTY
W(SA)
SciTegic.value.DoubleValue
2.263

@<SCITEGIC>MOL_PROPERTY
Valence
SciTegic.value.DoubleValue
6.229

@<SCITEGIC>MOL_PROPERTY
Coulomb
SciTegic.value.DoubleValue
19.945

@<SCITEGIC>MOL_PROPERTY
VdW
SciTegic.value.DoubleValue
1.087

@<SCITEGIC>MOL_PROPERTY
VdW6
SciTegic.value.DoubleValue
-8.618

@<SCITEGIC>MOL_PROPERTY
VdW12
SciTegic.value.DoubleValue
9.704

@<SCITEGIC>MOL_PROPERTY
Bond
SciTegic.value.DoubleValue
0.277

@<SCITEGIC>MOL_PROPERTY
Angle
SciTegic.value.DoubleValue
1.929

@<SCITEGIC>MOL_PROPERTY
Pdih
SciTegic.value.DoubleValue
4.023

@<SCITEGIC>MOL_PROPERTY
Idih
SciTegic.value.DoubleValue
0.000

@<SCITEGIC>MOL_PROPERTY
Tether
SciTegic.value.DoubleValue
0.000

@<TRIPOS>MOLECULE
guest-s13_vm2.mol2 : vm2 ligand conformer 50
          26          25           1
SMALL
USER_CHARGES
 
@<TRIPOS>ATOM
       1    C1      19.287924   18.452451   19.855276 C.3        1 MOL1        -0.2398
       2    H1      19.376776   18.244426   18.781152 H          1 MOL1         0.0972
       3    H2      18.747166   17.615440   20.315675 H          1 MOL1         0.0972
       4    H3      18.679106   19.358303   19.966615 H          1 MOL1         0.0972
       5    C2      20.686317   18.627420   20.489819 C.3        1 MOL1        -0.1383
       6    H4      21.196714   19.484596   20.028827 H          1 MOL1         0.0961
       7    H5      21.296067   17.743993   20.254122 H          1 MOL1         0.0961
       8    C3      20.643190   18.807132   22.026262 C.3        1 MOL1        -0.1407
       9    H6      20.156479   17.929032   22.467735 H          1 MOL1         0.0961
      10    H7      21.674720   18.826983   22.404009 H          1 MOL1         0.0961
      11    C4      19.912287   20.099182   22.469407 C.3        1 MOL1        -0.1407
      12    H8      18.843713   20.027393   22.229593 H          1 MOL1         0.0961
      13    H9      20.295191   20.939518   21.874216 H          1 MOL1         0.0961
      14    C5      20.089417   20.460767   23.971165 C.3        1 MOL1        -0.1472
      15    H10     21.151198   20.649976   24.176282 H          1 MOL1         0.0961
      16    H11     19.584642   21.420205   24.144963 H          1 MOL1         0.0961
      17    C6      19.546922   19.451966   25.015785 C.3        1 MOL1         0.1190
      18    H12     19.561120   19.962383   25.983793 H          1 MOL1         0.0923
      19    C7      18.090776   19.041108   24.735721 C.3        1 MOL1        -0.2463
      20    H13     17.692903   18.446140   25.566851 H          1 MOL1         0.0972
      21    H14     18.008132   18.439277   23.822773 H          1 MOL1         0.0972
      22    H15     17.451985   19.925972   24.624011 H          1 MOL1         0.0972
      23    N1      20.431168   18.247974   25.190564 N.4        1 MOL1        -0.5974
      24    H16     20.079332   17.630281   25.927582 H          1 MOL1         0.3625
      25    H17     20.487745   17.700264   24.329721 H          1 MOL1         0.3625
      26    H18     21.384613   18.517976   25.448447 H          1 MOL1         0.3625
@<TRIPOS>BOND
    1     1     2    1
    2     1     3    1
    3     1     4    1
    4     1     5    1
    5     5     6    1
    6     5     7    1
    7     5     8    1
    8     8     9    1
    9     8    10    1
   10     8    11    1
   11    11    12    1
   12    11    13    1
   13    11    14    1
   14    14    15    1
   15    14    16    1
   16    14    17    1
   17    17    18    1
   18    17    19    1
   19    19    20    1
   20    19    21    1
   21    19    22    1
   22    17    23    1
   23    23    24    1
   24    23    25    1
   25    23    26    1
@<TRIPOS>SUBSTRUCTURE
       1 MOL1            1 RESIDUE      1      MOL     
@<SCITEGIC>MOL_PROPERTY
VM2 Rank
SciTegic.value.IntegerValue
50

@<SCITEGIC>MOL_PROPERTY
Conf_Id
SciTegic.value.IntegerValue
1337

@<SCITEGIC>MOL_PROPERTY
Probability
SciTegic.value.DoubleValue
0.03

@<SCITEGIC>MOL_PROPERTY
Sum Probability
SciTegic.value.DoubleValue
99.50

@<SCITEGIC>MOL_PROPERTY
Delta G
SciTegic.value.DoubleValue
3.770

@<SCITEGIC>MOL_PROPERTY
G
SciTegic.value.DoubleValue
27.480

@<SCITEGIC>MOL_PROPERTY
E
SciTegic.value.DoubleValue
-5.789

@<SCITEGIC>MOL_PROPERTY
-TS
SciTegic.value.DoubleValue
33.269

@<SCITEGIC>MOL_PROPERTY
U+W
SciTegic.value.DoubleValue
-27.250

@<SCITEGIC>MOL_PROPERTY
U
SciTegic.value.DoubleValue
27.148

@<SCITEGIC>MOL_PROPERTY
W
SciTegic.value.DoubleValue
-54.398

@<SCITEGIC>MOL_PROPERTY
W(PB)
SciTegic.value.DoubleValue
-56.624

@<SCITEGIC>MOL_PROPERTY
W(SA)
SciTegic.value.DoubleValue
2.226

@<SCITEGIC>MOL_PROPERTY
Valence
SciTegic.value.DoubleValue
5.072

@<SCITEGIC>MOL_PROPERTY
Coulomb
SciTegic.value.DoubleValue
21.224

@<SCITEGIC>MOL_PROPERTY
VdW
SciTegic.value.DoubleValue
0.852

@<SCITEGIC>MOL_PROPERTY
VdW6
SciTegic.value.DoubleValue
-9.599

@<SCITEGIC>MOL_PROPERTY
VdW12
SciTegic.value.DoubleValue
10.452

@<SCITEGIC>MOL_PROPERTY
Bond
SciTegic.value.DoubleValue
0.312

@<SCITEGIC>MOL_PROPERTY
Angle
SciTegic.value.DoubleValue
2.307

@<SCITEGIC>MOL_PROPERTY
Pdih
SciTegic.value.DoubleValue
2.453

@<SCITEGIC>MOL_PROPERTY
Idih
SciTegic.value.DoubleValue
0.000

@<SCITEGIC>MOL_PROPERTY
Tether
SciTegic.value.DoubleValue
0.000

@<TRIPOS>MOLECULE
guest-s13_vm2.mol2 : vm2 ligand conformer 51
          26          25           1
SMALL
USER_CHARGES
 
@<TRIPOS>ATOM
       1    C1      21.007672   19.711891   19.827714 C.3        1 MOL1        -0.2398
       2    H1      20.747050   19.036185   19.002643 H          1 MOL1         0.0972
       3    H2      20.402259   20.622302   19.728310 H          1 MOL1         0.0972
       4    H3      22.062097   19.994124   19.711129 H          1 MOL1         0.0972
       5    C2      20.772302   19.036209   21.195175 C.3        1 MOL1        -0.1383
       6    H4      21.088176   19.725950   21.985551 H          1 MOL1         0.0961
       7    H5      21.413931   18.147467   21.272694 H          1 MOL1         0.0961
       8    C3      19.290496   18.627691   21.378159 C.3        1 MOL1        -0.1407
       9    H6      18.640225   19.510458   21.307193 H          1 MOL1         0.0961
      10    H7      19.012130   17.979673   20.535419 H          1 MOL1         0.0961
      11    C4      19.000119   17.856126   22.692332 C.3        1 MOL1        -0.1407
      12    H8      19.835970   17.187697   22.937836 H          1 MOL1         0.0961
      13    H9      18.144085   17.192439   22.507371 H          1 MOL1         0.0961
      14    C5      18.630771   18.749927   23.907324 C.3        1 MOL1        -0.1472
      15    H10     17.746523   19.347573   23.648873 H          1 MOL1         0.0961
      16    H11     18.324330   18.101671   24.739072 H          1 MOL1         0.0961
      17    C6      19.748903   19.694725   24.397098 C.3        1 MOL1         0.1190
      18    H12     20.021434   20.361525   23.574958 H          1 MOL1         0.0923
      19    C7      19.243922   20.561799   25.561317 C.3        1 MOL1        -0.2463
      20    H13     18.369955   21.151370   25.257483 H          1 MOL1         0.0972
      21    H14     20.021142   21.263535   25.888198 H          1 MOL1         0.0972
      22    H15     18.957215   19.944398   26.421844 H          1 MOL1         0.0972
      23    N1      20.993815   18.949633   24.794881 N.4        1 MOL1        -0.5974
      24    H16     21.736971   19.590053   25.088198 H          1 MOL1         0.3625
      25    H17     20.812426   18.312993   25.575386 H          1 MOL1         0.3625
      26    H18     21.355145   18.390163   24.017883 H          1 MOL1         0.3625
@<TRIPOS>BOND
    1     1     2    1
    2     1     3    1
    3     1     4    1
    4     1     5    1
    5     5     6    1
    6     5     7    1
    7     5     8    1
    8     8     9    1
    9     8    10    1
   10     8    11    1
   11    11    12    1
   12    11    13    1
   13    11    14    1
   14    14    15    1
   15    14    16    1
   16    14    17    1
   17    17    18    1
   18    17    19    1
   19    19    20    1
   20    19    21    1
   21    19    22    1
   22    17    23    1
   23    23    24    1
   24    23    25    1
   25    23    26    1
@<TRIPOS>SUBSTRUCTURE
       1 MOL1            1 RESIDUE      1      MOL     
@<SCITEGIC>MOL_PROPERTY
VM2 Rank
SciTegic.value.IntegerValue
51

@<SCITEGIC>MOL_PROPERTY
Conf_Id
SciTegic.value.IntegerValue
1205

@<SCITEGIC>MOL_PROPERTY
Probability
SciTegic.value.DoubleValue
0.03

@<SCITEGIC>MOL_PROPERTY
Sum Probability
SciTegic.value.DoubleValue
99.53

@<SCITEGIC>MOL_PROPERTY
Delta G
SciTegic.value.DoubleValue
3.782

@<SCITEGIC>MOL_PROPERTY
G
SciTegic.value.DoubleValue
27.492

@<SCITEGIC>MOL_PROPERTY
E
SciTegic.value.DoubleValue
-5.513

@<SCITEGIC>MOL_PROPERTY
-TS
SciTegic.value.DoubleValue
33.005

@<SCITEGIC>MOL_PROPERTY
U+W
SciTegic.value.DoubleValue
-26.975

@<SCITEGIC>MOL_PROPERTY
U
SciTegic.value.DoubleValue
27.042

@<SCITEGIC>MOL_PROPERTY
W
SciTegic.value.DoubleValue
-54.016

@<SCITEGIC>MOL_PROPERTY
W(PB)
SciTegic.value.DoubleValue
-56.286

@<SCITEGIC>MOL_PROPERTY
W(SA)
SciTegic.value.DoubleValue
2.270

@<SCITEGIC>MOL_PROPERTY
Valence
SciTegic.value.DoubleValue
5.411

@<SCITEGIC>MOL_PROPERTY
Coulomb
SciTegic.value.DoubleValue
21.047

@<SCITEGIC>MOL_PROPERTY
VdW
SciTegic.value.DoubleValue
0.584

@<SCITEGIC>MOL_PROPERTY
VdW6
SciTegic.value.DoubleValue
-8.849

@<SCITEGIC>MOL_PROPERTY
VdW12
SciTegic.value.DoubleValue
9.433

@<SCITEGIC>MOL_PROPERTY
Bond
SciTegic.value.DoubleValue
0.257

@<SCITEGIC>MOL_PROPERTY
Angle
SciTegic.value.DoubleValue
1.922

@<SCITEGIC>MOL_PROPERTY
Pdih
SciTegic.value.DoubleValue
3.231

@<SCITEGIC>MOL_PROPERTY
Idih
SciTegic.value.DoubleValue
0.000

@<SCITEGIC>MOL_PROPERTY
Tether
SciTegic.value.DoubleValue
0.000

@<TRIPOS>MOLECULE
guest-s13_vm2.mol2 : vm2 ligand conformer 52
          26          25           1
SMALL
USER_CHARGES
 
@<TRIPOS>ATOM
       1    C1      20.428088   17.684359   20.310203 C.3        1 MOL1        -0.2398
       2    H1      21.432003   17.849958   19.898195 H          1 MOL1         0.0972
       3    H2      20.540824   17.279264   21.321550 H          1 MOL1         0.0972
       4    H3      19.940223   16.915016   19.697834 H          1 MOL1         0.0972
       5    C2      19.601933   18.991666   20.293585 C.3        1 MOL1        -0.1383
       6    H4      18.581050   18.802891   20.653779 H          1 MOL1         0.0961
       7    H5      19.498565   19.311947   19.247328 H          1 MOL1         0.0961
       8    C3      20.252997   20.145627   21.099054 C.3        1 MOL1        -0.1407
       9    H6      21.347815   20.056682   21.074084 H          1 MOL1         0.0961
      10    H7      20.021988   21.090404   20.587700 H          1 MOL1         0.0961
      11    C4      19.759705   20.277036   22.563257 C.3        1 MOL1        -0.1407
      12    H8      18.677345   20.462142   22.558692 H          1 MOL1         0.0961
      13    H9      20.223503   21.170478   23.003798 H          1 MOL1         0.0961
      14    C5      20.081389   19.052594   23.455756 C.3        1 MOL1        -0.1472
      15    H10     19.479925   18.192367   23.136448 H          1 MOL1         0.0961
      16    H11     21.134473   18.778558   23.309929 H          1 MOL1         0.0961
      17    C6      19.843792   19.305612   24.961912 C.3        1 MOL1         0.1190
      18    H12     20.421081   20.187376   25.256693 H          1 MOL1         0.0923
      19    C7      18.360088   19.567412   25.277446 C.3        1 MOL1        -0.2463
      20    H13     17.730503   18.732148   24.946335 H          1 MOL1         0.0972
      21    H14     18.003993   20.481368   24.788069 H          1 MOL1         0.0972
      22    H15     18.211788   19.698279   26.356418 H          1 MOL1         0.0972
      23    N1      20.360009   18.163693   25.792786 N.4        1 MOL1        -0.5974
      24    H16     21.357741   17.999897   25.630635 H          1 MOL1         0.3625
      25    H17     20.240708   18.345520   26.793367 H          1 MOL1         0.3625
      26    H18     19.866613   17.292635   25.580100 H          1 MOL1         0.3625
@<TRIPOS>BOND
    1     1     2    1
    2     1     3    1
    3     1     4    1
    4     1     5    1
    5     5     6    1
    6     5     7    1
    7     5     8    1
    8     8     9    1
    9     8    10    1
   10     8    11    1
   11    11    12    1
   12    11    13    1
   13    11    14    1
   14    14    15    1
   15    14    16    1
   16    14    17    1
   17    17    18    1
   18    17    19    1
   19    19    20    1
   20    19    21    1
   21    19    22    1
   22    17    23    1
   23    23    24    1
   24    23    25    1
   25    23    26    1
@<TRIPOS>SUBSTRUCTURE
       1 MOL1            1 RESIDUE      1      MOL     
@<SCITEGIC>MOL_PROPERTY
VM2 Rank
SciTegic.value.IntegerValue
52

@<SCITEGIC>MOL_PROPERTY
Conf_Id
SciTegic.value.IntegerValue
148

@<SCITEGIC>MOL_PROPERTY
Probability
SciTegic.value.DoubleValue
0.03

@<SCITEGIC>MOL_PROPERTY
Sum Probability
SciTegic.value.DoubleValue
99.56

@<SCITEGIC>MOL_PROPERTY
Delta G
SciTegic.value.DoubleValue
3.786

@<SCITEGIC>MOL_PROPERTY
G
SciTegic.value.DoubleValue
27.495

@<SCITEGIC>MOL_PROPERTY
E
SciTegic.value.DoubleValue
-5.431

@<SCITEGIC>MOL_PROPERTY
-TS
SciTegic.value.DoubleValue
32.927

@<SCITEGIC>MOL_PROPERTY
U+W
SciTegic.value.DoubleValue
-26.893

@<SCITEGIC>MOL_PROPERTY
U
SciTegic.value.DoubleValue
27.268

@<SCITEGIC>MOL_PROPERTY
W
SciTegic.value.DoubleValue
-54.161

@<SCITEGIC>MOL_PROPERTY
W(PB)
SciTegic.value.DoubleValue
-56.431

@<SCITEGIC>MOL_PROPERTY
W(SA)
SciTegic.value.DoubleValue
2.270

@<SCITEGIC>MOL_PROPERTY
Valence
SciTegic.value.DoubleValue
6.201

@<SCITEGIC>MOL_PROPERTY
Coulomb
SciTegic.value.DoubleValue
19.968

@<SCITEGIC>MOL_PROPERTY
VdW
SciTegic.value.DoubleValue
1.099

@<SCITEGIC>MOL_PROPERTY
VdW6
SciTegic.value.DoubleValue
-8.560

@<SCITEGIC>MOL_PROPERTY
VdW12
SciTegic.value.DoubleValue
9.659

@<SCITEGIC>MOL_PROPERTY
Bond
SciTegic.value.DoubleValue
0.266

@<SCITEGIC>MOL_PROPERTY
Angle
SciTegic.value.DoubleValue
1.902

@<SCITEGIC>MOL_PROPERTY
Pdih
SciTegic.value.DoubleValue
4.034

@<SCITEGIC>MOL_PROPERTY
Idih
SciTegic.value.DoubleValue
0.000

@<SCITEGIC>MOL_PROPERTY
Tether
SciTegic.value.DoubleValue
0.000

@<TRIPOS>MOLECULE
guest-s13_vm2.mol2 : vm2 ligand conformer 53
          26          25           1
SMALL
USER_CHARGES
 
@<TRIPOS>ATOM
       1    C1      21.139809   19.245895   19.780489 C.3        1 MOL1        -0.2398
       2    H1      21.285533   19.229531   18.692636 H          1 MOL1         0.0972
       3    H2      21.618969   20.153585   20.169735 H          1 MOL1         0.0972
       4    H3      21.662324   18.375468   20.196322 H          1 MOL1         0.0972
       5    C2      19.633324   19.221164   20.124814 C.3        1 MOL1        -0.1383
       6    H4      19.183252   18.292307   19.747422 H          1 MOL1         0.0961
       7    H5      19.134308   20.042784   19.592160 H          1 MOL1         0.0961
       8    C3      19.347675   19.364312   21.639112 C.3        1 MOL1        -0.1407
       9    H6      19.778416   20.309214   21.995748 H          1 MOL1         0.0961
      10    H7      18.260959   19.437507   21.783244 H          1 MOL1         0.0961
      11    C4      19.892833   18.183745   22.479978 C.3        1 MOL1        -0.1407
      12    H8      20.990405   18.177840   22.445355 H          1 MOL1         0.0961
      13    H9      19.564567   17.239109   22.024942 H          1 MOL1         0.0961
      14    C5      19.436768   18.198352   23.961281 C.3        1 MOL1        -0.1472
      15    H10     18.342711   18.124368   24.021520 H          1 MOL1         0.0961
      16    H11     19.820731   17.282464   24.429741 H          1 MOL1         0.0961
      17    C6      19.941840   19.425139   24.759420 C.3        1 MOL1         0.1190
      18    H12     20.802410   19.846110   24.230415 H          1 MOL1         0.0923
      19    C7      18.857299   20.511105   24.883249 C.3        1 MOL1        -0.2463
      20    H13     17.992106   20.142454   25.448367 H          1 MOL1         0.0972
      21    H14     18.501949   20.840673   23.901024 H          1 MOL1         0.0972
      22    H15     19.251357   21.392276   25.404331 H          1 MOL1         0.0972
      23    N1      20.438452   19.038288   26.125657 N.4        1 MOL1        -0.5974
      24    H16     21.195812   18.351143   26.070702 H          1 MOL1         0.3625
      25    H17     20.800201   19.849200   26.635636 H          1 MOL1         0.3625
      26    H18     19.691657   18.629001   26.693501 H          1 MOL1         0.3625
@<TRIPOS>BOND
    1     1     2    1
    2     1     3    1
    3     1     4    1
    4     1     5    1
    5     5     6    1
    6     5     7    1
    7     5     8    1
    8     8     9    1
    9     8    10    1
   10     8    11    1
   11    11    12    1
   12    11    13    1
   13    11    14    1
   14    14    15    1
   15    14    16    1
   16    14    17    1
   17    17    18    1
   18    17    19    1
   19    19    20    1
   20    19    21    1
   21    19    22    1
   22    17    23    1
   23    23    24    1
   24    23    25    1
   25    23    26    1
@<TRIPOS>SUBSTRUCTURE
       1 MOL1            1 RESIDUE      1      MOL     
@<SCITEGIC>MOL_PROPERTY
VM2 Rank
SciTegic.value.IntegerValue
53

@<SCITEGIC>MOL_PROPERTY
Conf_Id
SciTegic.value.IntegerValue
169

@<SCITEGIC>MOL_PROPERTY
Probability
SciTegic.value.DoubleValue
0.03

@<SCITEGIC>MOL_PROPERTY
Sum Probability
SciTegic.value.DoubleValue
99.59

@<SCITEGIC>MOL_PROPERTY
Delta G
SciTegic.value.DoubleValue
3.790

@<SCITEGIC>MOL_PROPERTY
G
SciTegic.value.DoubleValue
27.500

@<SCITEGIC>MOL_PROPERTY
E
SciTegic.value.DoubleValue
-5.331

@<SCITEGIC>MOL_PROPERTY
-TS
SciTegic.value.DoubleValue
32.831

@<SCITEGIC>MOL_PROPERTY
U+W
SciTegic.value.DoubleValue
-26.793

@<SCITEGIC>MOL_PROPERTY
U
SciTegic.value.DoubleValue
27.317

@<SCITEGIC>MOL_PROPERTY
W
SciTegic.value.DoubleValue
-54.110

@<SCITEGIC>MOL_PROPERTY
W(PB)
SciTegic.value.DoubleValue
-56.370

@<SCITEGIC>MOL_PROPERTY
W(SA)
SciTegic.value.DoubleValue
2.261

@<SCITEGIC>MOL_PROPERTY
Valence
SciTegic.value.DoubleValue
6.336

@<SCITEGIC>MOL_PROPERTY
Coulomb
SciTegic.value.DoubleValue
19.872

@<SCITEGIC>MOL_PROPERTY
VdW
SciTegic.value.DoubleValue
1.109

@<SCITEGIC>MOL_PROPERTY
VdW6
SciTegic.value.DoubleValue
-8.501

@<SCITEGIC>MOL_PROPERTY
VdW12
SciTegic.value.DoubleValue
9.610

@<SCITEGIC>MOL_PROPERTY
Bond
SciTegic.value.DoubleValue
0.243

@<SCITEGIC>MOL_PROPERTY
Angle
SciTegic.value.DoubleValue
1.598

@<SCITEGIC>MOL_PROPERTY
Pdih
SciTegic.value.DoubleValue
4.495

@<SCITEGIC>MOL_PROPERTY
Idih
SciTegic.value.DoubleValue
0.000

@<SCITEGIC>MOL_PROPERTY
Tether
SciTegic.value.DoubleValue
0.000

@<TRIPOS>MOLECULE
guest-s13_vm2.mol2 : vm2 ligand conformer 54
          26          25           1
SMALL
USER_CHARGES
 
@<TRIPOS>ATOM
       1    C1      20.026704   18.601013   19.344856 C.3        1 MOL1        -0.2398
       2    H1      19.187150   19.306600   19.355519 H          1 MOL1         0.0972
       3    H2      20.499597   18.668573   18.356547 H          1 MOL1         0.0972
       4    H3      19.624545   17.585550   19.454904 H          1 MOL1         0.0972
       5    C2      21.053315   18.916126   20.456874 C.3        1 MOL1        -0.1383
       6    H4      21.415715   19.947780   20.346477 H          1 MOL1         0.0961
       7    H5      21.929264   18.266950   20.318408 H          1 MOL1         0.0961
       8    C3      20.502012   18.703066   21.887764 C.3        1 MOL1        -0.1407
       9    H6      20.114079   17.679328   21.981340 H          1 MOL1         0.0961
      10    H7      21.346417   18.791569   22.581540 H          1 MOL1         0.0961
      11    C4      19.405496   19.723873   22.283927 C.3        1 MOL1        -0.1407
      12    H8      18.619044   19.727090   21.518854 H          1 MOL1         0.0961
      13    H9      19.832701   20.736150   22.285365 H          1 MOL1         0.0961
      14    C5      18.722980   19.450254   23.650386 C.3        1 MOL1        -0.1472
      15    H10     17.907789   20.178987   23.753101 H          1 MOL1         0.0961
      16    H11     18.241424   18.463515   23.642233 H          1 MOL1         0.0961
      17    C6      19.653685   19.573353   24.880443 C.3        1 MOL1         0.1190
      18    H12     20.342166   20.406910   24.710798 H          1 MOL1         0.0923
      19    C7      18.833237   19.877129   26.145148 C.3        1 MOL1        -0.2463
      20    H13     18.278798   20.817486   26.035123 H          1 MOL1         0.0972
      21    H14     19.489019   19.980574   27.018481 H          1 MOL1         0.0972
      22    H15     18.111742   19.076675   26.351868 H          1 MOL1         0.0972
      23    N1      20.490571   18.343185   25.104603 N.4        1 MOL1        -0.5974
      24    H16     19.905847   17.528142   25.307426 H          1 MOL1         0.3625
      25    H17     21.055952   18.118861   24.282939 H          1 MOL1         0.3625
      26    H18     21.129608   18.464901   25.895406 H          1 MOL1         0.3625
@<TRIPOS>BOND
    1     1     2    1
    2     1     3    1
    3     1     4    1
    4     1     5    1
    5     5     6    1
    6     5     7    1
    7     5     8    1
    8     8     9    1
    9     8    10    1
   10     8    11    1
   11    11    12    1
   12    11    13    1
   13    11    14    1
   14    14    15    1
   15    14    16    1
   16    14    17    1
   17    17    18    1
   18    17    19    1
   19    19    20    1
   20    19    21    1
   21    19    22    1
   22    17    23    1
   23    23    24    1
   24    23    25    1
   25    23    26    1
@<TRIPOS>SUBSTRUCTURE
       1 MOL1            1 RESIDUE      1      MOL     
@<SCITEGIC>MOL_PROPERTY
VM2 Rank
SciTegic.value.IntegerValue
54

@<SCITEGIC>MOL_PROPERTY
Conf_Id
SciTegic.value.IntegerValue
947

@<SCITEGIC>MOL_PROPERTY
Probability
SciTegic.value.DoubleValue
0.03

@<SCITEGIC>MOL_PROPERTY
Sum Probability
SciTegic.value.DoubleValue
99.62

@<SCITEGIC>MOL_PROPERTY
Delta G
SciTegic.value.DoubleValue
3.795

@<SCITEGIC>MOL_PROPERTY
G
SciTegic.value.DoubleValue
27.504

@<SCITEGIC>MOL_PROPERTY
E
SciTegic.value.DoubleValue
-5.078

@<SCITEGIC>MOL_PROPERTY
-TS
SciTegic.value.DoubleValue
32.582

@<SCITEGIC>MOL_PROPERTY
U+W
SciTegic.value.DoubleValue
-26.540

@<SCITEGIC>MOL_PROPERTY
U
SciTegic.value.DoubleValue
27.399

@<SCITEGIC>MOL_PROPERTY
W
SciTegic.value.DoubleValue
-53.939

@<SCITEGIC>MOL_PROPERTY
W(PB)
SciTegic.value.DoubleValue
-56.242

@<SCITEGIC>MOL_PROPERTY
W(SA)
SciTegic.value.DoubleValue
2.303

@<SCITEGIC>MOL_PROPERTY
Valence
SciTegic.value.DoubleValue
5.205

@<SCITEGIC>MOL_PROPERTY
Coulomb
SciTegic.value.DoubleValue
21.096

@<SCITEGIC>MOL_PROPERTY
VdW
SciTegic.value.DoubleValue
1.098

@<SCITEGIC>MOL_PROPERTY
VdW6
SciTegic.value.DoubleValue
-8.389

@<SCITEGIC>MOL_PROPERTY
VdW12
SciTegic.value.DoubleValue
9.487

@<SCITEGIC>MOL_PROPERTY
Bond
SciTegic.value.DoubleValue
0.270

@<SCITEGIC>MOL_PROPERTY
Angle
SciTegic.value.DoubleValue
1.912

@<SCITEGIC>MOL_PROPERTY
Pdih
SciTegic.value.DoubleValue
3.023

@<SCITEGIC>MOL_PROPERTY
Idih
SciTegic.value.DoubleValue
0.000

@<SCITEGIC>MOL_PROPERTY
Tether
SciTegic.value.DoubleValue
0.000

@<TRIPOS>MOLECULE
guest-s13_vm2.mol2 : vm2 ligand conformer 55
          26          25           1
SMALL
USER_CHARGES
 
@<TRIPOS>ATOM
       1    C1      19.885147   20.081067   19.770855 C.3        1 MOL1        -0.2398
       2    H1      20.684268   20.647228   20.264843 H          1 MOL1         0.0972
       3    H2      20.001591   20.223114   18.688640 H          1 MOL1         0.0972
       4    H3      18.921664   20.517382   20.064638 H          1 MOL1         0.0972
       5    C2      19.947166   18.578621   20.128316 C.3        1 MOL1        -0.1383
       6    H4      20.930234   18.172130   19.852480 H          1 MOL1         0.0961
       7    H5      19.209440   18.039676   19.517494 H          1 MOL1         0.0961
       8    C3      19.659885   18.290903   21.621529 C.3        1 MOL1        -0.1407
       9    H6      18.671717   18.688827   21.881361 H          1 MOL1         0.0961
      10    H7      19.594627   17.202613   21.757788 H          1 MOL1         0.0961
      11    C4      20.746852   18.850458   22.575809 C.3        1 MOL1        -0.1407
      12    H8      20.850620   19.937097   22.460000 H          1 MOL1         0.0961
      13    H9      21.713734   18.420437   22.279982 H          1 MOL1         0.0961
      14    C5      20.491801   18.506441   24.067571 C.3        1 MOL1        -0.1472
      15    H10     19.918726   17.573631   24.151922 H          1 MOL1         0.0961
      16    H11     21.464262   18.302281   24.534846 H          1 MOL1         0.0961
      17    C6      19.809456   19.628613   24.886821 C.3        1 MOL1         0.1190
      18    H12     20.436518   20.523414   24.825491 H          1 MOL1         0.0923
      19    C7      18.410175   19.988089   24.359316 C.3        1 MOL1        -0.2463
      20    H13     17.765016   19.102355   24.306679 H          1 MOL1         0.0972
      21    H14     18.469973   20.437094   23.361188 H          1 MOL1         0.0972
      22    H15     17.926726   20.723339   25.014248 H          1 MOL1         0.0972
      23    N1      19.737518   19.263808   26.343783 N.4        1 MOL1        -0.5974
      24    H16     19.159725   18.432381   26.493239 H          1 MOL1         0.3625
      25    H17     20.665287   19.067175   26.730023 H          1 MOL1         0.3625
      26    H18     19.331266   20.021714   26.899598 H          1 MOL1         0.3625
@<TRIPOS>BOND
    1     1     2    1
    2     1     3    1
    3     1     4    1
    4     1     5    1
    5     5     6    1
    6     5     7    1
    7     5     8    1
    8     8     9    1
    9     8    10    1
   10     8    11    1
   11    11    12    1
   12    11    13    1
   13    11    14    1
   14    14    15    1
   15    14    16    1
   16    14    17    1
   17    17    18    1
   18    17    19    1
   19    19    20    1
   20    19    21    1
   21    19    22    1
   22    17    23    1
   23    23    24    1
   24    23    25    1
   25    23    26    1
@<TRIPOS>SUBSTRUCTURE
       1 MOL1            1 RESIDUE      1      MOL     
@<SCITEGIC>MOL_PROPERTY
VM2 Rank
SciTegic.value.IntegerValue
55

@<SCITEGIC>MOL_PROPERTY
Conf_Id
SciTegic.value.IntegerValue
1063

@<SCITEGIC>MOL_PROPERTY
Probability
SciTegic.value.DoubleValue
0.03

@<SCITEGIC>MOL_PROPERTY
Sum Probability
SciTegic.value.DoubleValue
99.65

@<SCITEGIC>MOL_PROPERTY
Delta G
SciTegic.value.DoubleValue
3.823

@<SCITEGIC>MOL_PROPERTY
G
SciTegic.value.DoubleValue
27.532

@<SCITEGIC>MOL_PROPERTY
E
SciTegic.value.DoubleValue
-5.392

@<SCITEGIC>MOL_PROPERTY
-TS
SciTegic.value.DoubleValue
32.924

@<SCITEGIC>MOL_PROPERTY
U+W
SciTegic.value.DoubleValue
-26.854

@<SCITEGIC>MOL_PROPERTY
U
SciTegic.value.DoubleValue
27.193

@<SCITEGIC>MOL_PROPERTY
W
SciTegic.value.DoubleValue
-54.047

@<SCITEGIC>MOL_PROPERTY
W(PB)
SciTegic.value.DoubleValue
-56.289

@<SCITEGIC>MOL_PROPERTY
W(SA)
SciTegic.value.DoubleValue
2.242

@<SCITEGIC>MOL_PROPERTY
Valence
SciTegic.value.DoubleValue
6.324

@<SCITEGIC>MOL_PROPERTY
Coulomb
SciTegic.value.DoubleValue
19.778

@<SCITEGIC>MOL_PROPERTY
VdW
SciTegic.value.DoubleValue
1.091

@<SCITEGIC>MOL_PROPERTY
VdW6
SciTegic.value.DoubleValue
-8.627

@<SCITEGIC>MOL_PROPERTY
VdW12
SciTegic.value.DoubleValue
9.718

@<SCITEGIC>MOL_PROPERTY
Bond
SciTegic.value.DoubleValue
0.275

@<SCITEGIC>MOL_PROPERTY
Angle
SciTegic.value.DoubleValue
1.905

@<SCITEGIC>MOL_PROPERTY
Pdih
SciTegic.value.DoubleValue
4.144

@<SCITEGIC>MOL_PROPERTY
Idih
SciTegic.value.DoubleValue
0.000

@<SCITEGIC>MOL_PROPERTY
Tether
SciTegic.value.DoubleValue
0.000

@<TRIPOS>MOLECULE
guest-s13_vm2.mol2 : vm2 ligand conformer 56
          26          25           1
SMALL
USER_CHARGES
 
@<TRIPOS>ATOM
       1    C1      20.041573   17.661339   20.204765 C.3        1 MOL1        -0.2398
       2    H1      20.234400   17.270064   19.197470 H          1 MOL1         0.0972
       3    H2      20.833188   17.281568   20.862221 H          1 MOL1         0.0972
       4    H3      19.082906   17.250059   20.546512 H          1 MOL1         0.0972
       5    C2      20.008981   19.206534   20.186981 C.3        1 MOL1        -0.1383
       6    H4      19.289204   19.535787   19.424547 H          1 MOL1         0.0961
       7    H5      20.988101   19.594315   19.872844 H          1 MOL1         0.0961
       8    C3      19.609591   19.827782   21.547028 C.3        1 MOL1        -0.1407
       9    H6      19.488602   20.911159   21.410041 H          1 MOL1         0.0961
      10    H7      18.624550   19.446085   21.839858 H          1 MOL1         0.0961
      11    C4      20.652251   19.576507   22.667197 C.3        1 MOL1        -0.1407
      12    H8      21.621382   19.960243   22.319783 H          1 MOL1         0.0961
      13    H9      20.794860   18.501570   22.829712 H          1 MOL1         0.0961
      14    C5      20.302530   20.281113   24.008055 C.3        1 MOL1        -0.1472
      15    H10     21.238502   20.611099   24.477704 H          1 MOL1         0.0961
      16    H11     19.738896   21.202491   23.811158 H          1 MOL1         0.0961
      17    C6      19.538908   19.424718   25.048857 C.3        1 MOL1         0.1190
      18    H12     19.357179   20.064005   25.918383 H          1 MOL1         0.0923
      19    C7      18.172076   18.939767   24.539444 C.3        1 MOL1        -0.2463
      20    H13     18.281766   18.190700   23.746333 H          1 MOL1         0.0972
      21    H14     17.580420   19.777577   24.150349 H          1 MOL1         0.0972
      22    H15     17.600911   18.479994   25.355199 H          1 MOL1         0.0972
      23    N1      20.362089   18.270239   25.551673 N.4        1 MOL1        -0.5974
      24    H16     19.870976   17.753116   26.286375 H          1 MOL1         0.3625
      25    H17     20.574562   17.609130   24.800800 H          1 MOL1         0.3625
      26    H18     21.252884   18.587094   25.944790 H          1 MOL1         0.3625
@<TRIPOS>BOND
    1     1     2    1
    2     1     3    1
    3     1     4    1
    4     1     5    1
    5     5     6    1
    6     5     7    1
    7     5     8    1
    8     8     9    1
    9     8    10    1
   10     8    11    1
   11    11    12    1
   12    11    13    1
   13    11    14    1
   14    14    15    1
   15    14    16    1
   16    14    17    1
   17    17    18    1
   18    17    19    1
   19    19    20    1
   20    19    21    1
   21    19    22    1
   22    17    23    1
   23    23    24    1
   24    23    25    1
   25    23    26    1
@<TRIPOS>SUBSTRUCTURE
       1 MOL1            1 RESIDUE      1      MOL     
@<SCITEGIC>MOL_PROPERTY
VM2 Rank
SciTegic.value.IntegerValue
56

@<SCITEGIC>MOL_PROPERTY
Conf_Id
SciTegic.value.IntegerValue
1080

@<SCITEGIC>MOL_PROPERTY
Probability
SciTegic.value.DoubleValue
0.03

@<SCITEGIC>MOL_PROPERTY
Sum Probability
SciTegic.value.DoubleValue
99.68

@<SCITEGIC>MOL_PROPERTY
Delta G
SciTegic.value.DoubleValue
3.837

@<SCITEGIC>MOL_PROPERTY
G
SciTegic.value.DoubleValue
27.546

@<SCITEGIC>MOL_PROPERTY
E
SciTegic.value.DoubleValue
-5.435

@<SCITEGIC>MOL_PROPERTY
-TS
SciTegic.value.DoubleValue
32.981

@<SCITEGIC>MOL_PROPERTY
U+W
SciTegic.value.DoubleValue
-26.896

@<SCITEGIC>MOL_PROPERTY
U
SciTegic.value.DoubleValue
27.552

@<SCITEGIC>MOL_PROPERTY
W
SciTegic.value.DoubleValue
-54.449

@<SCITEGIC>MOL_PROPERTY
W(PB)
SciTegic.value.DoubleValue
-56.689

@<SCITEGIC>MOL_PROPERTY
W(SA)
SciTegic.value.DoubleValue
2.240

@<SCITEGIC>MOL_PROPERTY
Valence
SciTegic.value.DoubleValue
6.310

@<SCITEGIC>MOL_PROPERTY
Coulomb
SciTegic.value.DoubleValue
20.199

@<SCITEGIC>MOL_PROPERTY
VdW
SciTegic.value.DoubleValue
1.044

@<SCITEGIC>MOL_PROPERTY
VdW6
SciTegic.value.DoubleValue
-9.081

@<SCITEGIC>MOL_PROPERTY
VdW12
SciTegic.value.DoubleValue
10.124

@<SCITEGIC>MOL_PROPERTY
Bond
SciTegic.value.DoubleValue
0.308

@<SCITEGIC>MOL_PROPERTY
Angle
SciTegic.value.DoubleValue
2.043

@<SCITEGIC>MOL_PROPERTY
Pdih
SciTegic.value.DoubleValue
3.959

@<SCITEGIC>MOL_PROPERTY
Idih
SciTegic.value.DoubleValue
0.000

@<SCITEGIC>MOL_PROPERTY
Tether
SciTegic.value.DoubleValue
0.000

@<TRIPOS>MOLECULE
guest-s13_vm2.mol2 : vm2 ligand conformer 57
          26          25           1
SMALL
USER_CHARGES
 
@<TRIPOS>ATOM
       1    C1      21.320212   18.349143   20.539825 C.3        1 MOL1        -0.2398
       2    H1      22.090532   18.286766   19.760341 H          1 MOL1         0.0972
       3    H2      21.795764   18.761964   21.438076 H          1 MOL1         0.0972
       4    H3      20.982190   17.328286   20.759869 H          1 MOL1         0.0972
       5    C2      20.146458   19.235148   20.068360 C.3        1 MOL1        -0.1383
       6    H4      19.803838   18.873905   19.088625 H          1 MOL1         0.0961
       7    H5      20.506890   20.260423   19.905135 H          1 MOL1         0.0961
       8    C3      18.935101   19.258707   21.035333 C.3        1 MOL1        -0.1407
       9    H6      18.152825   19.873992   20.569559 H          1 MOL1         0.0961
      10    H7      18.504316   18.252068   21.126652 H          1 MOL1         0.0961
      11    C4      19.239487   19.844264   22.439002 C.3        1 MOL1        -0.1407
      12    H8      18.358834   20.411422   22.768089 H          1 MOL1         0.0961
      13    H9      20.063290   20.568361   22.373743 H          1 MOL1         0.0961
      14    C5      19.556426   18.758429   23.500639 C.3        1 MOL1        -0.1472
      15    H10     18.668672   18.132134   23.659955 H          1 MOL1         0.0961
      16    H11     20.335262   18.089933   23.117405 H          1 MOL1         0.0961
      17    C6      20.033471   19.333733   24.853844 C.3        1 MOL1         0.1190
      18    H12     20.895444   19.981302   24.665866 H          1 MOL1         0.0923
      19    C7      18.941435   20.166904   25.548735 C.3        1 MOL1        -0.2463
      20    H13     18.029223   19.576914   25.701880 H          1 MOL1         0.0972
      21    H14     18.682445   21.054811   24.960490 H          1 MOL1         0.0972
      22    H15     19.288037   20.517639   26.528615 H          1 MOL1         0.0972
      23    N1      20.515409   18.241673   25.768263 N.4        1 MOL1        -0.5974
      24    H16     20.869455   18.621885   26.650618 H          1 MOL1         0.3625
      25    H17     19.763118   17.587003   25.998420 H          1 MOL1         0.3625
      26    H18     21.274591   17.701280   25.343805 H          1 MOL1         0.3625
@<TRIPOS>BOND
    1     1     2    1
    2     1     3    1
    3     1     4    1
    4     1     5    1
    5     5     6    1
    6     5     7    1
    7     5     8    1
    8     8     9    1
    9     8    10    1
   10     8    11    1
   11    11    12    1
   12    11    13    1
   13    11    14    1
   14    14    15    1
   15    14    16    1
   16    14    17    1
   17    17    18    1
   18    17    19    1
   19    19    20    1
   20    19    21    1
   21    19    22    1
   22    17    23    1
   23    23    24    1
   24    23    25    1
   25    23    26    1
@<TRIPOS>SUBSTRUCTURE
       1 MOL1            1 RESIDUE      1      MOL     
@<SCITEGIC>MOL_PROPERTY
VM2 Rank
SciTegic.value.IntegerValue
57

@<SCITEGIC>MOL_PROPERTY
Conf_Id
SciTegic.value.IntegerValue
532

@<SCITEGIC>MOL_PROPERTY
Probability
SciTegic.value.DoubleValue
0.03

@<SCITEGIC>MOL_PROPERTY
Sum Probability
SciTegic.value.DoubleValue
99.70

@<SCITEGIC>MOL_PROPERTY
Delta G
SciTegic.value.DoubleValue
3.880

@<SCITEGIC>MOL_PROPERTY
G
SciTegic.value.DoubleValue
27.590

@<SCITEGIC>MOL_PROPERTY
E
SciTegic.value.DoubleValue
-5.382

@<SCITEGIC>MOL_PROPERTY
-TS
SciTegic.value.DoubleValue
32.972

@<SCITEGIC>MOL_PROPERTY
U+W
SciTegic.value.DoubleValue
-26.844

@<SCITEGIC>MOL_PROPERTY
U
SciTegic.value.DoubleValue
27.458

@<SCITEGIC>MOL_PROPERTY
W
SciTegic.value.DoubleValue
-54.302

@<SCITEGIC>MOL_PROPERTY
W(PB)
SciTegic.value.DoubleValue
-56.573

@<SCITEGIC>MOL_PROPERTY
W(SA)
SciTegic.value.DoubleValue
2.271

@<SCITEGIC>MOL_PROPERTY
Valence
SciTegic.value.DoubleValue
6.292

@<SCITEGIC>MOL_PROPERTY
Coulomb
SciTegic.value.DoubleValue
20.019

@<SCITEGIC>MOL_PROPERTY
VdW
SciTegic.value.DoubleValue
1.147

@<SCITEGIC>MOL_PROPERTY
VdW6
SciTegic.value.DoubleValue
-8.552

@<SCITEGIC>MOL_PROPERTY
VdW12
SciTegic.value.DoubleValue
9.698

@<SCITEGIC>MOL_PROPERTY
Bond
SciTegic.value.DoubleValue
0.273

@<SCITEGIC>MOL_PROPERTY
Angle
SciTegic.value.DoubleValue
1.838

@<SCITEGIC>MOL_PROPERTY
Pdih
SciTegic.value.DoubleValue
4.181

@<SCITEGIC>MOL_PROPERTY
Idih
SciTegic.value.DoubleValue
0.000

@<SCITEGIC>MOL_PROPERTY
Tether
SciTegic.value.DoubleValue
0.000

@<TRIPOS>MOLECULE
guest-s13_vm2.mol2 : vm2 ligand conformer 58
          26          25           1
SMALL
USER_CHARGES
 
@<TRIPOS>ATOM
       1    C1      19.131062   19.715968   20.196608 C.3        1 MOL1        -0.2398
       2    H1      19.689905   20.659239   20.249076 H          1 MOL1         0.0972
       3    H2      18.555772   19.718095   19.261781 H          1 MOL1         0.0972
       4    H3      18.411162   19.688462   21.023836 H          1 MOL1         0.0972
       5    C2      20.083182   18.500943   20.241070 C.3        1 MOL1        -0.1383
       6    H4      20.670865   18.479496   19.312676 H          1 MOL1         0.0961
       7    H5      19.491333   17.574986   20.247524 H          1 MOL1         0.0961
       8    C3      21.062208   18.499719   21.442959 C.3        1 MOL1        -0.1407
       9    H6      21.709781   17.617939   21.340252 H          1 MOL1         0.0961
      10    H7      21.733358   19.367555   21.383916 H          1 MOL1         0.0961
      11    C4      20.379052   18.438813   22.834192 C.3        1 MOL1        -0.1407
      12    H8      21.004688   17.824395   23.494985 H          1 MOL1         0.0961
      13    H9      19.418875   17.914189   22.747810 H          1 MOL1         0.0961
      14    C5      20.194537   19.837292   23.486394 C.3        1 MOL1        -0.1472
      15    H10     21.178364   20.312413   23.593824 H          1 MOL1         0.0961
      16    H11     19.620685   20.493064   22.822233 H          1 MOL1         0.0961
      17    C6      19.508146   19.823069   24.872653 C.3        1 MOL1         0.1190
      18    H12     19.494453   20.854543   25.238301 H          1 MOL1         0.0923
      19    C7      18.048965   19.341672   24.789154 C.3        1 MOL1        -0.2463
      20    H13     17.985430   18.280454   24.521461 H          1 MOL1         0.0972
      21    H14     17.489921   19.918901   24.042287 H          1 MOL1         0.0972
      22    H15     17.546265   19.473425   25.755118 H          1 MOL1         0.0972
      23    N1      20.280848   19.030526   25.890971 N.4        1 MOL1        -0.5974
      24    H16     20.330670   18.042115   25.632445 H          1 MOL1         0.3625
      25    H17     21.240891   19.374003   25.984548 H          1 MOL1         0.3625
      26    H18     19.845322   19.084365   26.816053 H          1 MOL1         0.3625
@<TRIPOS>BOND
    1     1     2    1
    2     1     3    1
    3     1     4    1
    4     1     5    1
    5     5     6    1
    6     5     7    1
    7     5     8    1
    8     8     9    1
    9     8    10    1
   10     8    11    1
   11    11    12    1
   12    11    13    1
   13    11    14    1
   14    14    15    1
   15    14    16    1
   16    14    17    1
   17    17    18    1
   18    17    19    1
   19    19    20    1
   20    19    21    1
   21    19    22    1
   22    17    23    1
   23    23    24    1
   24    23    25    1
   25    23    26    1
@<TRIPOS>SUBSTRUCTURE
       1 MOL1            1 RESIDUE      1      MOL     
@<SCITEGIC>MOL_PROPERTY
VM2 Rank
SciTegic.value.IntegerValue
58

@<SCITEGIC>MOL_PROPERTY
Conf_Id
SciTegic.value.IntegerValue
570

@<SCITEGIC>MOL_PROPERTY
Probability
SciTegic.value.DoubleValue
0.03

@<SCITEGIC>MOL_PROPERTY
Sum Probability
SciTegic.value.DoubleValue
99.73

@<SCITEGIC>MOL_PROPERTY
Delta G
SciTegic.value.DoubleValue
3.880

@<SCITEGIC>MOL_PROPERTY
G
SciTegic.value.DoubleValue
27.590

@<SCITEGIC>MOL_PROPERTY
E
SciTegic.value.DoubleValue
-5.459

@<SCITEGIC>MOL_PROPERTY
-TS
SciTegic.value.DoubleValue
33.049

@<SCITEGIC>MOL_PROPERTY
U+W
SciTegic.value.DoubleValue
-26.921

@<SCITEGIC>MOL_PROPERTY
U
SciTegic.value.DoubleValue
27.276

@<SCITEGIC>MOL_PROPERTY
W
SciTegic.value.DoubleValue
-54.197

@<SCITEGIC>MOL_PROPERTY
W(PB)
SciTegic.value.DoubleValue
-56.420

@<SCITEGIC>MOL_PROPERTY
W(SA)
SciTegic.value.DoubleValue
2.223

@<SCITEGIC>MOL_PROPERTY
Valence
SciTegic.value.DoubleValue
6.240

@<SCITEGIC>MOL_PROPERTY
Coulomb
SciTegic.value.DoubleValue
19.962

@<SCITEGIC>MOL_PROPERTY
VdW
SciTegic.value.DoubleValue
1.074

@<SCITEGIC>MOL_PROPERTY
VdW6
SciTegic.value.DoubleValue
-9.126

@<SCITEGIC>MOL_PROPERTY
VdW12
SciTegic.value.DoubleValue
10.201

@<SCITEGIC>MOL_PROPERTY
Bond
SciTegic.value.DoubleValue
0.305

@<SCITEGIC>MOL_PROPERTY
Angle
SciTegic.value.DoubleValue
1.933

@<SCITEGIC>MOL_PROPERTY
Pdih
SciTegic.value.DoubleValue
4.002

@<SCITEGIC>MOL_PROPERTY
Idih
SciTegic.value.DoubleValue
0.000

@<SCITEGIC>MOL_PROPERTY
Tether
SciTegic.value.DoubleValue
0.000

@<TRIPOS>MOLECULE
guest-s13_vm2.mol2 : vm2 ligand conformer 59
          26          25           1
SMALL
USER_CHARGES
 
@<TRIPOS>ATOM
       1    C1      19.801019   20.416049   20.748037 C.3        1 MOL1        -0.2398
       2    H1      20.704069   20.987030   20.999809 H          1 MOL1         0.0972
       3    H2      19.378859   20.849861   19.832342 H          1 MOL1         0.0972
       4    H3      19.067889   20.566125   21.546899 H          1 MOL1         0.0972
       5    C2      20.131647   18.921070   20.530443 C.3        1 MOL1        -0.1383
       6    H4      20.784181   18.848075   19.649074 H          1 MOL1         0.0961
       7    H5      19.220186   18.361945   20.277277 H          1 MOL1         0.0961
       8    C3      20.857748   18.254927   21.727983 C.3        1 MOL1        -0.1407
       9    H6      21.517482   17.474064   21.324888 H          1 MOL1         0.0961
      10    H7      21.527656   18.974606   22.216763 H          1 MOL1         0.0961
      11    C4      19.925074   17.572872   22.765447 C.3        1 MOL1        -0.1407
      12    H8      20.546000   17.026046   23.487627 H          1 MOL1         0.0961
      13    H9      19.326535   16.805227   22.255972 H          1 MOL1         0.0961
      14    C5      18.968182   18.517857   23.536576 C.3        1 MOL1        -0.1472
      15    H10     18.220514   18.917024   22.840465 H          1 MOL1         0.0961
      16    H11     18.403640   17.928709   24.271355 H          1 MOL1         0.0961
      17    C6      19.680761   19.682523   24.259411 C.3        1 MOL1         0.1190
      18    H12     20.246711   20.253098   23.517185 H          1 MOL1         0.0923
      19    C7      18.650833   20.623162   24.904385 C.3        1 MOL1        -0.2463
      20    H13     17.963444   21.024942   24.149598 H          1 MOL1         0.0972
      21    H14     19.149588   21.473124   25.386188 H          1 MOL1         0.0972
      22    H15     18.056344   20.100185   25.663948 H          1 MOL1         0.0972
      23    N1      20.672736   19.199539   25.281718 N.4        1 MOL1        -0.5974
      24    H16     21.382880   18.598706   24.854841 H          1 MOL1         0.3625
      25    H17     21.159234   19.980462   25.730888 H          1 MOL1         0.3625
      26    H18     20.214196   18.658679   26.019549 H          1 MOL1         0.3625
@<TRIPOS>BOND
    1     1     2    1
    2     1     3    1
    3     1     4    1
    4     1     5    1
    5     5     6    1
    6     5     7    1
    7     5     8    1
    8     8     9    1
    9     8    10    1
   10     8    11    1
   11    11    12    1
   12    11    13    1
   13    11    14    1
   14    14    15    1
   15    14    16    1
   16    14    17    1
   17    17    18    1
   18    17    19    1
   19    19    20    1
   20    19    21    1
   21    19    22    1
   22    17    23    1
   23    23    24    1
   24    23    25    1
   25    23    26    1
@<TRIPOS>SUBSTRUCTURE
       1 MOL1            1 RESIDUE      1      MOL     
@<SCITEGIC>MOL_PROPERTY
VM2 Rank
SciTegic.value.IntegerValue
59

@<SCITEGIC>MOL_PROPERTY
Conf_Id
SciTegic.value.IntegerValue
1280

@<SCITEGIC>MOL_PROPERTY
Probability
SciTegic.value.DoubleValue
0.02

@<SCITEGIC>MOL_PROPERTY
Sum Probability
SciTegic.value.DoubleValue
99.75

@<SCITEGIC>MOL_PROPERTY
Delta G
SciTegic.value.DoubleValue
3.940

@<SCITEGIC>MOL_PROPERTY
G
SciTegic.value.DoubleValue
27.650

@<SCITEGIC>MOL_PROPERTY
E
SciTegic.value.DoubleValue
-5.738

@<SCITEGIC>MOL_PROPERTY
-TS
SciTegic.value.DoubleValue
33.388

@<SCITEGIC>MOL_PROPERTY
U+W
SciTegic.value.DoubleValue
-27.200

@<SCITEGIC>MOL_PROPERTY
U
SciTegic.value.DoubleValue
26.996

@<SCITEGIC>MOL_PROPERTY
W
SciTegic.value.DoubleValue
-54.196

@<SCITEGIC>MOL_PROPERTY
W(PB)
SciTegic.value.DoubleValue
-56.396

@<SCITEGIC>MOL_PROPERTY
W(SA)
SciTegic.value.DoubleValue
2.199

@<SCITEGIC>MOL_PROPERTY
Valence
SciTegic.value.DoubleValue
6.014

@<SCITEGIC>MOL_PROPERTY
Coulomb
SciTegic.value.DoubleValue
20.608

@<SCITEGIC>MOL_PROPERTY
VdW
SciTegic.value.DoubleValue
0.374

@<SCITEGIC>MOL_PROPERTY
VdW6
SciTegic.value.DoubleValue
-10.069

@<SCITEGIC>MOL_PROPERTY
VdW12
SciTegic.value.DoubleValue
10.443

@<SCITEGIC>MOL_PROPERTY
Bond
SciTegic.value.DoubleValue
0.292

@<SCITEGIC>MOL_PROPERTY
Angle
SciTegic.value.DoubleValue
2.200

@<SCITEGIC>MOL_PROPERTY
Pdih
SciTegic.value.DoubleValue
3.522

@<SCITEGIC>MOL_PROPERTY
Idih
SciTegic.value.DoubleValue
0.000

@<SCITEGIC>MOL_PROPERTY
Tether
SciTegic.value.DoubleValue
0.000

@<TRIPOS>MOLECULE
guest-s13_vm2.mol2 : vm2 ligand conformer 60
          26          25           1
SMALL
USER_CHARGES
 
@<TRIPOS>ATOM
       1    C1      20.624595   19.952074   19.972450 C.3        1 MOL1        -0.2398
       2    H1      20.253682   20.605989   19.172626 H          1 MOL1         0.0972
       3    H2      20.859815   20.584763   20.835142 H          1 MOL1         0.0972
       4    H3      21.560045   19.496538   19.622509 H          1 MOL1         0.0972
       5    C2      19.576352   18.867164   20.313061 C.3        1 MOL1        -0.1383
       6    H4      19.370759   18.296783   19.396378 H          1 MOL1         0.0961
       7    H5      18.623020   19.333171   20.598650 H          1 MOL1         0.0961
       8    C3      20.045100   17.879892   21.412985 C.3        1 MOL1        -0.1407
       9    H6      19.642523   16.886067   21.172804 H          1 MOL1         0.0961
      10    H7      21.137950   17.770041   21.385106 H          1 MOL1         0.0961
      11    C4      19.580227   18.235413   22.848918 C.3        1 MOL1        -0.1407
      12    H8      19.899612   17.425307   23.517235 H          1 MOL1         0.0961
      13    H9      18.482445   18.241623   22.876078 H          1 MOL1         0.0961
      14    C5      20.126531   19.588546   23.376445 C.3        1 MOL1        -0.1472
      15    H10     21.210337   19.633307   23.207713 H          1 MOL1         0.0961
      16    H11     19.688293   20.408446   22.794216 H          1 MOL1         0.0961
      17    C6      19.850437   19.861349   24.874018 C.3        1 MOL1         0.1190
      18    H12     20.280709   20.839434   25.110742 H          1 MOL1         0.0923
      19    C7      18.344050   19.928612   25.180368 C.3        1 MOL1        -0.2463
      20    H13     17.844267   20.650115   24.522178 H          1 MOL1         0.0972
      21    H14     18.176897   20.251314   26.215299 H          1 MOL1         0.0972
      22    H15     17.860512   18.952935   25.051255 H          1 MOL1         0.0972
      23    N1      20.540708   18.874951   25.775755 N.4        1 MOL1        -0.5974
      24    H16     20.399999   19.108332   26.762729 H          1 MOL1         0.3625
      25    H17     20.185495   17.926736   25.631445 H          1 MOL1         0.3625
      26    H18     21.550511   18.855011   25.607451 H          1 MOL1         0.3625
@<TRIPOS>BOND
    1     1     2    1
    2     1     3    1
    3     1     4    1
    4     1     5    1
    5     5     6    1
    6     5     7    1
    7     5     8    1
    8     8     9    1
    9     8    10    1
   10     8    11    1
   11    11    12    1
   12    11    13    1
   13    11    14    1
   14    14    15    1
   15    14    16    1
   16    14    17    1
   17    17    18    1
   18    17    19    1
   19    19    20    1
   20    19    21    1
   21    19    22    1
   22    17    23    1
   23    23    24    1
   24    23    25    1
   25    23    26    1
@<TRIPOS>SUBSTRUCTURE
       1 MOL1            1 RESIDUE      1      MOL     
@<SCITEGIC>MOL_PROPERTY
VM2 Rank
SciTegic.value.IntegerValue
60

@<SCITEGIC>MOL_PROPERTY
Conf_Id
SciTegic.value.IntegerValue
1078

@<SCITEGIC>MOL_PROPERTY
Probability
SciTegic.value.DoubleValue
0.02

@<SCITEGIC>MOL_PROPERTY
Sum Probability
SciTegic.value.DoubleValue
99.77

@<SCITEGIC>MOL_PROPERTY
Delta G
SciTegic.value.DoubleValue
3.955

@<SCITEGIC>MOL_PROPERTY
G
SciTegic.value.DoubleValue
27.665

@<SCITEGIC>MOL_PROPERTY
E
SciTegic.value.DoubleValue
-5.395

@<SCITEGIC>MOL_PROPERTY
-TS
SciTegic.value.DoubleValue
33.060

@<SCITEGIC>MOL_PROPERTY
U+W
SciTegic.value.DoubleValue
-26.857

@<SCITEGIC>MOL_PROPERTY
U
SciTegic.value.DoubleValue
27.312

@<SCITEGIC>MOL_PROPERTY
W
SciTegic.value.DoubleValue
-54.170

@<SCITEGIC>MOL_PROPERTY
W(PB)
SciTegic.value.DoubleValue
-56.414

@<SCITEGIC>MOL_PROPERTY
W(SA)
SciTegic.value.DoubleValue
2.245

@<SCITEGIC>MOL_PROPERTY
Valence
SciTegic.value.DoubleValue
6.229

@<SCITEGIC>MOL_PROPERTY
Coulomb
SciTegic.value.DoubleValue
19.943

@<SCITEGIC>MOL_PROPERTY
VdW
SciTegic.value.DoubleValue
1.140

@<SCITEGIC>MOL_PROPERTY
VdW6
SciTegic.value.DoubleValue
-9.000

@<SCITEGIC>MOL_PROPERTY
VdW12
SciTegic.value.DoubleValue
10.140

@<SCITEGIC>MOL_PROPERTY
Bond
SciTegic.value.DoubleValue
0.294

@<SCITEGIC>MOL_PROPERTY
Angle
SciTegic.value.DoubleValue
1.969

@<SCITEGIC>MOL_PROPERTY
Pdih
SciTegic.value.DoubleValue
3.967

@<SCITEGIC>MOL_PROPERTY
Idih
SciTegic.value.DoubleValue
0.000

@<SCITEGIC>MOL_PROPERTY
Tether
SciTegic.value.DoubleValue
0.000

@<TRIPOS>MOLECULE
guest-s13_vm2.mol2 : vm2 ligand conformer 61
          26          25           1
SMALL
USER_CHARGES
 
@<TRIPOS>ATOM
       1    C1      20.657528   18.894273   19.374511 C.3        1 MOL1        -0.2398
       2    H1      20.717496   19.362636   18.383570 H          1 MOL1         0.0972
       3    H2      21.640413   19.001873   19.849818 H          1 MOL1         0.0972
       4    H3      20.460511   17.824258   19.228679 H          1 MOL1         0.0972
       5    C2      19.543618   19.554638   20.218215 C.3        1 MOL1        -0.1383
       6    H4      18.604881   19.529265   19.647316 H          1 MOL1         0.0961
       7    H5      19.779369   20.616542   20.374755 H          1 MOL1         0.0961
       8    C3      19.313281   18.863493   21.583770 C.3        1 MOL1        -0.1407
       9    H6      18.437639   19.321898   22.058787 H          1 MOL1         0.0961
      10    H7      19.050968   17.809354   21.418868 H          1 MOL1         0.0961
      11    C4      20.537793   18.949398   22.531087 C.3        1 MOL1        -0.1407
      12    H8      20.898927   19.984794   22.600073 H          1 MOL1         0.0961
      13    H9      21.359825   18.369636   22.090782 H          1 MOL1         0.0961
      14    C5      20.256779   18.387406   23.950056 C.3        1 MOL1        -0.1472
      15    H10     19.464115   17.628532   23.909509 H          1 MOL1         0.0961
      16    H11     21.158935   17.859035   24.285742 H          1 MOL1         0.0961
      17    C6      19.920251   19.456993   25.017136 C.3        1 MOL1         0.1190
      18    H12     20.751595   20.167410   25.059753 H          1 MOL1         0.0923
      19    C7      18.636885   20.240671   24.693881 C.3        1 MOL1        -0.2463
      20    H13     17.782824   19.565982   24.556430 H          1 MOL1         0.0972
      21    H14     18.759683   20.838658   23.783432 H          1 MOL1         0.0972
      22    H15     18.393686   20.936588   25.506171 H          1 MOL1         0.0972
      23    N1      19.821866   18.841128   26.385343 N.4        1 MOL1        -0.5974
      24    H16     20.685085   18.354355   26.643231 H          1 MOL1         0.3625
      25    H17     19.646726   19.550132   27.103006 H          1 MOL1         0.3625
      26    H18     19.058644   18.161116   26.435657 H          1 MOL1         0.3625
@<TRIPOS>BOND
    1     1     2    1
    2     1     3    1
    3     1     4    1
    4     1     5    1
    5     5     6    1
    6     5     7    1
    7     5     8    1
    8     8     9    1
    9     8    10    1
   10     8    11    1
   11    11    12    1
   12    11    13    1
   13    11    14    1
   14    14    15    1
   15    14    16    1
   16    14    17    1
   17    17    18    1
   18    17    19    1
   19    19    20    1
   20    19    21    1
   21    19    22    1
   22    17    23    1
   23    23    24    1
   24    23    25    1
   25    23    26    1
@<TRIPOS>SUBSTRUCTURE
       1 MOL1            1 RESIDUE      1      MOL     
@<SCITEGIC>MOL_PROPERTY
VM2 Rank
SciTegic.value.IntegerValue
61

@<SCITEGIC>MOL_PROPERTY
Conf_Id
SciTegic.value.IntegerValue
242

@<SCITEGIC>MOL_PROPERTY
Probability
SciTegic.value.DoubleValue
0.02

@<SCITEGIC>MOL_PROPERTY
Sum Probability
SciTegic.value.DoubleValue
99.79

@<SCITEGIC>MOL_PROPERTY
Delta G
SciTegic.value.DoubleValue
4.005

@<SCITEGIC>MOL_PROPERTY
G
SciTegic.value.DoubleValue
27.715

@<SCITEGIC>MOL_PROPERTY
E
SciTegic.value.DoubleValue
-5.269

@<SCITEGIC>MOL_PROPERTY
-TS
SciTegic.value.DoubleValue
32.984

@<SCITEGIC>MOL_PROPERTY
U+W
SciTegic.value.DoubleValue
-26.731

@<SCITEGIC>MOL_PROPERTY
U
SciTegic.value.DoubleValue
27.221

@<SCITEGIC>MOL_PROPERTY
W
SciTegic.value.DoubleValue
-53.952

@<SCITEGIC>MOL_PROPERTY
W(PB)
SciTegic.value.DoubleValue
-56.214

@<SCITEGIC>MOL_PROPERTY
W(SA)
SciTegic.value.DoubleValue
2.261

@<SCITEGIC>MOL_PROPERTY
Valence
SciTegic.value.DoubleValue
6.368

@<SCITEGIC>MOL_PROPERTY
Coulomb
SciTegic.value.DoubleValue
19.698

@<SCITEGIC>MOL_PROPERTY
VdW
SciTegic.value.DoubleValue
1.155

@<SCITEGIC>MOL_PROPERTY
VdW6
SciTegic.value.DoubleValue
-8.532

@<SCITEGIC>MOL_PROPERTY
VdW12
SciTegic.value.DoubleValue
9.688

@<SCITEGIC>MOL_PROPERTY
Bond
SciTegic.value.DoubleValue
0.272

@<SCITEGIC>MOL_PROPERTY
Angle
SciTegic.value.DoubleValue
1.847

@<SCITEGIC>MOL_PROPERTY
Pdih
SciTegic.value.DoubleValue
4.248

@<SCITEGIC>MOL_PROPERTY
Idih
SciTegic.value.DoubleValue
0.000

@<SCITEGIC>MOL_PROPERTY
Tether
SciTegic.value.DoubleValue
0.000

@<TRIPOS>MOLECULE
guest-s13_vm2.mol2 : vm2 ligand conformer 62
          26          25           1
SMALL
USER_CHARGES
 
@<TRIPOS>ATOM
       1    C1      20.027420   18.589621   19.331522 C.3        1 MOL1        -0.2398
       2    H1      18.935159   18.561822   19.225682 H          1 MOL1         0.0972
       3    H2      20.456355   18.762409   18.335983 H          1 MOL1         0.0972
       4    H3      20.366029   17.602125   19.668094 H          1 MOL1         0.0972
       5    C2      20.463259   19.705468   20.308348 C.3        1 MOL1        -0.1383
       6    H4      20.215148   20.679153   19.863136 H          1 MOL1         0.0961
       7    H5      21.556014   19.690533   20.424260 H          1 MOL1         0.0961
       8    C3      19.787054   19.610180   21.697542 C.3        1 MOL1        -0.1407
       9    H6      20.048757   20.514535   22.261927 H          1 MOL1         0.0961
      10    H7      18.695271   19.620326   21.575115 H          1 MOL1         0.0961
      11    C4      20.213373   18.359869   22.506780 C.3        1 MOL1        -0.1407
      12    H8      21.302621   18.371538   22.650543 H          1 MOL1         0.0961
      13    H9      19.988805   17.454230   21.928994 H          1 MOL1         0.0961
      14    C5      19.515430   18.231263   23.884739 C.3        1 MOL1        -0.1472
      15    H10     18.430243   18.131473   23.748463 H          1 MOL1         0.0961
      16    H11     19.844380   17.284089   24.332381 H          1 MOL1         0.0961
      17    C6      19.834584   19.391931   24.858302 C.3        1 MOL1         0.1190
      18    H12     20.730165   19.905412   24.495179 H          1 MOL1         0.0923
      19    C7      18.678362   20.406185   24.929031 C.3        1 MOL1        -0.2463
      20    H13     18.432126   20.804958   23.938645 H          1 MOL1         0.0972
      21    H14     18.947299   21.254427   25.570456 H          1 MOL1         0.0972
      22    H15     17.772403   19.943924   25.340626 H          1 MOL1         0.0972
      23    N1      20.168518   18.893484   26.237736 N.4        1 MOL1        -0.5974
      24    H16     20.409477   19.665171   26.866199 H          1 MOL1         0.3625
      25    H17     19.379525   18.393794   26.656616 H          1 MOL1         0.3625
      26    H18     20.966990   18.252353   26.223494 H          1 MOL1         0.3625
@<TRIPOS>BOND
    1     1     2    1
    2     1     3    1
    3     1     4    1
    4     1     5    1
    5     5     6    1
    6     5     7    1
    7     5     8    1
    8     8     9    1
    9     8    10    1
   10     8    11    1
   11    11    12    1
   12    11    13    1
   13    11    14    1
   14    14    15    1
   15    14    16    1
   16    14    17    1
   17    17    18    1
   18    17    19    1
   19    19    20    1
   20    19    21    1
   21    19    22    1
   22    17    23    1
   23    23    24    1
   24    23    25    1
   25    23    26    1
@<TRIPOS>SUBSTRUCTURE
       1 MOL1            1 RESIDUE      1      MOL     
@<SCITEGIC>MOL_PROPERTY
VM2 Rank
SciTegic.value.IntegerValue
62

@<SCITEGIC>MOL_PROPERTY
Conf_Id
SciTegic.value.IntegerValue
474

@<SCITEGIC>MOL_PROPERTY
Probability
SciTegic.value.DoubleValue
0.02

@<SCITEGIC>MOL_PROPERTY
Sum Probability
SciTegic.value.DoubleValue
99.81

@<SCITEGIC>MOL_PROPERTY
Delta G
SciTegic.value.DoubleValue
4.009

@<SCITEGIC>MOL_PROPERTY
G
SciTegic.value.DoubleValue
27.719

@<SCITEGIC>MOL_PROPERTY
E
SciTegic.value.DoubleValue
-5.019

@<SCITEGIC>MOL_PROPERTY
-TS
SciTegic.value.DoubleValue
32.738

@<SCITEGIC>MOL_PROPERTY
U+W
SciTegic.value.DoubleValue
-26.481

@<SCITEGIC>MOL_PROPERTY
U
SciTegic.value.DoubleValue
27.496

@<SCITEGIC>MOL_PROPERTY
W
SciTegic.value.DoubleValue
-53.975

@<SCITEGIC>MOL_PROPERTY
W(PB)
SciTegic.value.DoubleValue
-56.265

@<SCITEGIC>MOL_PROPERTY
W(SA)
SciTegic.value.DoubleValue
2.290

@<SCITEGIC>MOL_PROPERTY
Valence
SciTegic.value.DoubleValue
6.471

@<SCITEGIC>MOL_PROPERTY
Coulomb
SciTegic.value.DoubleValue
19.839

@<SCITEGIC>MOL_PROPERTY
VdW
SciTegic.value.DoubleValue
1.185

@<SCITEGIC>MOL_PROPERTY
VdW6
SciTegic.value.DoubleValue
-8.405

@<SCITEGIC>MOL_PROPERTY
VdW12
SciTegic.value.DoubleValue
9.590

@<SCITEGIC>MOL_PROPERTY
Bond
SciTegic.value.DoubleValue
0.248

@<SCITEGIC>MOL_PROPERTY
Angle
SciTegic.value.DoubleValue
1.619

@<SCITEGIC>MOL_PROPERTY
Pdih
SciTegic.value.DoubleValue
4.604

@<SCITEGIC>MOL_PROPERTY
Idih
SciTegic.value.DoubleValue
0.000

@<SCITEGIC>MOL_PROPERTY
Tether
SciTegic.value.DoubleValue
0.000

@<TRIPOS>MOLECULE
guest-s13_vm2.mol2 : vm2 ligand conformer 63
          26          25           1
SMALL
USER_CHARGES
 
@<TRIPOS>ATOM
       1    C1      20.458006   17.685690   20.255294 C.3        1 MOL1        -0.2398
       2    H1      19.572930   17.396098   19.674045 H          1 MOL1         0.0972
       3    H2      21.337744   17.259076   19.756332 H          1 MOL1         0.0972
       4    H3      20.377982   17.220209   21.243855 H          1 MOL1         0.0972
       5    C2      20.579412   19.225006   20.343771 C.3        1 MOL1        -0.1383
       6    H4      20.666949   19.616908   19.320697 H          1 MOL1         0.0961
       7    H5      21.510408   19.506747   20.855068 H          1 MOL1         0.0961
       8    C3      19.361955   19.897889   21.028739 C.3        1 MOL1        -0.1407
       9    H6      19.161727   20.847290   20.512967 H          1 MOL1         0.0961
      10    H7      18.459519   19.288000   20.884227 H          1 MOL1         0.0961
      11    C4      19.553004   20.216964   22.534388 C.3        1 MOL1        -0.1407
      12    H8      18.657694   20.751273   22.875969 H          1 MOL1         0.0961
      13    H9      20.392075   20.916031   22.654915 H          1 MOL1         0.0961
      14    C5      19.791100   18.970877   23.424573 C.3        1 MOL1        -0.1472
      15    H10     18.984188   18.242308   23.270700 H          1 MOL1         0.0961
      16    H11     20.721563   18.487033   23.104452 H          1 MOL1         0.0961
      17    C6      19.921352   19.294976   24.930852 C.3        1 MOL1         0.1190
      18    H12     20.674119   20.080446   25.049423 H          1 MOL1         0.0923
      19    C7      18.596316   19.791628   25.537567 C.3        1 MOL1        -0.2463
      20    H13     17.791140   19.062607   25.382999 H          1 MOL1         0.0972
      21    H14     18.285674   20.745554   25.096852 H          1 MOL1         0.0972
      22    H15     18.703566   19.954991   26.616986 H          1 MOL1         0.0972
      23    N1      20.426855   18.104969   25.698817 N.4        1 MOL1        -0.5974
      24    H16     19.775194   17.317879   25.641133 H          1 MOL1         0.3625
      25    H17     21.331438   17.782592   25.343338 H          1 MOL1         0.3625
      26    H18     20.551560   18.325767   26.690869 H          1 MOL1         0.3625
@<TRIPOS>BOND
    1     1     2    1
    2     1     3    1
    3     1     4    1
    4     1     5    1
    5     5     6    1
    6     5     7    1
    7     5     8    1
    8     8     9    1
    9     8    10    1
   10     8    11    1
   11    11    12    1
   12    11    13    1
   13    11    14    1
   14    14    15    1
   15    14    16    1
   16    14    17    1
   17    17    18    1
   18    17    19    1
   19    19    20    1
   20    19    21    1
   21    19    22    1
   22    17    23    1
   23    23    24    1
   24    23    25    1
   25    23    26    1
@<TRIPOS>SUBSTRUCTURE
       1 MOL1            1 RESIDUE      1      MOL     
@<SCITEGIC>MOL_PROPERTY
VM2 Rank
SciTegic.value.IntegerValue
63

@<SCITEGIC>MOL_PROPERTY
Conf_Id
SciTegic.value.IntegerValue
1318

@<SCITEGIC>MOL_PROPERTY
Probability
SciTegic.value.DoubleValue
0.02

@<SCITEGIC>MOL_PROPERTY
Sum Probability
SciTegic.value.DoubleValue
99.83

@<SCITEGIC>MOL_PROPERTY
Delta G
SciTegic.value.DoubleValue
4.023

@<SCITEGIC>MOL_PROPERTY
G
SciTegic.value.DoubleValue
27.733

@<SCITEGIC>MOL_PROPERTY
E
SciTegic.value.DoubleValue
-5.117

@<SCITEGIC>MOL_PROPERTY
-TS
SciTegic.value.DoubleValue
32.850

@<SCITEGIC>MOL_PROPERTY
U+W
SciTegic.value.DoubleValue
-26.579

@<SCITEGIC>MOL_PROPERTY
U
SciTegic.value.DoubleValue
27.653

@<SCITEGIC>MOL_PROPERTY
W
SciTegic.value.DoubleValue
-54.232

@<SCITEGIC>MOL_PROPERTY
W(PB)
SciTegic.value.DoubleValue
-56.523

@<SCITEGIC>MOL_PROPERTY
W(SA)
SciTegic.value.DoubleValue
2.290

@<SCITEGIC>MOL_PROPERTY
Valence
SciTegic.value.DoubleValue
6.436

@<SCITEGIC>MOL_PROPERTY
Coulomb
SciTegic.value.DoubleValue
19.986

@<SCITEGIC>MOL_PROPERTY
VdW
SciTegic.value.DoubleValue
1.232

@<SCITEGIC>MOL_PROPERTY
VdW6
SciTegic.value.DoubleValue
-8.460

@<SCITEGIC>MOL_PROPERTY
VdW12
SciTegic.value.DoubleValue
9.692

@<SCITEGIC>MOL_PROPERTY
Bond
SciTegic.value.DoubleValue
0.276

@<SCITEGIC>MOL_PROPERTY
Angle
SciTegic.value.DoubleValue
2.011

@<SCITEGIC>MOL_PROPERTY
Pdih
SciTegic.value.DoubleValue
4.149

@<SCITEGIC>MOL_PROPERTY
Idih
SciTegic.value.DoubleValue
0.000

@<SCITEGIC>MOL_PROPERTY
Tether
SciTegic.value.DoubleValue
0.000

@<TRIPOS>MOLECULE
guest-s13_vm2.mol2 : vm2 ligand conformer 64
          26          25           1
SMALL
USER_CHARGES
 
@<TRIPOS>ATOM
       1    C1      19.618350   18.042181   19.542005 C.3        1 MOL1        -0.2398
       2    H1      19.378970   17.068233   19.988459 H          1 MOL1         0.0972
       3    H2      18.675124   18.562961   19.331414 H          1 MOL1         0.0972
       4    H3      20.123001   17.858878   18.584527 H          1 MOL1         0.0972
       5    C2      20.515734   18.877436   20.479679 C.3        1 MOL1        -0.1383
       6    H4      20.766485   19.829109   19.990433 H          1 MOL1         0.0961
       7    H5      21.463794   18.346735   20.645455 H          1 MOL1         0.0961
       8    C3      19.827130   19.151765   21.835003 C.3        1 MOL1        -0.1407
       9    H6      18.884437   19.689635   21.663809 H          1 MOL1         0.0961
      10    H7      19.575173   18.191183   22.299860 H          1 MOL1         0.0961
      11    C4      20.731481   19.974656   22.781935 C.3        1 MOL1        -0.1407
      12    H8      21.102846   20.852071   22.234565 H          1 MOL1         0.0961
      13    H9      21.623916   19.389398   23.041115 H          1 MOL1         0.0961
      14    C5      20.035406   20.487221   24.074935 C.3        1 MOL1        -0.1472
      15    H10     20.768397   21.096937   24.619231 H          1 MOL1         0.0961
      16    H11     19.227179   21.180699   23.807584 H          1 MOL1         0.0961
      17    C6      19.498484   19.423455   25.067660 C.3        1 MOL1         0.1190
      18    H12     19.472016   19.900797   26.052163 H          1 MOL1         0.0923
      19    C7      18.052140   18.995756   24.756245 C.3        1 MOL1        -0.2463
      20    H13     17.668488   18.343783   25.550521 H          1 MOL1         0.0972
      21    H14     17.969717   18.450329   23.811655 H          1 MOL1         0.0972
      22    H15     17.391684   19.869991   24.702534 H          1 MOL1         0.0972
      23    N1      20.409276   18.235530   25.216538 N.4        1 MOL1        -0.5974
      24    H16     20.502216   17.729331   24.332584 H          1 MOL1         0.3625
      25    H17     21.348306   18.519771   25.509566 H          1 MOL1         0.3625
      26    H18     20.055911   17.577063   25.916528 H          1 MOL1         0.3625
@<TRIPOS>BOND
    1     1     2    1
    2     1     3    1
    3     1     4    1
    4     1     5    1
    5     5     6    1
    6     5     7    1
    7     5     8    1
    8     8     9    1
    9     8    10    1
   10     8    11    1
   11    11    12    1
   12    11    13    1
   13    11    14    1
   14    14    15    1
   15    14    16    1
   16    14    17    1
   17    17    18    1
   18    17    19    1
   19    19    20    1
   20    19    21    1
   21    19    22    1
   22    17    23    1
   23    23    24    1
   24    23    25    1
   25    23    26    1
@<TRIPOS>SUBSTRUCTURE
       1 MOL1            1 RESIDUE      1      MOL     
@<SCITEGIC>MOL_PROPERTY
VM2 Rank
SciTegic.value.IntegerValue
64

@<SCITEGIC>MOL_PROPERTY
Conf_Id
SciTegic.value.IntegerValue
856

@<SCITEGIC>MOL_PROPERTY
Probability
SciTegic.value.DoubleValue
0.02

@<SCITEGIC>MOL_PROPERTY
Sum Probability
SciTegic.value.DoubleValue
99.85

@<SCITEGIC>MOL_PROPERTY
Delta G
SciTegic.value.DoubleValue
4.050

@<SCITEGIC>MOL_PROPERTY
G
SciTegic.value.DoubleValue
27.760

@<SCITEGIC>MOL_PROPERTY
E
SciTegic.value.DoubleValue
-5.288

@<SCITEGIC>MOL_PROPERTY
-TS
SciTegic.value.DoubleValue
33.048

@<SCITEGIC>MOL_PROPERTY
U+W
SciTegic.value.DoubleValue
-26.750

@<SCITEGIC>MOL_PROPERTY
U
SciTegic.value.DoubleValue
27.376

@<SCITEGIC>MOL_PROPERTY
W
SciTegic.value.DoubleValue
-54.126

@<SCITEGIC>MOL_PROPERTY
W(PB)
SciTegic.value.DoubleValue
-56.399

@<SCITEGIC>MOL_PROPERTY
W(SA)
SciTegic.value.DoubleValue
2.273

@<SCITEGIC>MOL_PROPERTY
Valence
SciTegic.value.DoubleValue
5.849

@<SCITEGIC>MOL_PROPERTY
Coulomb
SciTegic.value.DoubleValue
20.574

@<SCITEGIC>MOL_PROPERTY
VdW
SciTegic.value.DoubleValue
0.953

@<SCITEGIC>MOL_PROPERTY
VdW6
SciTegic.value.DoubleValue
-8.734

@<SCITEGIC>MOL_PROPERTY
VdW12
SciTegic.value.DoubleValue
9.687

@<SCITEGIC>MOL_PROPERTY
Bond
SciTegic.value.DoubleValue
0.283

@<SCITEGIC>MOL_PROPERTY
Angle
SciTegic.value.DoubleValue
2.366

@<SCITEGIC>MOL_PROPERTY
Pdih
SciTegic.value.DoubleValue
3.200

@<SCITEGIC>MOL_PROPERTY
Idih
SciTegic.value.DoubleValue
0.000

@<SCITEGIC>MOL_PROPERTY
Tether
SciTegic.value.DoubleValue
0.000

@<TRIPOS>MOLECULE
guest-s13_vm2.mol2 : vm2 ligand conformer 65
          26          25           1
SMALL
USER_CHARGES
 
@<TRIPOS>ATOM
       1    C1      20.758859   18.669669   19.561253 C.3        1 MOL1        -0.2398
       2    H1      20.814035   17.979172   18.709733 H          1 MOL1         0.0972
       3    H2      20.697640   19.690464   19.162206 H          1 MOL1         0.0972
       4    H3      21.696292   18.575138   20.123212 H          1 MOL1         0.0972
       5    C2      19.532514   18.343238   20.443454 C.3        1 MOL1        -0.1383
       6    H4      19.633082   17.329275   20.855114 H          1 MOL1         0.0961
       7    H5      18.634517   18.329826   19.810042 H          1 MOL1         0.0961
       8    C3      19.313360   19.355342   21.593816 C.3        1 MOL1        -0.1407
       9    H6      19.186881   20.362583   21.173547 H          1 MOL1         0.0961
      10    H7      18.365731   19.112314   22.088678 H          1 MOL1         0.0961
      11    C4      20.466149   19.367673   22.630594 C.3        1 MOL1        -0.1407
      12    H8      21.375939   19.728306   22.132882 H          1 MOL1         0.0961
      13    H9      20.688123   18.345346   22.962398 H          1 MOL1         0.0961
      14    C5      20.189531   20.292114   23.849260 C.3        1 MOL1        -0.1472
      15    H10     21.134186   20.769251   24.141671 H          1 MOL1         0.0961
      16    H11     19.530148   21.117562   23.550169 H          1 MOL1         0.0961
      17    C6      19.610025   19.600777   25.108573 C.3        1 MOL1         0.1190
      18    H12     19.464782   20.379060   25.864196 H          1 MOL1         0.0923
      19    C7      18.243749   18.943349   24.854903 C.3        1 MOL1        -0.2463
      20    H13     17.542679   19.659997   24.409654 H          1 MOL1         0.0972
      21    H14     17.806244   18.593079   25.797770 H          1 MOL1         0.0972
      22    H15     18.331518   18.078878   24.186063 H          1 MOL1         0.0972
      23    N1      20.573813   18.615838   25.712148 N.4        1 MOL1        -0.5974
      24    H16     21.470278   19.056786   25.936538 H          1 MOL1         0.3625
      25    H17     20.205064   18.215406   26.579357 H          1 MOL1         0.3625
      26    H18     20.763719   17.840528   25.072721 H          1 MOL1         0.3625
@<TRIPOS>BOND
    1     1     2    1
    2     1     3    1
    3     1     4    1
    4     1     5    1
    5     5     6    1
    6     5     7    1
    7     5     8    1
    8     8     9    1
    9     8    10    1
   10     8    11    1
   11    11    12    1
   12    11    13    1
   13    11    14    1
   14    14    15    1
   15    14    16    1
   16    14    17    1
   17    17    18    1
   18    17    19    1
   19    19    20    1
   20    19    21    1
   21    19    22    1
   22    17    23    1
   23    23    24    1
   24    23    25    1
   25    23    26    1
@<TRIPOS>SUBSTRUCTURE
       1 MOL1            1 RESIDUE      1      MOL     
@<SCITEGIC>MOL_PROPERTY
VM2 Rank
SciTegic.value.IntegerValue
65

@<SCITEGIC>MOL_PROPERTY
Conf_Id
SciTegic.value.IntegerValue
428

@<SCITEGIC>MOL_PROPERTY
Probability
SciTegic.value.DoubleValue
0.02

@<SCITEGIC>MOL_PROPERTY
Sum Probability
SciTegic.value.DoubleValue
99.87

@<SCITEGIC>MOL_PROPERTY
Delta G
SciTegic.value.DoubleValue
4.052

@<SCITEGIC>MOL_PROPERTY
G
SciTegic.value.DoubleValue
27.762

@<SCITEGIC>MOL_PROPERTY
E
SciTegic.value.DoubleValue
-5.292

@<SCITEGIC>MOL_PROPERTY
-TS
SciTegic.value.DoubleValue
33.054

@<SCITEGIC>MOL_PROPERTY
U+W
SciTegic.value.DoubleValue
-26.754

@<SCITEGIC>MOL_PROPERTY
U
SciTegic.value.DoubleValue
27.509

@<SCITEGIC>MOL_PROPERTY
W
SciTegic.value.DoubleValue
-54.263

@<SCITEGIC>MOL_PROPERTY
W(PB)
SciTegic.value.DoubleValue
-56.496

@<SCITEGIC>MOL_PROPERTY
W(SA)
SciTegic.value.DoubleValue
2.232

@<SCITEGIC>MOL_PROPERTY
Valence
SciTegic.value.DoubleValue
6.375

@<SCITEGIC>MOL_PROPERTY
Coulomb
SciTegic.value.DoubleValue
20.014

@<SCITEGIC>MOL_PROPERTY
VdW
SciTegic.value.DoubleValue
1.120

@<SCITEGIC>MOL_PROPERTY
VdW6
SciTegic.value.DoubleValue
-8.976

@<SCITEGIC>MOL_PROPERTY
VdW12
SciTegic.value.DoubleValue
10.096

@<SCITEGIC>MOL_PROPERTY
Bond
SciTegic.value.DoubleValue
0.304

@<SCITEGIC>MOL_PROPERTY
Angle
SciTegic.value.DoubleValue
1.985

@<SCITEGIC>MOL_PROPERTY
Pdih
SciTegic.value.DoubleValue
4.086

@<SCITEGIC>MOL_PROPERTY
Idih
SciTegic.value.DoubleValue
0.000

@<SCITEGIC>MOL_PROPERTY
Tether
SciTegic.value.DoubleValue
0.000

@<TRIPOS>MOLECULE
guest-s13_vm2.mol2 : vm2 ligand conformer 66
          26          25           1
SMALL
USER_CHARGES
 
@<TRIPOS>ATOM
       1    C1      20.643187   19.924222   19.961674 C.3        1 MOL1        -0.2398
       2    H1      20.666775   20.649925   20.781982 H          1 MOL1         0.0972
       3    H2      21.566456   20.048369   19.381108 H          1 MOL1         0.0972
       4    H3      19.801123   20.182847   19.306619 H          1 MOL1         0.0972
       5    C2      20.517360   18.470060   20.473024 C.3        1 MOL1        -0.1383
       6    H4      21.400934   18.195356   21.065784 H          1 MOL1         0.0961
       7    H5      20.520955   17.803059   19.599522 H          1 MOL1         0.0961
       8    C3      19.221469   18.213567   21.284838 C.3        1 MOL1        -0.1407
       9    H6      18.421417   18.886569   20.946938 H          1 MOL1         0.0961
      10    H7      18.869766   17.198391   21.054239 H          1 MOL1         0.0961
      11    C4      19.385752   18.311043   22.823713 C.3        1 MOL1        -0.1407
      12    H8      20.112186   17.556807   23.154171 H          1 MOL1         0.0961
      13    H9      18.426412   18.034606   23.279110 H          1 MOL1         0.0961
      14    C5      19.818349   19.713531   23.328240 C.3        1 MOL1        -0.1472
      15    H10     20.821272   19.939780   22.946807 H          1 MOL1         0.0961
      16    H11     19.148701   20.475874   22.908873 H          1 MOL1         0.0961
      17    C6      19.853190   19.870894   24.867055 C.3        1 MOL1         0.1190
      18    H12     20.245472   20.869910   25.081311 H          1 MOL1         0.0923
      19    C7      18.449957   19.782364   25.492694 C.3        1 MOL1        -0.2463
      20    H13     18.029202   18.773542   25.409388 H          1 MOL1         0.0972
      21    H14     17.760945   20.484008   25.006401 H          1 MOL1         0.0972
      22    H15     18.489154   20.040507   26.558054 H          1 MOL1         0.0972
      23    N1      20.798735   18.902318   25.522761 N.4        1 MOL1        -0.5974
      24    H16     20.496962   17.935344   25.380498 H          1 MOL1         0.3625
      25    H17     21.746554   18.988740   25.145242 H          1 MOL1         0.3625
      26    H18     20.856042   19.060822   26.532693 H          1 MOL1         0.3625
@<TRIPOS>BOND
    1     1     2    1
    2     1     3    1
    3     1     4    1
    4     1     5    1
    5     5     6    1
    6     5     7    1
    7     5     8    1
    8     8     9    1
    9     8    10    1
   10     8    11    1
   11    11    12    1
   12    11    13    1
   13    11    14    1
   14    14    15    1
   15    14    16    1
   16    14    17    1
   17    17    18    1
   18    17    19    1
   19    19    20    1
   20    19    21    1
   21    19    22    1
   22    17    23    1
   23    23    24    1
   24    23    25    1
   25    23    26    1
@<TRIPOS>SUBSTRUCTURE
       1 MOL1            1 RESIDUE      1      MOL     
@<SCITEGIC>MOL_PROPERTY
VM2 Rank
SciTegic.value.IntegerValue
66

@<SCITEGIC>MOL_PROPERTY
Conf_Id
SciTegic.value.IntegerValue
476

@<SCITEGIC>MOL_PROPERTY
Probability
SciTegic.value.DoubleValue
0.02

@<SCITEGIC>MOL_PROPERTY
Sum Probability
SciTegic.value.DoubleValue
99.89

@<SCITEGIC>MOL_PROPERTY
Delta G
SciTegic.value.DoubleValue
4.063

@<SCITEGIC>MOL_PROPERTY
G
SciTegic.value.DoubleValue
27.773

@<SCITEGIC>MOL_PROPERTY
E
SciTegic.value.DoubleValue
-5.249

@<SCITEGIC>MOL_PROPERTY
-TS
SciTegic.value.DoubleValue
33.022

@<SCITEGIC>MOL_PROPERTY
U+W
SciTegic.value.DoubleValue
-26.711

@<SCITEGIC>MOL_PROPERTY
U
SciTegic.value.DoubleValue
27.573

@<SCITEGIC>MOL_PROPERTY
W
SciTegic.value.DoubleValue
-54.284

@<SCITEGIC>MOL_PROPERTY
W(PB)
SciTegic.value.DoubleValue
-56.537

@<SCITEGIC>MOL_PROPERTY
W(SA)
SciTegic.value.DoubleValue
2.253

@<SCITEGIC>MOL_PROPERTY
Valence
SciTegic.value.DoubleValue
6.363

@<SCITEGIC>MOL_PROPERTY
Coulomb
SciTegic.value.DoubleValue
20.026

@<SCITEGIC>MOL_PROPERTY
VdW
SciTegic.value.DoubleValue
1.184

@<SCITEGIC>MOL_PROPERTY
VdW6
SciTegic.value.DoubleValue
-8.939

@<SCITEGIC>MOL_PROPERTY
VdW12
SciTegic.value.DoubleValue
10.123

@<SCITEGIC>MOL_PROPERTY
Bond
SciTegic.value.DoubleValue
0.298

@<SCITEGIC>MOL_PROPERTY
Angle
SciTegic.value.DoubleValue
2.018

@<SCITEGIC>MOL_PROPERTY
Pdih
SciTegic.value.DoubleValue
4.047

@<SCITEGIC>MOL_PROPERTY
Idih
SciTegic.value.DoubleValue
0.000

@<SCITEGIC>MOL_PROPERTY
Tether
SciTegic.value.DoubleValue
0.000

@<TRIPOS>MOLECULE
guest-s13_vm2.mol2 : vm2 ligand conformer 67
          26          25           1
SMALL
USER_CHARGES
 
@<TRIPOS>ATOM
       1    C1      20.439786   19.035536   19.480630 C.3        1 MOL1        -0.2398
       2    H1      20.241697   18.610551   18.488120 H          1 MOL1         0.0972
       3    H2      19.981749   20.031694   19.508224 H          1 MOL1         0.0972
       4    H3      21.526308   19.152946   19.583992 H          1 MOL1         0.0972
       5    C2      19.872422   18.114669   20.585020 C.3        1 MOL1        -0.1383
       6    H4      20.263965   17.099538   20.429931 H          1 MOL1         0.0961
       7    H5      18.780683   18.041298   20.482497 H          1 MOL1         0.0961
       8    C3      20.235747   18.570481   22.019153 C.3        1 MOL1        -0.1407
       9    H6      19.924995   17.775048   22.706335 H          1 MOL1         0.0961
      10    H7      21.326913   18.662648   22.108575 H          1 MOL1         0.0961
      11    C4      19.557368   19.900589   22.433637 C.3        1 MOL1        -0.1407
      12    H8      18.465973   19.783152   22.404139 H          1 MOL1         0.0961
      13    H9      19.792436   20.671485   21.689139 H          1 MOL1         0.0961
      14    C5      19.997821   20.450488   23.820002 C.3        1 MOL1        -0.1472
      15    H10     21.071771   20.676978   23.795379 H          1 MOL1         0.0961
      16    H11     19.500724   21.418517   23.966127 H          1 MOL1         0.0961
      17    C6      19.695483   19.580573   25.067105 C.3        1 MOL1         0.1190
      18    H12     19.854312   20.219338   25.941475 H          1 MOL1         0.0923
      19    C7      18.234198   19.100743   25.110967 C.3        1 MOL1        -0.2463
      20    H13     17.544192   19.946787   25.003127 H          1 MOL1         0.0972
      21    H14     18.017983   18.615117   26.070387 H          1 MOL1         0.0972
      22    H15     18.020695   18.378615   24.313900 H          1 MOL1         0.0972
      23    N1      20.655176   18.434921   25.237485 N.4        1 MOL1        -0.5974
      24    H16     20.469203   17.917714   26.101453 H          1 MOL1         0.3625
      25    H17     20.587800   17.773281   24.461801 H          1 MOL1         0.3625
      26    H18     21.624535   18.761924   25.280909 H          1 MOL1         0.3625
@<TRIPOS>BOND
    1     1     2    1
    2     1     3    1
    3     1     4    1
    4     1     5    1
    5     5     6    1
    6     5     7    1
    7     5     8    1
    8     8     9    1
    9     8    10    1
   10     8    11    1
   11    11    12    1
   12    11    13    1
   13    11    14    1
   14    14    15    1
   15    14    16    1
   16    14    17    1
   17    17    18    1
   18    17    19    1
   19    19    20    1
   20    19    21    1
   21    19    22    1
   22    17    23    1
   23    23    24    1
   24    23    25    1
   25    23    26    1
@<TRIPOS>SUBSTRUCTURE
       1 MOL1            1 RESIDUE      1      MOL     
@<SCITEGIC>MOL_PROPERTY
VM2 Rank
SciTegic.value.IntegerValue
67

@<SCITEGIC>MOL_PROPERTY
Conf_Id
SciTegic.value.IntegerValue
545

@<SCITEGIC>MOL_PROPERTY
Probability
SciTegic.value.DoubleValue
0.02

@<SCITEGIC>MOL_PROPERTY
Sum Probability
SciTegic.value.DoubleValue
99.91

@<SCITEGIC>MOL_PROPERTY
Delta G
SciTegic.value.DoubleValue
4.161

@<SCITEGIC>MOL_PROPERTY
G
SciTegic.value.DoubleValue
27.870

@<SCITEGIC>MOL_PROPERTY
E
SciTegic.value.DoubleValue
-5.300

@<SCITEGIC>MOL_PROPERTY
-TS
SciTegic.value.DoubleValue
33.170

@<SCITEGIC>MOL_PROPERTY
U+W
SciTegic.value.DoubleValue
-26.761

@<SCITEGIC>MOL_PROPERTY
U
SciTegic.value.DoubleValue
27.482

@<SCITEGIC>MOL_PROPERTY
W
SciTegic.value.DoubleValue
-54.244

@<SCITEGIC>MOL_PROPERTY
W(PB)
SciTegic.value.DoubleValue
-56.495

@<SCITEGIC>MOL_PROPERTY
W(SA)
SciTegic.value.DoubleValue
2.251

@<SCITEGIC>MOL_PROPERTY
Valence
SciTegic.value.DoubleValue
5.284

@<SCITEGIC>MOL_PROPERTY
Coulomb
SciTegic.value.DoubleValue
21.247

@<SCITEGIC>MOL_PROPERTY
VdW
SciTegic.value.DoubleValue
0.951

@<SCITEGIC>MOL_PROPERTY
VdW6
SciTegic.value.DoubleValue
-9.416

@<SCITEGIC>MOL_PROPERTY
VdW12
SciTegic.value.DoubleValue
10.366

@<SCITEGIC>MOL_PROPERTY
Bond
SciTegic.value.DoubleValue
0.323

@<SCITEGIC>MOL_PROPERTY
Angle
SciTegic.value.DoubleValue
2.522

@<SCITEGIC>MOL_PROPERTY
Pdih
SciTegic.value.DoubleValue
2.439

@<SCITEGIC>MOL_PROPERTY
Idih
SciTegic.value.DoubleValue
0.000

@<SCITEGIC>MOL_PROPERTY
Tether
SciTegic.value.DoubleValue
0.000

@<TRIPOS>MOLECULE
guest-s13_vm2.mol2 : vm2 ligand conformer 68
          26          25           1
SMALL
USER_CHARGES
 
@<TRIPOS>ATOM
       1    C1      21.543600   19.283003   21.033078 C.3        1 MOL1        -0.2398
       2    H1      22.224386   20.114767   20.810452 H          1 MOL1         0.0972
       3    H2      21.772465   18.930154   22.044834 H          1 MOL1         0.0972
       4    H3      21.766610   18.470272   20.329724 H          1 MOL1         0.0972
       5    C2      20.072414   19.738273   20.902551 C.3        1 MOL1        -0.1383
       6    H4      19.925467   20.157008   19.897173 H          1 MOL1         0.0961
       7    H5      19.864484   20.561971   21.597098 H          1 MOL1         0.0961
       8    C3      19.052426   18.590996   21.106649 C.3        1 MOL1        -0.1407
       9    H6      18.042031   18.982909   20.925867 H          1 MOL1         0.0961
      10    H7      19.219152   17.832943   20.328957 H          1 MOL1         0.0961
      11    C4      19.077224   17.889205   22.491481 C.3        1 MOL1        -0.1407
      12    H8      20.041461   17.391895   22.653266 H          1 MOL1         0.0961
      13    H9      18.337686   17.077369   22.456028 H          1 MOL1         0.0961
      14    C5      18.712503   18.807095   23.690084 C.3        1 MOL1        -0.1472
      15    H10     17.928722   19.509939   23.377879 H          1 MOL1         0.0961
      16    H11     18.265618   18.193160   24.483353 H          1 MOL1         0.0961
      17    C6      19.905239   19.584493   24.291978 C.3        1 MOL1         0.1190
      18    H12     20.422321   20.115520   23.489529 H          1 MOL1         0.0923
      19    C7      19.406747   20.623218   25.309098 C.3        1 MOL1        -0.2463
      20    H13     18.879954   20.142040   26.142686 H          1 MOL1         0.0972
      21    H14     18.718656   21.334003   24.834724 H          1 MOL1         0.0972
      22    H15     20.245804   21.197588   25.720743 H          1 MOL1         0.0972
      23    N1      20.917847   18.671716   24.929080 N.4        1 MOL1        -0.5974
      24    H16     21.715406   19.197057   25.298368 H          1 MOL1         0.3625
      25    H17     20.509096   18.149570   25.708627 H          1 MOL1         0.3625
      26    H18     21.281737   17.989260   24.259345 H          1 MOL1         0.3625
@<TRIPOS>BOND
    1     1     2    1
    2     1     3    1
    3     1     4    1
    4     1     5    1
    5     5     6    1
    6     5     7    1
    7     5     8    1
    8     8     9    1
    9     8    10    1
   10     8    11    1
   11    11    12    1
   12    11    13    1
   13    11    14    1
   14    14    15    1
   15    14    16    1
   16    14    17    1
   17    17    18    1
   18    17    19    1
   19    19    20    1
   20    19    21    1
   21    19    22    1
   22    17    23    1
   23    23    24    1
   24    23    25    1
   25    23    26    1
@<TRIPOS>SUBSTRUCTURE
       1 MOL1            1 RESIDUE      1      MOL     
@<SCITEGIC>MOL_PROPERTY
VM2 Rank
SciTegic.value.IntegerValue
68

@<SCITEGIC>MOL_PROPERTY
Conf_Id
SciTegic.value.IntegerValue
830

@<SCITEGIC>MOL_PROPERTY
Probability
SciTegic.value.DoubleValue
0.01

@<SCITEGIC>MOL_PROPERTY
Sum Probability
SciTegic.value.DoubleValue
99.92

@<SCITEGIC>MOL_PROPERTY
Delta G
SciTegic.value.DoubleValue
4.247

@<SCITEGIC>MOL_PROPERTY
G
SciTegic.value.DoubleValue
27.956

@<SCITEGIC>MOL_PROPERTY
E
SciTegic.value.DoubleValue
-5.587

@<SCITEGIC>MOL_PROPERTY
-TS
SciTegic.value.DoubleValue
33.543

@<SCITEGIC>MOL_PROPERTY
U+W
SciTegic.value.DoubleValue
-27.049

@<SCITEGIC>MOL_PROPERTY
U
SciTegic.value.DoubleValue
27.275

@<SCITEGIC>MOL_PROPERTY
W
SciTegic.value.DoubleValue
-54.323

@<SCITEGIC>MOL_PROPERTY
W(PB)
SciTegic.value.DoubleValue
-56.529

@<SCITEGIC>MOL_PROPERTY
W(SA)
SciTegic.value.DoubleValue
2.205

@<SCITEGIC>MOL_PROPERTY
Valence
SciTegic.value.DoubleValue
5.855

@<SCITEGIC>MOL_PROPERTY
Coulomb
SciTegic.value.DoubleValue
21.052

@<SCITEGIC>MOL_PROPERTY
VdW
SciTegic.value.DoubleValue
0.369

@<SCITEGIC>MOL_PROPERTY
VdW6
SciTegic.value.DoubleValue
-9.999

@<SCITEGIC>MOL_PROPERTY
VdW12
SciTegic.value.DoubleValue
10.368

@<SCITEGIC>MOL_PROPERTY
Bond
SciTegic.value.DoubleValue
0.292

@<SCITEGIC>MOL_PROPERTY
Angle
SciTegic.value.DoubleValue
2.257

@<SCITEGIC>MOL_PROPERTY
Pdih
SciTegic.value.DoubleValue
3.306

@<SCITEGIC>MOL_PROPERTY
Idih
SciTegic.value.DoubleValue
0.000

@<SCITEGIC>MOL_PROPERTY
Tether
SciTegic.value.DoubleValue
0.000

@<TRIPOS>MOLECULE
guest-s13_vm2.mol2 : vm2 ligand conformer 69
          26          25           1
SMALL
USER_CHARGES
 
@<TRIPOS>ATOM
       1    C1      21.456265   19.095293   20.565744 C.3        1 MOL1        -0.2398
       2    H1      21.808682   18.818290   21.566762 H          1 MOL1         0.0972
       3    H2      22.206072   18.743466   19.845417 H          1 MOL1         0.0972
       4    H3      21.414708   20.190124   20.499105 H          1 MOL1         0.0972
       5    C2      20.079276   18.465978   20.261428 C.3        1 MOL1        -0.1383
       6    H4      20.140647   17.376250   20.389629 H          1 MOL1         0.0961
       7    H5      19.841494   18.634320   19.201775 H          1 MOL1         0.0961
       8    C3      18.916992   19.025302   21.121175 C.3        1 MOL1        -0.1407
       9    H6      18.780551   20.096945   20.920921 H          1 MOL1         0.0961
      10    H7      17.991527   18.540706   20.780398 H          1 MOL1         0.0961
      11    C4      19.061100   18.775224   22.645076 C.3        1 MOL1        -0.1407
      12    H8      19.643208   17.860380   22.816091 H          1 MOL1         0.0961
      13    H9      18.060271   18.581131   23.052811 H          1 MOL1         0.0961
      14    C5      19.681146   19.979510   23.406470 C.3        1 MOL1        -0.1472
      15    H10     20.631165   20.268996   22.944044 H          1 MOL1         0.0961
      16    H11     19.021634   20.850490   23.296928 H          1 MOL1         0.0961
      17    C6      19.931568   19.735895   24.913442 C.3        1 MOL1         0.1190
      18    H12     20.373874   20.650151   25.321268 H          1 MOL1         0.0923
      19    C7      18.626155   19.467891   25.682657 C.3        1 MOL1        -0.2463
      20    H13     18.817187   19.435067   26.762281 H          1 MOL1         0.0972
      21    H14     18.174072   18.511641   25.393674 H          1 MOL1         0.0972
      22    H15     17.894565   20.264404   25.498576 H          1 MOL1         0.0972
      23    N1      20.935499   18.642908   25.158006 N.4        1 MOL1        -0.5974
      24    H16     21.133988   18.534458   26.156641 H          1 MOL1         0.3625
      25    H17     20.595159   17.742039   24.813333 H          1 MOL1         0.3625
      26    H18     21.824472   18.837627   24.688968 H          1 MOL1         0.3625
@<TRIPOS>BOND
    1     1     2    1
    2     1     3    1
    3     1     4    1
    4     1     5    1
    5     5     6    1
    6     5     7    1
    7     5     8    1
    8     8     9    1
    9     8    10    1
   10     8    11    1
   11    11    12    1
   12    11    13    1
   13    11    14    1
   14    14    15    1
   15    14    16    1
   16    14    17    1
   17    17    18    1
   18    17    19    1
   19    19    20    1
   20    19    21    1
   21    19    22    1
   22    17    23    1
   23    23    24    1
   24    23    25    1
   25    23    26    1
@<TRIPOS>SUBSTRUCTURE
       1 MOL1            1 RESIDUE      1      MOL     
@<SCITEGIC>MOL_PROPERTY
VM2 Rank
SciTegic.value.IntegerValue
69

@<SCITEGIC>MOL_PROPERTY
Conf_Id
SciTegic.value.IntegerValue
98

@<SCITEGIC>MOL_PROPERTY
Probability
SciTegic.value.DoubleValue
0.01

@<SCITEGIC>MOL_PROPERTY
Sum Probability
SciTegic.value.DoubleValue
99.93

@<SCITEGIC>MOL_PROPERTY
Delta G
SciTegic.value.DoubleValue
4.262

@<SCITEGIC>MOL_PROPERTY
G
SciTegic.value.DoubleValue
27.972

@<SCITEGIC>MOL_PROPERTY
E
SciTegic.value.DoubleValue
-5.114

@<SCITEGIC>MOL_PROPERTY
-TS
SciTegic.value.DoubleValue
33.086

@<SCITEGIC>MOL_PROPERTY
U+W
SciTegic.value.DoubleValue
-26.576

@<SCITEGIC>MOL_PROPERTY
U
SciTegic.value.DoubleValue
27.751

@<SCITEGIC>MOL_PROPERTY
W
SciTegic.value.DoubleValue
-54.327

@<SCITEGIC>MOL_PROPERTY
W(PB)
SciTegic.value.DoubleValue
-56.572

@<SCITEGIC>MOL_PROPERTY
W(SA)
SciTegic.value.DoubleValue
2.245

@<SCITEGIC>MOL_PROPERTY
Valence
SciTegic.value.DoubleValue
6.249

@<SCITEGIC>MOL_PROPERTY
Coulomb
SciTegic.value.DoubleValue
20.444

@<SCITEGIC>MOL_PROPERTY
VdW
SciTegic.value.DoubleValue
1.057

@<SCITEGIC>MOL_PROPERTY
VdW6
SciTegic.value.DoubleValue
-9.100

@<SCITEGIC>MOL_PROPERTY
VdW12
SciTegic.value.DoubleValue
10.157

@<SCITEGIC>MOL_PROPERTY
Bond
SciTegic.value.DoubleValue
0.302

@<SCITEGIC>MOL_PROPERTY
Angle
SciTegic.value.DoubleValue
1.930

@<SCITEGIC>MOL_PROPERTY
Pdih
SciTegic.value.DoubleValue
4.017

@<SCITEGIC>MOL_PROPERTY
Idih
SciTegic.value.DoubleValue
0.000

@<SCITEGIC>MOL_PROPERTY
Tether
SciTegic.value.DoubleValue
0.000

@<TRIPOS>MOLECULE
guest-s13_vm2.mol2 : vm2 ligand conformer 70
          26          25           1
SMALL
USER_CHARGES
 
@<TRIPOS>ATOM
       1    C1      21.562492   18.856888   21.116060 C.3        1 MOL1        -0.2398
       2    H1      21.980525   19.853996   21.305584 H          1 MOL1         0.0972
       3    H2      21.582990   18.292994   22.053767 H          1 MOL1         0.0972
       4    H3      22.232117   18.344501   20.413227 H          1 MOL1         0.0972
       5    C2      20.137257   18.954835   20.524242 C.3        1 MOL1        -0.1383
       6    H4      19.729447   17.950414   20.344550 H          1 MOL1         0.0961
       7    H5      20.218037   19.428287   19.535682 H          1 MOL1         0.0961
       8    C3      19.152492   19.790736   21.382468 C.3        1 MOL1        -0.1407
       9    H6      19.676748   20.629676   21.859010 H          1 MOL1         0.0961
      10    H7      18.427205   20.254227   20.699425 H          1 MOL1         0.0961
      11    C4      18.339419   18.981098   22.428671 C.3        1 MOL1        -0.1407
      12    H8      17.775419   18.193556   21.910326 H          1 MOL1         0.0961
      13    H9      17.578756   19.640779   22.867020 H          1 MOL1         0.0961
      14    C5      19.163652   18.332333   23.570781 C.3        1 MOL1        -0.1472
      15    H10     18.472863   17.853252   24.277122 H          1 MOL1         0.0961
      16    H11     19.766295   17.517830   23.151368 H          1 MOL1         0.0961
      17    C6      20.083590   19.306383   24.343811 C.3        1 MOL1         0.1190
      18    H12     20.751435   19.791771   23.626107 H          1 MOL1         0.0923
      19    C7      19.282511   20.397332   25.076371 C.3        1 MOL1        -0.2463
      20    H13     18.561486   19.957348   25.776458 H          1 MOL1         0.0972
      21    H14     18.732626   21.029305   24.369331 H          1 MOL1         0.0972
      22    H15     19.952995   21.052972   25.645407 H          1 MOL1         0.0972
      23    N1      20.966585   18.568396   25.311597 N.4        1 MOL1        -0.5974
      24    H16     21.539632   17.863527   24.839418 H          1 MOL1         0.3625
      25    H17     21.604979   19.205663   25.796138 H          1 MOL1         0.3625
      26    H18     20.415601   18.087238   26.027437 H          1 MOL1         0.3625
@<TRIPOS>BOND
    1     1     2    1
    2     1     3    1
    3     1     4    1
    4     1     5    1
    5     5     6    1
    6     5     7    1
    7     5     8    1
    8     8     9    1
    9     8    10    1
   10     8    11    1
   11    11    12    1
   12    11    13    1
   13    11    14    1
   14    14    15    1
   15    14    16    1
   16    14    17    1
   17    17    18    1
   18    17    19    1
   19    19    20    1
   20    19    21    1
   21    19    22    1
   22    17    23    1
   23    23    24    1
   24    23    25    1
   25    23    26    1
@<TRIPOS>SUBSTRUCTURE
       1 MOL1            1 RESIDUE      1      MOL     
@<SCITEGIC>MOL_PROPERTY
VM2 Rank
SciTegic.value.IntegerValue
70

@<SCITEGIC>MOL_PROPERTY
Conf_Id
SciTegic.value.IntegerValue
174

@<SCITEGIC>MOL_PROPERTY
Probability
SciTegic.value.DoubleValue
0.01

@<SCITEGIC>MOL_PROPERTY
Sum Probability
SciTegic.value.DoubleValue
99.94

@<SCITEGIC>MOL_PROPERTY
Delta G
SciTegic.value.DoubleValue
4.473

@<SCITEGIC>MOL_PROPERTY
G
SciTegic.value.DoubleValue
28.183

@<SCITEGIC>MOL_PROPERTY
E
SciTegic.value.DoubleValue
-5.280

@<SCITEGIC>MOL_PROPERTY
-TS
SciTegic.value.DoubleValue
33.463

@<SCITEGIC>MOL_PROPERTY
U+W
SciTegic.value.DoubleValue
-26.742

@<SCITEGIC>MOL_PROPERTY
U
SciTegic.value.DoubleValue
27.819

@<SCITEGIC>MOL_PROPERTY
W
SciTegic.value.DoubleValue
-54.561

@<SCITEGIC>MOL_PROPERTY
W(PB)
SciTegic.value.DoubleValue
-56.769

@<SCITEGIC>MOL_PROPERTY
W(SA)
SciTegic.value.DoubleValue
2.208

@<SCITEGIC>MOL_PROPERTY
Valence
SciTegic.value.DoubleValue
6.496

@<SCITEGIC>MOL_PROPERTY
Coulomb
SciTegic.value.DoubleValue
20.856

@<SCITEGIC>MOL_PROPERTY
VdW
SciTegic.value.DoubleValue
0.467

@<SCITEGIC>MOL_PROPERTY
VdW6
SciTegic.value.DoubleValue
-10.243

@<SCITEGIC>MOL_PROPERTY
VdW12
SciTegic.value.DoubleValue
10.710

@<SCITEGIC>MOL_PROPERTY
Bond
SciTegic.value.DoubleValue
0.303

@<SCITEGIC>MOL_PROPERTY
Angle
SciTegic.value.DoubleValue
2.526

@<SCITEGIC>MOL_PROPERTY
Pdih
SciTegic.value.DoubleValue
3.667

@<SCITEGIC>MOL_PROPERTY
Idih
SciTegic.value.DoubleValue
0.000

@<SCITEGIC>MOL_PROPERTY
Tether
SciTegic.value.DoubleValue
0.000

@<TRIPOS>MOLECULE
guest-s13_vm2.mol2 : vm2 ligand conformer 71
          26          25           1
SMALL
USER_CHARGES
 
@<TRIPOS>ATOM
       1    C1      20.017179   20.205356   20.160926 C.3        1 MOL1        -0.2398
       2    H1      19.134987   20.618737   20.663708 H          1 MOL1         0.0972
       3    H2      20.628899   21.051183   19.821376 H          1 MOL1         0.0972
       4    H3      19.679216   19.658983   19.270846 H          1 MOL1         0.0972
       5    C2      20.836943   19.288072   21.097247 C.3        1 MOL1        -0.1383
       6    H4      21.165728   19.855811   21.974687 H          1 MOL1         0.0961
       7    H5      21.755966   18.992013   20.572386 H          1 MOL1         0.0961
       8    C3      20.079746   18.000966   21.515801 C.3        1 MOL1        -0.1407
       9    H6      19.762102   17.483967   20.599725 H          1 MOL1         0.0961
      10    H7      20.776993   17.312496   22.012641 H          1 MOL1         0.0961
      11    C4      18.832640   18.211178   22.418417 C.3        1 MOL1        -0.1407
      12    H8      18.143374   17.376890   22.228461 H          1 MOL1         0.0961
      13    H9      18.276417   19.109178   22.125583 H          1 MOL1         0.0961
      14    C5      19.127180   18.216822   23.943438 C.3        1 MOL1        -0.1472
      15    H10     18.172819   18.247669   24.485699 H          1 MOL1         0.0961
      16    H11     19.591191   17.257648   24.208312 H          1 MOL1         0.0961
      17    C6      20.029539   19.361306   24.457114 C.3        1 MOL1         0.1190
      18    H12     20.973469   19.330700   23.907169 H          1 MOL1         0.0923
      19    C7      19.379690   20.742199   24.256620 C.3        1 MOL1        -0.2463
      20    H13     20.027195   21.534966   24.650871 H          1 MOL1         0.0972
      21    H14     18.413587   20.803844   24.772757 H          1 MOL1         0.0972
      22    H15     19.213359   20.955823   23.195069 H          1 MOL1         0.0972
      23    N1      20.385084   19.162101   25.904437 N.4        1 MOL1        -0.5974
      24    H16     20.856264   18.265927   26.057575 H          1 MOL1         0.3625
      25    H17     21.013507   19.897473   26.240164 H          1 MOL1         0.3625
      26    H18     19.552727   19.177284   26.499757 H          1 MOL1         0.3625
@<TRIPOS>BOND
    1     1     2    1
    2     1     3    1
    3     1     4    1
    4     1     5    1
    5     5     6    1
    6     5     7    1
    7     5     8    1
    8     8     9    1
    9     8    10    1
   10     8    11    1
   11    11    12    1
   12    11    13    1
   13    11    14    1
   14    14    15    1
   15    14    16    1
   16    14    17    1
   17    17    18    1
   18    17    19    1
   19    19    20    1
   20    19    21    1
   21    19    22    1
   22    17    23    1
   23    23    24    1
   24    23    25    1
   25    23    26    1
@<TRIPOS>SUBSTRUCTURE
       1 MOL1            1 RESIDUE      1      MOL     
@<SCITEGIC>MOL_PROPERTY
VM2 Rank
SciTegic.value.IntegerValue
71

@<SCITEGIC>MOL_PROPERTY
Conf_Id
SciTegic.value.IntegerValue
241

@<SCITEGIC>MOL_PROPERTY
Probability
SciTegic.value.DoubleValue
0.01

@<SCITEGIC>MOL_PROPERTY
Sum Probability
SciTegic.value.DoubleValue
99.95

@<SCITEGIC>MOL_PROPERTY
Delta G
SciTegic.value.DoubleValue
4.508

@<SCITEGIC>MOL_PROPERTY
G
SciTegic.value.DoubleValue
28.217

@<SCITEGIC>MOL_PROPERTY
E
SciTegic.value.DoubleValue
-5.379

@<SCITEGIC>MOL_PROPERTY
-TS
SciTegic.value.DoubleValue
33.596

@<SCITEGIC>MOL_PROPERTY
U+W
SciTegic.value.DoubleValue
-26.841

@<SCITEGIC>MOL_PROPERTY
U
SciTegic.value.DoubleValue
27.574

@<SCITEGIC>MOL_PROPERTY
W
SciTegic.value.DoubleValue
-54.415

@<SCITEGIC>MOL_PROPERTY
W(PB)
SciTegic.value.DoubleValue
-56.626

@<SCITEGIC>MOL_PROPERTY
W(SA)
SciTegic.value.DoubleValue
2.212

@<SCITEGIC>MOL_PROPERTY
Valence
SciTegic.value.DoubleValue
6.650

@<SCITEGIC>MOL_PROPERTY
Coulomb
SciTegic.value.DoubleValue
20.286

@<SCITEGIC>MOL_PROPERTY
VdW
SciTegic.value.DoubleValue
0.638

@<SCITEGIC>MOL_PROPERTY
VdW6
SciTegic.value.DoubleValue
-9.864

@<SCITEGIC>MOL_PROPERTY
VdW12
SciTegic.value.DoubleValue
10.501

@<SCITEGIC>MOL_PROPERTY
Bond
SciTegic.value.DoubleValue
0.322

@<SCITEGIC>MOL_PROPERTY
Angle
SciTegic.value.DoubleValue
2.716

@<SCITEGIC>MOL_PROPERTY
Pdih
SciTegic.value.DoubleValue
3.613

@<SCITEGIC>MOL_PROPERTY
Idih
SciTegic.value.DoubleValue
0.000

@<SCITEGIC>MOL_PROPERTY
Tether
SciTegic.value.DoubleValue
0.000

@<TRIPOS>MOLECULE
guest-s13_vm2.mol2 : vm2 ligand conformer 72
          26          25           1
SMALL
USER_CHARGES
 
@<TRIPOS>ATOM
       1    C1      20.732483   18.411917   19.875473 C.3        1 MOL1        -0.2398
       2    H1      20.774387   17.505990   19.257103 H          1 MOL1         0.0972
       3    H2      20.825145   19.278852   19.208551 H          1 MOL1         0.0972
       4    H3      21.602716   18.395456   20.543449 H          1 MOL1         0.0972
       5    C2      19.409368   18.462457   20.672274 C.3        1 MOL1        -0.1383
       6    H4      19.352888   17.600958   21.350087 H          1 MOL1         0.0961
       7    H5      18.571627   18.342968   19.971125 H          1 MOL1         0.0961
       8    C3      19.205608   19.784505   21.457253 C.3        1 MOL1        -0.1407
       9    H6      19.108749   20.604746   20.732734 H          1 MOL1         0.0961
      10    H7      18.240616   19.737478   21.974470 H          1 MOL1         0.0961
      11    C4      20.335253   20.155076   22.459635 C.3        1 MOL1        -0.1407
      12    H8      20.124125   21.140923   22.896233 H          1 MOL1         0.0961
      13    H9      21.267558   20.289407   21.895522 H          1 MOL1         0.0961
      14    C5      20.591133   19.131635   23.601521 C.3        1 MOL1        -0.1472
      15    H10     20.392332   18.107754   23.265885 H          1 MOL1         0.0961
      16    H11     21.664409   19.159545   23.831288 H          1 MOL1         0.0961
      17    C6      19.834088   19.413823   24.921817 C.3        1 MOL1         0.1190
      18    H12     20.106280   20.417291   25.263236 H          1 MOL1         0.0923
      19    C7      18.305843   19.360946   24.761403 C.3        1 MOL1        -0.2463
      20    H13     17.947421   20.199307   24.153987 H          1 MOL1         0.0972
      21    H14     17.810618   19.438945   25.737078 H          1 MOL1         0.0972
      22    H15     17.986421   18.422983   24.290423 H          1 MOL1         0.0972
      23    N1      20.274223   18.467641   26.004624 N.4        1 MOL1        -0.5974
      24    H16     21.284450   18.519629   26.163716 H          1 MOL1         0.3625
      25    H17     19.815083   18.678818   26.895116 H          1 MOL1         0.3625
      26    H18     20.049445   17.497664   25.767904 H          1 MOL1         0.3625
@<TRIPOS>BOND
    1     1     2    1
    2     1     3    1
    3     1     4    1
    4     1     5    1
    5     5     6    1
    6     5     7    1
    7     5     8    1
    8     8     9    1
    9     8    10    1
   10     8    11    1
   11    11    12    1
   12    11    13    1
   13    11    14    1
   14    14    15    1
   15    14    16    1
   16    14    17    1
   17    17    18    1
   18    17    19    1
   19    19    20    1
   20    19    21    1
   21    19    22    1
   22    17    23    1
   23    23    24    1
   24    23    25    1
   25    23    26    1
@<TRIPOS>SUBSTRUCTURE
       1 MOL1            1 RESIDUE      1      MOL     
@<SCITEGIC>MOL_PROPERTY
VM2 Rank
SciTegic.value.IntegerValue
72

@<SCITEGIC>MOL_PROPERTY
Conf_Id
SciTegic.value.IntegerValue
136

@<SCITEGIC>MOL_PROPERTY
Probability
SciTegic.value.DoubleValue
0.01

@<SCITEGIC>MOL_PROPERTY
Sum Probability
SciTegic.value.DoubleValue
99.96

@<SCITEGIC>MOL_PROPERTY
Delta G
SciTegic.value.DoubleValue
4.615

@<SCITEGIC>MOL_PROPERTY
G
SciTegic.value.DoubleValue
28.325

@<SCITEGIC>MOL_PROPERTY
E
SciTegic.value.DoubleValue
-4.565

@<SCITEGIC>MOL_PROPERTY
-TS
SciTegic.value.DoubleValue
32.890

@<SCITEGIC>MOL_PROPERTY
U+W
SciTegic.value.DoubleValue
-26.026

@<SCITEGIC>MOL_PROPERTY
U
SciTegic.value.DoubleValue
28.262

@<SCITEGIC>MOL_PROPERTY
W
SciTegic.value.DoubleValue
-54.288

@<SCITEGIC>MOL_PROPERTY
W(PB)
SciTegic.value.DoubleValue
-56.488

@<SCITEGIC>MOL_PROPERTY
W(SA)
SciTegic.value.DoubleValue
2.200

@<SCITEGIC>MOL_PROPERTY
Valence
SciTegic.value.DoubleValue
7.096

@<SCITEGIC>MOL_PROPERTY
Coulomb
SciTegic.value.DoubleValue
19.990

@<SCITEGIC>MOL_PROPERTY
VdW
SciTegic.value.DoubleValue
1.175

@<SCITEGIC>MOL_PROPERTY
VdW6
SciTegic.value.DoubleValue
-9.404

@<SCITEGIC>MOL_PROPERTY
VdW12
SciTegic.value.DoubleValue
10.580

@<SCITEGIC>MOL_PROPERTY
Bond
SciTegic.value.DoubleValue
0.360

@<SCITEGIC>MOL_PROPERTY
Angle
SciTegic.value.DoubleValue
2.785

@<SCITEGIC>MOL_PROPERTY
Pdih
SciTegic.value.DoubleValue
3.951

@<SCITEGIC>MOL_PROPERTY
Idih
SciTegic.value.DoubleValue
0.000

@<SCITEGIC>MOL_PROPERTY
Tether
SciTegic.value.DoubleValue
0.000

@<TRIPOS>MOLECULE
guest-s13_vm2.mol2 : vm2 ligand conformer 73
          26          25           1
SMALL
USER_CHARGES
 
@<TRIPOS>ATOM
       1    C1      19.757656   18.235138   19.878780 C.3        1 MOL1        -0.2398
       2    H1      18.943412   17.829644   19.264434 H          1 MOL1         0.0972
       3    H2      20.536855   18.607041   19.200933 H          1 MOL1         0.0972
       4    H3      20.175835   17.405325   20.462016 H          1 MOL1         0.0972
       5    C2      19.233746   19.363315   20.795613 C.3        1 MOL1        -0.1383
       6    H4      18.471543   18.958900   21.473815 H          1 MOL1         0.0961
       7    H5      18.720062   20.111712   20.176236 H          1 MOL1         0.0961
       8    C3      20.354331   20.072773   21.598809 C.3        1 MOL1        -0.1407
       9    H6      21.055892   20.531092   20.888239 H          1 MOL1         0.0961
      10    H7      19.926499   20.910597   22.163678 H          1 MOL1         0.0961
      11    C4      21.158156   19.156729   22.558172 C.3        1 MOL1        -0.1407
      12    H8      21.942083   19.756512   23.040812 H          1 MOL1         0.0961
      13    H9      21.693890   18.402633   21.966649 H          1 MOL1         0.0961
      14    C5      20.335783   18.434567   23.658953 C.3        1 MOL1        -0.1472
      15    H10     19.554210   17.804791   23.215547 H          1 MOL1         0.0961
      16    H11     21.021019   17.735913   24.156868 H          1 MOL1         0.0961
      17    C6      19.737780   19.382355   24.728233 C.3        1 MOL1         0.1190
      18    H12     20.335641   20.298722   24.747005 H          1 MOL1         0.0923
      19    C7      18.273849   19.752014   24.427360 C.3        1 MOL1        -0.2463
      20    H13     18.176047   20.273728   23.470549 H          1 MOL1         0.0972
      21    H14     17.878129   20.419388   25.202792 H          1 MOL1         0.0972
      22    H15     17.638384   18.858283   24.394267 H          1 MOL1         0.0972
      23    N1      19.836699   18.791108   26.108080 N.4        1 MOL1        -0.5974
      24    H16     20.806901   18.580506   26.359232 H          1 MOL1         0.3625
      25    H17     19.471895   19.433475   26.817121 H          1 MOL1         0.3625
      26    H18     19.303309   17.920637   26.181406 H          1 MOL1         0.3625
@<TRIPOS>BOND
    1     1     2    1
    2     1     3    1
    3     1     4    1
    4     1     5    1
    5     5     6    1
    6     5     7    1
    7     5     8    1
    8     8     9    1
    9     8    10    1
   10     8    11    1
   11    11    12    1
   12    11    13    1
   13    11    14    1
   14    14    15    1
   15    14    16    1
   16    14    17    1
   17    17    18    1
   18    17    19    1
   19    19    20    1
   20    19    21    1
   21    19    22    1
   22    17    23    1
   23    23    24    1
   24    23    25    1
   25    23    26    1
@<TRIPOS>SUBSTRUCTURE
       1 MOL1            1 RESIDUE      1      MOL     
@<SCITEGIC>MOL_PROPERTY
VM2 Rank
SciTegic.value.IntegerValue
73

@<SCITEGIC>MOL_PROPERTY
Conf_Id
SciTegic.value.IntegerValue
1098

@<SCITEGIC>MOL_PROPERTY
Probability
SciTegic.value.DoubleValue
0.01

@<SCITEGIC>MOL_PROPERTY
Sum Probability
SciTegic.value.DoubleValue
99.97

@<SCITEGIC>MOL_PROPERTY
Delta G
SciTegic.value.DoubleValue
4.619

@<SCITEGIC>MOL_PROPERTY
G
SciTegic.value.DoubleValue
28.329

@<SCITEGIC>MOL_PROPERTY
E
SciTegic.value.DoubleValue
-5.038

@<SCITEGIC>MOL_PROPERTY
-TS
SciTegic.value.DoubleValue
33.367

@<SCITEGIC>MOL_PROPERTY
U+W
SciTegic.value.DoubleValue
-26.500

@<SCITEGIC>MOL_PROPERTY
U
SciTegic.value.DoubleValue
27.871

@<SCITEGIC>MOL_PROPERTY
W
SciTegic.value.DoubleValue
-54.371

@<SCITEGIC>MOL_PROPERTY
W(PB)
SciTegic.value.DoubleValue
-56.584

@<SCITEGIC>MOL_PROPERTY
W(SA)
SciTegic.value.DoubleValue
2.213

@<SCITEGIC>MOL_PROPERTY
Valence
SciTegic.value.DoubleValue
6.984

@<SCITEGIC>MOL_PROPERTY
Coulomb
SciTegic.value.DoubleValue
20.043

@<SCITEGIC>MOL_PROPERTY
VdW
SciTegic.value.DoubleValue
0.844

@<SCITEGIC>MOL_PROPERTY
VdW6
SciTegic.value.DoubleValue
-9.755

@<SCITEGIC>MOL_PROPERTY
VdW12
SciTegic.value.DoubleValue
10.599

@<SCITEGIC>MOL_PROPERTY
Bond
SciTegic.value.DoubleValue
0.302

@<SCITEGIC>MOL_PROPERTY
Angle
SciTegic.value.DoubleValue
2.441

@<SCITEGIC>MOL_PROPERTY
Pdih
SciTegic.value.DoubleValue
4.240

@<SCITEGIC>MOL_PROPERTY
Idih
SciTegic.value.DoubleValue
0.000

@<SCITEGIC>MOL_PROPERTY
Tether
SciTegic.value.DoubleValue
0.000

@<TRIPOS>MOLECULE
guest-s13_vm2.mol2 : vm2 ligand conformer 74
          26          25           1
SMALL
USER_CHARGES
 
@<TRIPOS>ATOM
       1    C1      20.818701   17.992686   20.080549 C.3        1 MOL1        -0.2398
       2    H1      20.944038   17.782115   19.010561 H          1 MOL1         0.0972
       3    H2      21.756598   18.432257   20.442194 H          1 MOL1         0.0972
       4    H3      20.665840   17.035188   20.595055 H          1 MOL1         0.0972
       5    C2      19.621759   18.943743   20.307735 C.3        1 MOL1        -0.1383
       6    H4      18.730168   18.512419   19.831481 H          1 MOL1         0.0961
       7    H5      19.808455   19.900419   19.800111 H          1 MOL1         0.0961
       8    C3      19.314714   19.195173   21.803539 C.3        1 MOL1        -0.1407
       9    H6      18.399657   19.798926   21.876216 H          1 MOL1         0.0961
      10    H7      19.100313   18.232772   22.283564 H          1 MOL1         0.0961
      11    C4      20.463044   19.917884   22.549569 C.3        1 MOL1        -0.1407
      12    H8      20.789946   20.772460   21.941304 H          1 MOL1         0.0961
      13    H9      21.335856   19.256737   22.624891 H          1 MOL1         0.0961
      14    C5      20.090004   20.457291   23.959787 C.3        1 MOL1        -0.1472
      15    H10     20.965538   20.996801   24.344022 H          1 MOL1         0.0961
      16    H11     19.302455   21.216789   23.867568 H          1 MOL1         0.0961
      17    C6      19.684724   19.417563   25.036899 C.3        1 MOL1         0.1190
      18    H12     19.890243   19.878147   26.008198 H          1 MOL1         0.0923
      19    C7      18.178262   19.098605   25.019818 C.3        1 MOL1        -0.2463
      20    H13     17.913009   18.468609   25.877651 H          1 MOL1         0.0972
      21    H14     17.872206   18.568496   24.113257 H          1 MOL1         0.0972
      22    H15     17.585167   20.018518   25.093038 H          1 MOL1         0.0972
      23    N1      20.516793   18.165055   24.996104 N.4        1 MOL1        -0.5974
      24    H16     20.261445   17.520156   25.749326 H          1 MOL1         0.3625
      25    H17     20.394696   17.671080   24.108701 H          1 MOL1         0.3625
      26    H18     21.513631   18.375878   25.097564 H          1 MOL1         0.3625
@<TRIPOS>BOND
    1     1     2    1
    2     1     3    1
    3     1     4    1
    4     1     5    1
    5     5     6    1
    6     5     7    1
    7     5     8    1
    8     8     9    1
    9     8    10    1
   10     8    11    1
   11    11    12    1
   12    11    13    1
   13    11    14    1
   14    14    15    1
   15    14    16    1
   16    14    17    1
   17    17    18    1
   18    17    19    1
   19    19    20    1
   20    19    21    1
   21    19    22    1
   22    17    23    1
   23    23    24    1
   24    23    25    1
   25    23    26    1
@<TRIPOS>SUBSTRUCTURE
       1 MOL1            1 RESIDUE      1      MOL     
@<SCITEGIC>MOL_PROPERTY
VM2 Rank
SciTegic.value.IntegerValue
74

@<SCITEGIC>MOL_PROPERTY
Conf_Id
SciTegic.value.IntegerValue
506

@<SCITEGIC>MOL_PROPERTY
Probability
SciTegic.value.DoubleValue
0.01

@<SCITEGIC>MOL_PROPERTY
Sum Probability
SciTegic.value.DoubleValue
99.97

@<SCITEGIC>MOL_PROPERTY
Delta G
SciTegic.value.DoubleValue
4.723

@<SCITEGIC>MOL_PROPERTY
G
SciTegic.value.DoubleValue
28.433

@<SCITEGIC>MOL_PROPERTY
E
SciTegic.value.DoubleValue
-4.751

@<SCITEGIC>MOL_PROPERTY
-TS
SciTegic.value.DoubleValue
33.184

@<SCITEGIC>MOL_PROPERTY
U+W
SciTegic.value.DoubleValue
-26.213

@<SCITEGIC>MOL_PROPERTY
U
SciTegic.value.DoubleValue
27.935

@<SCITEGIC>MOL_PROPERTY
W
SciTegic.value.DoubleValue
-54.148

@<SCITEGIC>MOL_PROPERTY
W(PB)
SciTegic.value.DoubleValue
-56.369

@<SCITEGIC>MOL_PROPERTY
W(SA)
SciTegic.value.DoubleValue
2.221

@<SCITEGIC>MOL_PROPERTY
Valence
SciTegic.value.DoubleValue
6.278

@<SCITEGIC>MOL_PROPERTY
Coulomb
SciTegic.value.DoubleValue
20.605

@<SCITEGIC>MOL_PROPERTY
VdW
SciTegic.value.DoubleValue
1.052

@<SCITEGIC>MOL_PROPERTY
VdW6
SciTegic.value.DoubleValue
-9.401

@<SCITEGIC>MOL_PROPERTY
VdW12
SciTegic.value.DoubleValue
10.453

@<SCITEGIC>MOL_PROPERTY
Bond
SciTegic.value.DoubleValue
0.315

@<SCITEGIC>MOL_PROPERTY
Angle
SciTegic.value.DoubleValue
2.523

@<SCITEGIC>MOL_PROPERTY
Pdih
SciTegic.value.DoubleValue
3.440

@<SCITEGIC>MOL_PROPERTY
Idih
SciTegic.value.DoubleValue
0.000

@<SCITEGIC>MOL_PROPERTY
Tether
SciTegic.value.DoubleValue
0.000

@<TRIPOS>MOLECULE
guest-s13_vm2.mol2 : vm2 ligand conformer 75
          26          25           1
SMALL
USER_CHARGES
 
@<TRIPOS>ATOM
       1    C1      19.651987   18.267753   19.964320 C.3        1 MOL1        -0.2398
       2    H1      18.665086   18.628366   20.280026 H          1 MOL1         0.0972
       3    H2      20.022848   18.930402   19.171667 H          1 MOL1         0.0972
       4    H3      19.516063   17.268587   19.530697 H          1 MOL1         0.0972
       5    C2      20.640662   18.213484   21.150584 C.3        1 MOL1        -0.1383
       6    H4      21.575494   17.747148   20.809390 H          1 MOL1         0.0961
       7    H5      20.240481   17.552454   21.929655 H          1 MOL1         0.0961
       8    C3      20.969709   19.610676   21.736176 C.3        1 MOL1        -0.1407
       9    H6      21.735137   19.513572   22.515332 H          1 MOL1         0.0961
      10    H7      21.441865   20.214567   20.948899 H          1 MOL1         0.0961
      11    C4      19.753101   20.400682   22.288904 C.3        1 MOL1        -0.1407
      12    H8      19.099305   20.670337   21.448718 H          1 MOL1         0.0961
      13    H9      20.110955   21.356763   22.695171 H          1 MOL1         0.0961
      14    C5      18.893029   19.689099   23.369525 C.3        1 MOL1        -0.1472
      15    H10     18.017858   20.327322   23.550199 H          1 MOL1         0.0961
      16    H11     18.491078   18.742434   22.987293 H          1 MOL1         0.0961
      17    C6      19.612240   19.459735   24.719963 C.3        1 MOL1         0.1190
      18    H12     20.188656   20.358835   24.958473 H          1 MOL1         0.0923
      19    C7      18.585183   19.235100   25.842054 C.3        1 MOL1        -0.2463
      20    H13     17.919609   20.101526   25.942257 H          1 MOL1         0.0972
      21    H14     19.088150   19.091353   26.806320 H          1 MOL1         0.0972
      22    H15     17.967307   18.350444   25.643144 H          1 MOL1         0.0972
      23    N1      20.582090   18.311469   24.682475 N.4        1 MOL1        -0.5974
      24    H16     20.099169   17.423573   24.523318 H          1 MOL1         0.3625
      25    H17     21.267350   18.429750   23.932707 H          1 MOL1         0.3625
      26    H18     21.096199   18.227074   25.564058 H          1 MOL1         0.3625
@<TRIPOS>BOND
    1     1     2    1
    2     1     3    1
    3     1     4    1
    4     1     5    1
    5     5     6    1
    6     5     7    1
    7     5     8    1
    8     8     9    1
    9     8    10    1
   10     8    11    1
   11    11    12    1
   12    11    13    1
   13    11    14    1
   14    14    15    1
   15    14    16    1
   16    14    17    1
   17    17    18    1
   18    17    19    1
   19    19    20    1
   20    19    21    1
   21    19    22    1
   22    17    23    1
   23    23    24    1
   24    23    25    1
   25    23    26    1
@<TRIPOS>SUBSTRUCTURE
       1 MOL1            1 RESIDUE      1      MOL     
@<SCITEGIC>MOL_PROPERTY
VM2 Rank
SciTegic.value.IntegerValue
75

@<SCITEGIC>MOL_PROPERTY
Conf_Id
SciTegic.value.IntegerValue
667

@<SCITEGIC>MOL_PROPERTY
Probability
SciTegic.value.DoubleValue
0.01

@<SCITEGIC>MOL_PROPERTY
Sum Probability
SciTegic.value.DoubleValue
99.98

@<SCITEGIC>MOL_PROPERTY
Delta G
SciTegic.value.DoubleValue
4.740

@<SCITEGIC>MOL_PROPERTY
G
SciTegic.value.DoubleValue
28.449

@<SCITEGIC>MOL_PROPERTY
E
SciTegic.value.DoubleValue
-4.949

@<SCITEGIC>MOL_PROPERTY
-TS
SciTegic.value.DoubleValue
33.399

@<SCITEGIC>MOL_PROPERTY
U+W
SciTegic.value.DoubleValue
-26.411

@<SCITEGIC>MOL_PROPERTY
U
SciTegic.value.DoubleValue
27.565

@<SCITEGIC>MOL_PROPERTY
W
SciTegic.value.DoubleValue
-53.976

@<SCITEGIC>MOL_PROPERTY
W(PB)
SciTegic.value.DoubleValue
-56.204

@<SCITEGIC>MOL_PROPERTY
W(SA)
SciTegic.value.DoubleValue
2.228

@<SCITEGIC>MOL_PROPERTY
Valence
SciTegic.value.DoubleValue
5.431

@<SCITEGIC>MOL_PROPERTY
Coulomb
SciTegic.value.DoubleValue
21.472

@<SCITEGIC>MOL_PROPERTY
VdW
SciTegic.value.DoubleValue
0.662

@<SCITEGIC>MOL_PROPERTY
VdW6
SciTegic.value.DoubleValue
-9.933

@<SCITEGIC>MOL_PROPERTY
VdW12
SciTegic.value.DoubleValue
10.595

@<SCITEGIC>MOL_PROPERTY
Bond
SciTegic.value.DoubleValue
0.322

@<SCITEGIC>MOL_PROPERTY
Angle
SciTegic.value.DoubleValue
2.461

@<SCITEGIC>MOL_PROPERTY
Pdih
SciTegic.value.DoubleValue
2.648

@<SCITEGIC>MOL_PROPERTY
Idih
SciTegic.value.DoubleValue
0.000

@<SCITEGIC>MOL_PROPERTY
Tether
SciTegic.value.DoubleValue
0.000

@<TRIPOS>MOLECULE
guest-s13_vm2.mol2 : vm2 ligand conformer 76
          26          25           1
SMALL
USER_CHARGES
 
@<TRIPOS>ATOM
       1    C1      20.956415   17.782631   20.083627 C.3        1 MOL1        -0.2398
       2    H1      20.561839   16.856957   19.644846 H          1 MOL1         0.0972
       3    H2      21.284946   18.431082   19.260909 H          1 MOL1         0.0972
       4    H3      21.836800   17.521538   20.685081 H          1 MOL1         0.0972
       5    C2      19.880749   18.479306   20.943315 C.3        1 MOL1        -0.1383
       6    H4      19.544449   17.786133   21.724441 H          1 MOL1         0.0961
       7    H5      19.002652   18.698533   20.319834 H          1 MOL1         0.0961
       8    C3      20.412475   19.791639   21.567011 C.3        1 MOL1        -0.1407
       9    H6      21.308173   19.597279   22.169166 H          1 MOL1         0.0961
      10    H7      20.746448   20.453268   20.755639 H          1 MOL1         0.0961
      11    C4      19.356426   20.555834   22.405820 C.3        1 MOL1        -0.1407
      12    H8      18.539943   20.864540   21.738459 H          1 MOL1         0.0961
      13    H9      19.808259   21.488351   22.771405 H          1 MOL1         0.0961
      14    C5      18.740473   19.794746   23.612396 C.3        1 MOL1        -0.1472
      15    H10     17.981896   20.456183   24.051802 H          1 MOL1         0.0961
      16    H11     18.192402   18.906408   23.274123 H          1 MOL1         0.0961
      17    C6      19.752588   19.408533   24.717128 C.3        1 MOL1         0.1190
      18    H12     20.457301   20.236462   24.841489 H          1 MOL1         0.0923
      19    C7      19.028775   19.187111   26.055573 C.3        1 MOL1        -0.2463
      20    H13     18.501696   20.096479   26.370179 H          1 MOL1         0.0972
      21    H14     19.744136   18.929373   26.846327 H          1 MOL1         0.0972
      22    H15     18.294717   18.375059   25.980168 H          1 MOL1         0.0972
      23    N1      20.560099   18.188201   24.369130 N.4        1 MOL1        -0.5974
      24    H16     21.025127   18.297138   23.464223 H          1 MOL1         0.3625
      25    H17     21.281724   18.003708   25.071981 H          1 MOL1         0.3625
      26    H18     19.967641   17.355713   24.313292 H          1 MOL1         0.3625
@<TRIPOS>BOND
    1     1     2    1
    2     1     3    1
    3     1     4    1
    4     1     5    1
    5     5     6    1
    6     5     7    1
    7     5     8    1
    8     8     9    1
    9     8    10    1
   10     8    11    1
   11    11    12    1
   12    11    13    1
   13    11    14    1
   14    14    15    1
   15    14    16    1
   16    14    17    1
   17    17    18    1
   18    17    19    1
   19    19    20    1
   20    19    21    1
   21    19    22    1
   22    17    23    1
   23    23    24    1
   24    23    25    1
   25    23    26    1
@<TRIPOS>SUBSTRUCTURE
       1 MOL1            1 RESIDUE      1      MOL     
@<SCITEGIC>MOL_PROPERTY
VM2 Rank
SciTegic.value.IntegerValue
76

@<SCITEGIC>MOL_PROPERTY
Conf_Id
SciTegic.value.IntegerValue
425

@<SCITEGIC>MOL_PROPERTY
Probability
SciTegic.value.DoubleValue
0.01

@<SCITEGIC>MOL_PROPERTY
Sum Probability
SciTegic.value.DoubleValue
99.98

@<SCITEGIC>MOL_PROPERTY
Delta G
SciTegic.value.DoubleValue
4.844

@<SCITEGIC>MOL_PROPERTY
G
SciTegic.value.DoubleValue
28.553

@<SCITEGIC>MOL_PROPERTY
E
SciTegic.value.DoubleValue
-4.669

@<SCITEGIC>MOL_PROPERTY
-TS
SciTegic.value.DoubleValue
33.223

@<SCITEGIC>MOL_PROPERTY
U+W
SciTegic.value.DoubleValue
-26.131

@<SCITEGIC>MOL_PROPERTY
U
SciTegic.value.DoubleValue
27.025

@<SCITEGIC>MOL_PROPERTY
W
SciTegic.value.DoubleValue
-53.156

@<SCITEGIC>MOL_PROPERTY
W(PB)
SciTegic.value.DoubleValue
-55.402

@<SCITEGIC>MOL_PROPERTY
W(SA)
SciTegic.value.DoubleValue
2.245

@<SCITEGIC>MOL_PROPERTY
Valence
SciTegic.value.DoubleValue
5.027

@<SCITEGIC>MOL_PROPERTY
Coulomb
SciTegic.value.DoubleValue
21.327

@<SCITEGIC>MOL_PROPERTY
VdW
SciTegic.value.DoubleValue
0.671

@<SCITEGIC>MOL_PROPERTY
VdW6
SciTegic.value.DoubleValue
-9.248

@<SCITEGIC>MOL_PROPERTY
VdW12
SciTegic.value.DoubleValue
9.919

@<SCITEGIC>MOL_PROPERTY
Bond
SciTegic.value.DoubleValue
0.272

@<SCITEGIC>MOL_PROPERTY
Angle
SciTegic.value.DoubleValue
2.161

@<SCITEGIC>MOL_PROPERTY
Pdih
SciTegic.value.DoubleValue
2.594

@<SCITEGIC>MOL_PROPERTY
Idih
SciTegic.value.DoubleValue
0.000

@<SCITEGIC>MOL_PROPERTY
Tether
SciTegic.value.DoubleValue
0.000

@<TRIPOS>MOLECULE
guest-s13_vm2.mol2 : vm2 ligand conformer 77
          26          25           1
SMALL
USER_CHARGES
 
@<TRIPOS>ATOM
       1    C1      20.661728   17.745223   20.099742 C.3        1 MOL1        -0.2398
       2    H1      20.432005   16.824260   20.651115 H          1 MOL1         0.0972
       3    H2      19.935765   17.843985   19.282131 H          1 MOL1         0.0972
       4    H3      21.657790   17.630518   19.652784 H          1 MOL1         0.0972
       5    C2      20.620704   18.976179   21.029553 C.3        1 MOL1        -0.1383
       6    H4      20.885700   19.874898   20.455217 H          1 MOL1         0.0961
       7    H5      21.388022   18.863347   21.805452 H          1 MOL1         0.0961
       8    C3      19.223033   19.162696   21.666053 C.3        1 MOL1        -0.1407
       9    H6      18.483401   19.266803   20.860081 H          1 MOL1         0.0961
      10    H7      18.928963   18.261608   22.217044 H          1 MOL1         0.0961
      11    C4      19.118197   20.410065   22.580199 C.3        1 MOL1        -0.1407
      12    H8      18.080051   20.511239   22.923716 H          1 MOL1         0.0961
      13    H9      19.306974   21.303074   21.968631 H          1 MOL1         0.0961
      14    C5      20.074539   20.451937   23.808404 C.3        1 MOL1        -0.1472
      15    H10     21.116104   20.507475   23.468123 H          1 MOL1         0.0961
      16    H11     19.896301   21.400288   24.332154 H          1 MOL1         0.0961
      17    C6      19.940401   19.314615   24.853657 C.3        1 MOL1         0.1190
      18    H12     20.516146   19.622170   25.732100 H          1 MOL1         0.0923
      19    C7      18.486237   19.105763   25.311277 C.3        1 MOL1        -0.2463
      20    H13     18.445312   18.400991   26.150732 H          1 MOL1         0.0972
      21    H14     17.861184   18.703563   24.505181 H          1 MOL1         0.0972
      22    H15     18.045667   20.051822   25.649489 H          1 MOL1         0.0972
      23    N1      20.563162   18.021523   24.405115 N.4        1 MOL1        -0.5974
      24    H16     21.562826   18.134722   24.215318 H          1 MOL1         0.3625
      25    H17     20.468432   17.293618   25.119111 H          1 MOL1         0.3625
      26    H18     20.123718   17.678090   23.548105 H          1 MOL1         0.3625
@<TRIPOS>BOND
    1     1     2    1
    2     1     3    1
    3     1     4    1
    4     1     5    1
    5     5     6    1
    6     5     7    1
    7     5     8    1
    8     8     9    1
    9     8    10    1
   10     8    11    1
   11    11    12    1
   12    11    13    1
   13    11    14    1
   14    14    15    1
   15    14    16    1
   16    14    17    1
   17    17    18    1
   18    17    19    1
   19    19    20    1
   20    19    21    1
   21    19    22    1
   22    17    23    1
   23    23    24    1
   24    23    25    1
   25    23    26    1
@<TRIPOS>SUBSTRUCTURE
       1 MOL1            1 RESIDUE      1      MOL     
@<SCITEGIC>MOL_PROPERTY
VM2 Rank
SciTegic.value.IntegerValue
77

@<SCITEGIC>MOL_PROPERTY
Conf_Id
SciTegic.value.IntegerValue
834

@<SCITEGIC>MOL_PROPERTY
Probability
SciTegic.value.DoubleValue
0.00

@<SCITEGIC>MOL_PROPERTY
Sum Probability
SciTegic.value.DoubleValue
99.99

@<SCITEGIC>MOL_PROPERTY
Delta G
SciTegic.value.DoubleValue
4.904

@<SCITEGIC>MOL_PROPERTY
G
SciTegic.value.DoubleValue
28.613

@<SCITEGIC>MOL_PROPERTY
E
SciTegic.value.DoubleValue
-5.029

@<SCITEGIC>MOL_PROPERTY
-TS
SciTegic.value.DoubleValue
33.642

@<SCITEGIC>MOL_PROPERTY
U+W
SciTegic.value.DoubleValue
-26.491

@<SCITEGIC>MOL_PROPERTY
U
SciTegic.value.DoubleValue
27.281

@<SCITEGIC>MOL_PROPERTY
W
SciTegic.value.DoubleValue
-53.771

@<SCITEGIC>MOL_PROPERTY
W(PB)
SciTegic.value.DoubleValue
-55.968

@<SCITEGIC>MOL_PROPERTY
W(SA)
SciTegic.value.DoubleValue
2.197

@<SCITEGIC>MOL_PROPERTY
Valence
SciTegic.value.DoubleValue
5.160

@<SCITEGIC>MOL_PROPERTY
Coulomb
SciTegic.value.DoubleValue
21.563

@<SCITEGIC>MOL_PROPERTY
VdW
SciTegic.value.DoubleValue
0.558

@<SCITEGIC>MOL_PROPERTY
VdW6
SciTegic.value.DoubleValue
-10.215

@<SCITEGIC>MOL_PROPERTY
VdW12
SciTegic.value.DoubleValue
10.772

@<SCITEGIC>MOL_PROPERTY
Bond
SciTegic.value.DoubleValue
0.332

@<SCITEGIC>MOL_PROPERTY
Angle
SciTegic.value.DoubleValue
2.658

@<SCITEGIC>MOL_PROPERTY
Pdih
SciTegic.value.DoubleValue
2.170

@<SCITEGIC>MOL_PROPERTY
Idih
SciTegic.value.DoubleValue
0.000

@<SCITEGIC>MOL_PROPERTY
Tether
SciTegic.value.DoubleValue
0.000

@<TRIPOS>MOLECULE
guest-s13_vm2.mol2 : vm2 ligand conformer 78
          26          25           1
SMALL
USER_CHARGES
 
@<TRIPOS>ATOM
       1    C1      20.199398   19.077945   19.445018 C.3        1 MOL1        -0.2398
       2    H1      20.898372   19.902169   19.631954 H          1 MOL1         0.0972
       3    H2      20.518530   18.580377   18.520079 H          1 MOL1         0.0972
       4    H3      19.203176   19.504232   19.269459 H          1 MOL1         0.0972
       5    C2      20.174748   18.071658   20.618235 C.3        1 MOL1        -0.1383
       6    H4      21.187948   17.685626   20.797556 H          1 MOL1         0.0961
       7    H5      19.564362   17.206281   20.324270 H          1 MOL1         0.0961
       8    C3      19.597044   18.660944   21.928092 C.3        1 MOL1        -0.1407
       9    H6      18.594487   19.067625   21.736811 H          1 MOL1         0.0961
      10    H7      19.473638   17.833248   22.635972 H          1 MOL1         0.0961
      11    C4      20.496053   19.750116   22.564181 C.3        1 MOL1        -0.1407
      12    H8      20.707409   20.523394   21.815059 H          1 MOL1         0.0961
      13    H9      21.471000   19.317114   22.824692 H          1 MOL1         0.0961
      14    C5      19.883137   20.466755   23.801312 C.3        1 MOL1        -0.1472
      15    H10     20.594810   21.242540   24.112701 H          1 MOL1         0.0961
      16    H11     18.978883   21.011706   23.499682 H          1 MOL1         0.0961
      17    C6      19.575153   19.602270   25.051669 C.3        1 MOL1         0.1190
      18    H12     19.616278   20.275160   25.913833 H          1 MOL1         0.0923
      19    C7      18.151529   19.014940   25.031228 C.3        1 MOL1        -0.2463
      20    H13     18.009365   18.284958   24.229113 H          1 MOL1         0.0972
      21    H14     17.406156   19.809450   24.902525 H          1 MOL1         0.0972
      22    H15     17.933076   18.511933   25.981174 H          1 MOL1         0.0972
      23    N1      20.610937   18.543373   25.314267 N.4        1 MOL1        -0.5974
      24    H16     20.652036   17.869336   24.546055 H          1 MOL1         0.3625
      25    H17     21.544266   18.951916   25.416273 H          1 MOL1         0.3625
      26    H18     20.407890   18.024434   26.173272 H          1 MOL1         0.3625
@<TRIPOS>BOND
    1     1     2    1
    2     1     3    1
    3     1     4    1
    4     1     5    1
    5     5     6    1
    6     5     7    1
    7     5     8    1
    8     8     9    1
    9     8    10    1
   10     8    11    1
   11    11    12    1
   12    11    13    1
   13    11    14    1
   14    14    15    1
   15    14    16    1
   16    14    17    1
   17    17    18    1
   18    17    19    1
   19    19    20    1
   20    19    21    1
   21    19    22    1
   22    17    23    1
   23    23    24    1
   24    23    25    1
   25    23    26    1
@<TRIPOS>SUBSTRUCTURE
       1 MOL1            1 RESIDUE      1      MOL     
@<SCITEGIC>MOL_PROPERTY
VM2 Rank
SciTegic.value.IntegerValue
78

@<SCITEGIC>MOL_PROPERTY
Conf_Id
SciTegic.value.IntegerValue
751

@<SCITEGIC>MOL_PROPERTY
Probability
SciTegic.value.DoubleValue
0.00

@<SCITEGIC>MOL_PROPERTY
Sum Probability
SciTegic.value.DoubleValue
99.99

@<SCITEGIC>MOL_PROPERTY
Delta G
SciTegic.value.DoubleValue
4.932

@<SCITEGIC>MOL_PROPERTY
G
SciTegic.value.DoubleValue
28.642

@<SCITEGIC>MOL_PROPERTY
E
SciTegic.value.DoubleValue
-4.460

@<SCITEGIC>MOL_PROPERTY
-TS
SciTegic.value.DoubleValue
33.102

@<SCITEGIC>MOL_PROPERTY
U+W
SciTegic.value.DoubleValue
-25.922

@<SCITEGIC>MOL_PROPERTY
U
SciTegic.value.DoubleValue
28.238

@<SCITEGIC>MOL_PROPERTY
W
SciTegic.value.DoubleValue
-54.160

@<SCITEGIC>MOL_PROPERTY
W(PB)
SciTegic.value.DoubleValue
-56.416

@<SCITEGIC>MOL_PROPERTY
W(SA)
SciTegic.value.DoubleValue
2.256

@<SCITEGIC>MOL_PROPERTY
Valence
SciTegic.value.DoubleValue
6.520

@<SCITEGIC>MOL_PROPERTY
Coulomb
SciTegic.value.DoubleValue
20.564

@<SCITEGIC>MOL_PROPERTY
VdW
SciTegic.value.DoubleValue
1.154

@<SCITEGIC>MOL_PROPERTY
VdW6
SciTegic.value.DoubleValue
-9.254

@<SCITEGIC>MOL_PROPERTY
VdW12
SciTegic.value.DoubleValue
10.408

@<SCITEGIC>MOL_PROPERTY
Bond
SciTegic.value.DoubleValue
0.327

@<SCITEGIC>MOL_PROPERTY
Angle
SciTegic.value.DoubleValue
2.699

@<SCITEGIC>MOL_PROPERTY
Pdih
SciTegic.value.DoubleValue
3.494

@<SCITEGIC>MOL_PROPERTY
Idih
SciTegic.value.DoubleValue
0.000

@<SCITEGIC>MOL_PROPERTY
Tether
SciTegic.value.DoubleValue
0.000

@<TRIPOS>MOLECULE
guest-s13_vm2.mol2 : vm2 ligand conformer 79
          26          25           1
SMALL
USER_CHARGES
 
@<TRIPOS>ATOM
       1    C1      20.793578   19.184574   19.961622 C.3        1 MOL1        -0.2398
       2    H1      20.015695   18.974079   19.216291 H          1 MOL1         0.0972
       3    H2      20.723332   20.242680   20.242855 H          1 MOL1         0.0972
       4    H3      21.768868   19.034424   19.480899 H          1 MOL1         0.0972
       5    C2      20.648600   18.261238   21.192084 C.3        1 MOL1        -0.1383
       6    H4      21.428801   18.504719   21.923890 H          1 MOL1         0.0961
       7    H5      20.839313   17.225082   20.879431 H          1 MOL1         0.0961
       8    C3      19.245012   18.329741   21.846905 C.3        1 MOL1        -0.1407
       9    H6      18.499366   18.013495   21.104414 H          1 MOL1         0.0961
      10    H7      19.177792   17.588731   22.652360 H          1 MOL1         0.0961
      11    C4      18.834546   19.726610   22.384345 C.3        1 MOL1        -0.1407
      12    H8      17.819488   19.662198   22.797772 H          1 MOL1         0.0961
      13    H9      18.747159   20.417670   21.535622 H          1 MOL1         0.0961
      14    C5      19.784237   20.367085   23.438670 C.3        1 MOL1        -0.1472
      15    H10     20.773681   20.534738   22.995188 H          1 MOL1         0.0961
      16    H11     19.398885   21.370516   23.662264 H          1 MOL1         0.0961
      17    C6      19.949377   19.625460   24.790416 C.3        1 MOL1         0.1190
      18    H12     20.468432   20.312139   25.466268 H          1 MOL1         0.0923
      19    C7      18.598176   19.279498   25.439965 C.3        1 MOL1        -0.2463
      20    H13     18.747911   18.896611   26.456845 H          1 MOL1         0.0972
      21    H14     18.059272   18.513515   24.869646 H          1 MOL1         0.0972
      22    H15     17.960917   20.169723   25.510098 H          1 MOL1         0.0972
      23    N1      20.834474   18.413794   24.699994 N.4        1 MOL1        -0.5974
      24    H16     21.770905   18.659322   24.367141 H          1 MOL1         0.3625
      25    H17     20.943124   17.961857   25.612411 H          1 MOL1         0.3625
      26    H18     20.447636   17.722263   24.054210 H          1 MOL1         0.3625
@<TRIPOS>BOND
    1     1     2    1
    2     1     3    1
    3     1     4    1
    4     1     5    1
    5     5     6    1
    6     5     7    1
    7     5     8    1
    8     8     9    1
    9     8    10    1
   10     8    11    1
   11    11    12    1
   12    11    13    1
   13    11    14    1
   14    14    15    1
   15    14    16    1
   16    14    17    1
   17    17    18    1
   18    17    19    1
   19    19    20    1
   20    19    21    1
   21    19    22    1
   22    17    23    1
   23    23    24    1
   24    23    25    1
   25    23    26    1
@<TRIPOS>SUBSTRUCTURE
       1 MOL1            1 RESIDUE      1      MOL     
@<SCITEGIC>MOL_PROPERTY
VM2 Rank
SciTegic.value.IntegerValue
79

@<SCITEGIC>MOL_PROPERTY
Conf_Id
SciTegic.value.IntegerValue
160

@<SCITEGIC>MOL_PROPERTY
Probability
SciTegic.value.DoubleValue
0.00

@<SCITEGIC>MOL_PROPERTY
Sum Probability
SciTegic.value.DoubleValue
99.99

@<SCITEGIC>MOL_PROPERTY
Delta G
SciTegic.value.DoubleValue
5.060

@<SCITEGIC>MOL_PROPERTY
G
SciTegic.value.DoubleValue
28.770

@<SCITEGIC>MOL_PROPERTY
E
SciTegic.value.DoubleValue
-5.031

@<SCITEGIC>MOL_PROPERTY
-TS
SciTegic.value.DoubleValue
33.801

@<SCITEGIC>MOL_PROPERTY
U+W
SciTegic.value.DoubleValue
-26.493

@<SCITEGIC>MOL_PROPERTY
U
SciTegic.value.DoubleValue
27.883

@<SCITEGIC>MOL_PROPERTY
W
SciTegic.value.DoubleValue
-54.375

@<SCITEGIC>MOL_PROPERTY
W(PB)
SciTegic.value.DoubleValue
-56.572

@<SCITEGIC>MOL_PROPERTY
W(SA)
SciTegic.value.DoubleValue
2.197

@<SCITEGIC>MOL_PROPERTY
Valence
SciTegic.value.DoubleValue
5.604

@<SCITEGIC>MOL_PROPERTY
Coulomb
SciTegic.value.DoubleValue
21.671

@<SCITEGIC>MOL_PROPERTY
VdW
SciTegic.value.DoubleValue
0.608

@<SCITEGIC>MOL_PROPERTY
VdW6
SciTegic.value.DoubleValue
-10.842

@<SCITEGIC>MOL_PROPERTY
VdW12
SciTegic.value.DoubleValue
11.450

@<SCITEGIC>MOL_PROPERTY
Bond
SciTegic.value.DoubleValue
0.377

@<SCITEGIC>MOL_PROPERTY
Angle
SciTegic.value.DoubleValue
2.942

@<SCITEGIC>MOL_PROPERTY
Pdih
SciTegic.value.DoubleValue
2.285

@<SCITEGIC>MOL_PROPERTY
Idih
SciTegic.value.DoubleValue
0.000

@<SCITEGIC>MOL_PROPERTY
Tether
SciTegic.value.DoubleValue
0.000

@<TRIPOS>MOLECULE
guest-s13_vm2.mol2 : vm2 ligand conformer 80
          26          25           1
SMALL
USER_CHARGES
 
@<TRIPOS>ATOM
       1    C1      19.836815   19.487665   19.836489 C.3        1 MOL1        -0.2398
       2    H1      19.058598   19.766812   19.114498 H          1 MOL1         0.0972
       3    H2      20.273740   20.415294   20.226610 H          1 MOL1         0.0972
       4    H3      20.618432   18.940769   19.293446 H          1 MOL1         0.0972
       5    C2      19.239256   18.623398   20.969577 C.3        1 MOL1        -0.1383
       6    H4      18.716489   17.766613   20.522166 H          1 MOL1         0.0961
       7    H5      18.472559   19.198616   21.503782 H          1 MOL1         0.0961
       8    C3      20.304479   18.089006   21.960924 C.3        1 MOL1        -0.1407
       9    H6      19.827895   17.418668   22.685654 H          1 MOL1         0.0961
      10    H7      21.009357   17.455162   21.405436 H          1 MOL1         0.0961
      11    C4      21.115345   19.179073   22.709496 C.3        1 MOL1        -0.1407
      12    H8      21.722614   19.724671   21.975141 H          1 MOL1         0.0961
      13    H9      21.846417   18.688927   23.365699 H          1 MOL1         0.0961
      14    C5      20.296421   20.220652   23.528127 C.3        1 MOL1        -0.1472
      15    H10     21.009676   20.969161   23.897049 H          1 MOL1         0.0961
      16    H11     19.621949   20.778105   22.866067 H          1 MOL1         0.0961
      17    C6      19.512199   19.703544   24.762868 C.3        1 MOL1         0.1190
      18    H12     19.368726   20.565459   25.421864 H          1 MOL1         0.0923
      19    C7      18.104457   19.189315   24.412752 C.3        1 MOL1        -0.2463
      20    H13     17.536517   18.984401   25.328466 H          1 MOL1         0.0972
      21    H14     18.131821   18.264844   23.828754 H          1 MOL1         0.0972
      22    H15     17.545548   19.940814   23.841753 H          1 MOL1         0.0972
      23    N1      20.279027   18.695347   25.573769 N.4        1 MOL1        -0.5974
      24    H16     20.461372   17.848228   25.030249 H          1 MOL1         0.3625
      25    H17     21.182931   19.068838   25.876688 H          1 MOL1         0.3625
      26    H18     19.763520   18.419652   26.414322 H          1 MOL1         0.3625
@<TRIPOS>BOND
    1     1     2    1
    2     1     3    1
    3     1     4    1
    4     1     5    1
    5     5     6    1
    6     5     7    1
    7     5     8    1
    8     8     9    1
    9     8    10    1
   10     8    11    1
   11    11    12    1
   12    11    13    1
   13    11    14    1
   14    14    15    1
   15    14    16    1
   16    14    17    1
   17    17    18    1
   18    17    19    1
   19    19    20    1
   20    19    21    1
   21    19    22    1
   22    17    23    1
   23    23    24    1
   24    23    25    1
   25    23    26    1
@<TRIPOS>SUBSTRUCTURE
       1 MOL1            1 RESIDUE      1      MOL     
@<SCITEGIC>MOL_PROPERTY
VM2 Rank
SciTegic.value.IntegerValue
80

@<SCITEGIC>MOL_PROPERTY
Conf_Id
SciTegic.value.IntegerValue
220

@<SCITEGIC>MOL_PROPERTY
Probability
SciTegic.value.DoubleValue
0.00

@<SCITEGIC>MOL_PROPERTY
Sum Probability
SciTegic.value.DoubleValue
100.00

@<SCITEGIC>MOL_PROPERTY
Delta G
SciTegic.value.DoubleValue
5.265

@<SCITEGIC>MOL_PROPERTY
G
SciTegic.value.DoubleValue
28.975

@<SCITEGIC>MOL_PROPERTY
E
SciTegic.value.DoubleValue
-4.848

@<SCITEGIC>MOL_PROPERTY
-TS
SciTegic.value.DoubleValue
33.822

@<SCITEGIC>MOL_PROPERTY
U+W
SciTegic.value.DoubleValue
-26.309

@<SCITEGIC>MOL_PROPERTY
U
SciTegic.value.DoubleValue
28.161

@<SCITEGIC>MOL_PROPERTY
W
SciTegic.value.DoubleValue
-54.471

@<SCITEGIC>MOL_PROPERTY
W(PB)
SciTegic.value.DoubleValue
-56.648

@<SCITEGIC>MOL_PROPERTY
W(SA)
SciTegic.value.DoubleValue
2.177

@<SCITEGIC>MOL_PROPERTY
Valence
SciTegic.value.DoubleValue
6.892

@<SCITEGIC>MOL_PROPERTY
Coulomb
SciTegic.value.DoubleValue
20.537

@<SCITEGIC>MOL_PROPERTY
VdW
SciTegic.value.DoubleValue
0.732

@<SCITEGIC>MOL_PROPERTY
VdW6
SciTegic.value.DoubleValue
-10.681

@<SCITEGIC>MOL_PROPERTY
VdW12
SciTegic.value.DoubleValue
11.413

@<SCITEGIC>MOL_PROPERTY
Bond
SciTegic.value.DoubleValue
0.380

@<SCITEGIC>MOL_PROPERTY
Angle
SciTegic.value.DoubleValue
3.328

@<SCITEGIC>MOL_PROPERTY
Pdih
SciTegic.value.DoubleValue
3.184

@<SCITEGIC>MOL_PROPERTY
Idih
SciTegic.value.DoubleValue
0.000

@<SCITEGIC>MOL_PROPERTY
Tether
SciTegic.value.DoubleValue
0.000

@<TRIPOS>MOLECULE
guest-s13_vm2.mol2 : vm2 ligand conformer 81
          26          25           1
SMALL
USER_CHARGES
 
@<TRIPOS>ATOM
       1    C1      20.227590   20.176849   19.814453 C.3        1 MOL1        -0.2398
       2    H1      20.029270   19.522994   18.955167 H          1 MOL1         0.0972
       3    H2      19.339385   20.799811   19.982324 H          1 MOL1         0.0972
       4    H3      21.059466   20.841304   19.547041 H          1 MOL1         0.0972
       5    C2      20.571889   19.351739   21.072317 C.3        1 MOL1        -0.1383
       6    H4      20.807699   20.037054   21.894317 H          1 MOL1         0.0961
       7    H5      21.482898   18.766940   20.883039 H          1 MOL1         0.0961
       8    C3      19.416080   18.398177   21.461085 C.3        1 MOL1        -0.1407
       9    H6      18.479121   18.955746   21.592689 H          1 MOL1         0.0961
      10    H7      19.242508   17.717557   20.615985 H          1 MOL1         0.0961
      11    C4      19.709681   17.541973   22.719731 C.3        1 MOL1        -0.1407
      12    H8      20.778620   17.292124   22.767343 H          1 MOL1         0.0961
      13    H9      19.189074   16.581628   22.600506 H          1 MOL1         0.0961
      14    C5      19.244865   18.152868   24.069158 C.3        1 MOL1        -0.1472
      15    H10     18.160798   18.327379   24.049035 H          1 MOL1         0.0961
      16    H11     19.401424   17.386180   24.839500 H          1 MOL1         0.0961
      17    C6      19.990370   19.441568   24.490502 C.3        1 MOL1         0.1190
      18    H12     20.932960   19.488004   23.937599 H          1 MOL1         0.0923
      19    C7      19.163032   20.702493   24.179283 C.3        1 MOL1        -0.2463
      20    H13     18.235853   20.720853   24.765617 H          1 MOL1         0.0972
      21    H14     18.890490   20.754254   23.119549 H          1 MOL1         0.0972
      22    H15     19.733650   21.608023   24.419308 H          1 MOL1         0.0972
      23    N1      20.364494   19.422334   25.947471 N.4        1 MOL1        -0.5974
      24    H16     20.955224   18.617124   26.174375 H          1 MOL1         0.3625
      25    H17     20.883748   20.264427   26.211619 H          1 MOL1         0.3625
      26    H18     19.535669   19.374789   26.546185 H          1 MOL1         0.3625
@<TRIPOS>BOND
    1     1     2    1
    2     1     3    1
    3     1     4    1
    4     1     5    1
    5     5     6    1
    6     5     7    1
    7     5     8    1
    8     8     9    1
    9     8    10    1
   10     8    11    1
   11    11    12    1
   12    11    13    1
   13    11    14    1
   14    14    15    1
   15    14    16    1
   16    14    17    1
   17    17    18    1
   18    17    19    1
   19    19    20    1
   20    19    21    1
   21    19    22    1
   22    17    23    1
   23    23    24    1
   24    23    25    1
   25    23    26    1
@<TRIPOS>SUBSTRUCTURE
       1 MOL1            1 RESIDUE      1      MOL     
@<SCITEGIC>MOL_PROPERTY
VM2 Rank
SciTegic.value.IntegerValue
81

@<SCITEGIC>MOL_PROPERTY
Conf_Id
SciTegic.value.IntegerValue
861

@<SCITEGIC>MOL_PROPERTY
Probability
SciTegic.value.DoubleValue
0.00

@<SCITEGIC>MOL_PROPERTY
Sum Probability
SciTegic.value.DoubleValue
100.00

@<SCITEGIC>MOL_PROPERTY
Delta G
SciTegic.value.DoubleValue
5.957

@<SCITEGIC>MOL_PROPERTY
G
SciTegic.value.DoubleValue
29.667

@<SCITEGIC>MOL_PROPERTY
E
SciTegic.value.DoubleValue
-3.530

@<SCITEGIC>MOL_PROPERTY
-TS
SciTegic.value.DoubleValue
33.196

@<SCITEGIC>MOL_PROPERTY
U+W
SciTegic.value.DoubleValue
-24.991

@<SCITEGIC>MOL_PROPERTY
U
SciTegic.value.DoubleValue
29.319

@<SCITEGIC>MOL_PROPERTY
W
SciTegic.value.DoubleValue
-54.311

@<SCITEGIC>MOL_PROPERTY
W(PB)
SciTegic.value.DoubleValue
-56.565

@<SCITEGIC>MOL_PROPERTY
W(SA)
SciTegic.value.DoubleValue
2.254

@<SCITEGIC>MOL_PROPERTY
Valence
SciTegic.value.DoubleValue
8.263

@<SCITEGIC>MOL_PROPERTY
Coulomb
SciTegic.value.DoubleValue
20.281

@<SCITEGIC>MOL_PROPERTY
VdW
SciTegic.value.DoubleValue
0.775

@<SCITEGIC>MOL_PROPERTY
VdW6
SciTegic.value.DoubleValue
-9.226

@<SCITEGIC>MOL_PROPERTY
VdW12
SciTegic.value.DoubleValue
10.001

@<SCITEGIC>MOL_PROPERTY
Bond
SciTegic.value.DoubleValue
0.262

@<SCITEGIC>MOL_PROPERTY
Angle
SciTegic.value.DoubleValue
2.116

@<SCITEGIC>MOL_PROPERTY
Pdih
SciTegic.value.DoubleValue
5.886

@<SCITEGIC>MOL_PROPERTY
Idih
SciTegic.value.DoubleValue
0.000

@<SCITEGIC>MOL_PROPERTY
Tether
SciTegic.value.DoubleValue
0.000

@<TRIPOS>MOLECULE
guest-s13_vm2.mol2 : vm2 ligand conformer 82
          26          25           1
SMALL
USER_CHARGES
 
@<TRIPOS>ATOM
       1    C1      20.003938   20.464410   20.804791 C.3        1 MOL1        -0.2398
       2    H1      19.392826   20.399454   19.895160 H          1 MOL1         0.0972
       3    H2      19.333460   20.695962   21.639391 H          1 MOL1         0.0972
       4    H3      20.693576   21.309576   20.682389 H          1 MOL1         0.0972
       5    C2      20.788835   19.151204   21.031868 C.3        1 MOL1        -0.1383
       6    H4      21.500766   19.259784   21.860931 H          1 MOL1         0.0961
       7    H5      21.400947   18.966829   20.137837 H          1 MOL1         0.0961
       8    C3      19.869417   17.925404   21.261874 C.3        1 MOL1        -0.1407
       9    H6      18.904697   18.076269   20.758068 H          1 MOL1         0.0961
      10    H7      20.327676   17.061716   20.760328 H          1 MOL1         0.0961
      11    C4      19.637115   17.527282   22.744503 C.3        1 MOL1        -0.1407
      12    H8      20.591727   17.251180   23.210131 H          1 MOL1         0.0961
      13    H9      19.039425   16.605263   22.742603 H          1 MOL1         0.0961
      14    C5      18.884556   18.573375   23.610089 C.3        1 MOL1        -0.1472
      15    H10     18.086239   19.028650   23.009430 H          1 MOL1         0.0961
      16    H11     18.378914   18.050556   24.432811 H          1 MOL1         0.0961
      17    C6      19.783869   19.674809   24.217499 C.3        1 MOL1         0.1190
      18    H12     20.347009   20.152739   23.412590 H          1 MOL1         0.0923
      19    C7      18.922699   20.748876   24.900805 C.3        1 MOL1        -0.2463
      20    H13     18.338387   20.323568   25.726394 H          1 MOL1         0.0972
      21    H14     18.224369   21.201882   24.186123 H          1 MOL1         0.0972
      22    H15     19.551559   21.551637   25.305115 H          1 MOL1         0.0972
      23    N1      20.797570   19.122640   25.182571 N.4        1 MOL1        -0.5974
      24    H16     21.395555   19.862336   25.561542 H          1 MOL1         0.3625
      25    H17     20.344424   18.659951   25.974961 H          1 MOL1         0.3625
      26    H18     21.407932   18.435478   24.732781 H          1 MOL1         0.3625
@<TRIPOS>BOND
    1     1     2    1
    2     1     3    1
    3     1     4    1
    4     1     5    1
    5     5     6    1
    6     5     7    1
    7     5     8    1
    8     8     9    1
    9     8    10    1
   10     8    11    1
   11    11    12    1
   12    11    13    1
   13    11    14    1
   14    14    15    1
   15    14    16    1
   16    14    17    1
   17    17    18    1
   18    17    19    1
   19    19    20    1
   20    19    21    1
   21    19    22    1
   22    17    23    1
   23    23    24    1
   24    23    25    1
   25    23    26    1
@<TRIPOS>SUBSTRUCTURE
       1 MOL1            1 RESIDUE      1      MOL     
@<SCITEGIC>MOL_PROPERTY
VM2 Rank
SciTegic.value.IntegerValue
82

@<SCITEGIC>MOL_PROPERTY
Conf_Id
SciTegic.value.IntegerValue
693

@<SCITEGIC>MOL_PROPERTY
Probability
SciTegic.value.DoubleValue
0.00

@<SCITEGIC>MOL_PROPERTY
Sum Probability
SciTegic.value.DoubleValue
100.00

@<SCITEGIC>MOL_PROPERTY
Delta G
SciTegic.value.DoubleValue
5.961

@<SCITEGIC>MOL_PROPERTY
G
SciTegic.value.DoubleValue
29.671

@<SCITEGIC>MOL_PROPERTY
E
SciTegic.value.DoubleValue
-3.805

@<SCITEGIC>MOL_PROPERTY
-TS
SciTegic.value.DoubleValue
33.475

@<SCITEGIC>MOL_PROPERTY
U+W
SciTegic.value.DoubleValue
-25.266

@<SCITEGIC>MOL_PROPERTY
U
SciTegic.value.DoubleValue
29.018

@<SCITEGIC>MOL_PROPERTY
W
SciTegic.value.DoubleValue
-54.285

@<SCITEGIC>MOL_PROPERTY
W(PB)
SciTegic.value.DoubleValue
-56.492

@<SCITEGIC>MOL_PROPERTY
W(SA)
SciTegic.value.DoubleValue
2.207

@<SCITEGIC>MOL_PROPERTY
Valence
SciTegic.value.DoubleValue
7.756

@<SCITEGIC>MOL_PROPERTY
Coulomb
SciTegic.value.DoubleValue
20.779

@<SCITEGIC>MOL_PROPERTY
VdW
SciTegic.value.DoubleValue
0.484

@<SCITEGIC>MOL_PROPERTY
VdW6
SciTegic.value.DoubleValue
-10.173

@<SCITEGIC>MOL_PROPERTY
VdW12
SciTegic.value.DoubleValue
10.657

@<SCITEGIC>MOL_PROPERTY
Bond
SciTegic.value.DoubleValue
0.300

@<SCITEGIC>MOL_PROPERTY
Angle
SciTegic.value.DoubleValue
2.386

@<SCITEGIC>MOL_PROPERTY
Pdih
SciTegic.value.DoubleValue
5.069

@<SCITEGIC>MOL_PROPERTY
Idih
SciTegic.value.DoubleValue
0.000

@<SCITEGIC>MOL_PROPERTY
Tether
SciTegic.value.DoubleValue
0.000

@<TRIPOS>MOLECULE
guest-s13_vm2.mol2 : vm2 ligand conformer 83
          26          25           1
SMALL
USER_CHARGES
 
@<TRIPOS>ATOM
       1    C1      20.167825   19.995751   20.063022 C.3        1 MOL1        -0.2398
       2    H1      21.048657   20.316562   20.632981 H          1 MOL1         0.0972
       3    H2      20.372085   20.192705   19.002674 H          1 MOL1         0.0972
       4    H3      19.313902   20.617624   20.361076 H          1 MOL1         0.0972
       5    C2      19.869063   18.496890   20.285989 C.3        1 MOL1        -0.1383
       6    H4      20.749264   17.903053   20.002580 H          1 MOL1         0.0961
       7    H5      19.064044   18.192418   19.602635 H          1 MOL1         0.0961
       8    C3      19.447592   18.142697   21.734924 C.3        1 MOL1        -0.1407
       9    H6      18.519094   18.669081   21.988383 H          1 MOL1         0.0961
      10    H7      19.198558   17.072779   21.756137 H          1 MOL1         0.0961
      11    C4      20.543364   18.406083   22.803516 C.3        1 MOL1        -0.1407
      12    H8      21.530273   18.292706   22.334245 H          1 MOL1         0.0961
      13    H9      20.497788   17.618361   23.566257 H          1 MOL1         0.0961
      14    C5      20.459949   19.801665   23.487566 C.3        1 MOL1        -0.1472
      15    H10     21.481416   20.148735   23.690916 H          1 MOL1         0.0961
      16    H11     20.034116   20.539598   22.797524 H          1 MOL1         0.0961
      17    C6      19.673981   19.851796   24.821408 C.3        1 MOL1         0.1190
      18    H12     19.699967   20.888190   25.172102 H          1 MOL1         0.0923
      19    C7      18.197150   19.457324   24.655166 C.3        1 MOL1        -0.2463
      20    H13     18.091040   18.401894   24.377056 H          1 MOL1         0.0972
      21    H14     17.715261   20.070321   23.883626 H          1 MOL1         0.0972
      22    H15     17.649851   19.614054   25.592711 H          1 MOL1         0.0972
      23    N1      20.329077   19.035793   25.902408 N.4        1 MOL1        -0.5974
      24    H16     20.339516   18.041248   25.664203 H          1 MOL1         0.3625
      25    H17     21.298873   19.325878   26.056495 H          1 MOL1         0.3625
      26    H18     19.836050   19.132465   26.794545 H          1 MOL1         0.3625
@<TRIPOS>BOND
    1     1     2    1
    2     1     3    1
    3     1     4    1
    4     1     5    1
    5     5     6    1
    6     5     7    1
    7     5     8    1
    8     8     9    1
    9     8    10    1
   10     8    11    1
   11    11    12    1
   12    11    13    1
   13    11    14    1
   14    14    15    1
   15    14    16    1
   16    14    17    1
   17    17    18    1
   18    17    19    1
   19    19    20    1
   20    19    21    1
   21    19    22    1
   22    17    23    1
   23    23    24    1
   24    23    25    1
   25    23    26    1
@<TRIPOS>SUBSTRUCTURE
       1 MOL1            1 RESIDUE      1      MOL     
@<SCITEGIC>MOL_PROPERTY
VM2 Rank
SciTegic.value.IntegerValue
83

@<SCITEGIC>MOL_PROPERTY
Conf_Id
SciTegic.value.IntegerValue
1064

@<SCITEGIC>MOL_PROPERTY
Probability
SciTegic.value.DoubleValue
0.00

@<SCITEGIC>MOL_PROPERTY
Sum Probability
SciTegic.value.DoubleValue
100.00

@<SCITEGIC>MOL_PROPERTY
Delta G
SciTegic.value.DoubleValue
6.345

@<SCITEGIC>MOL_PROPERTY
G
SciTegic.value.DoubleValue
30.055

@<SCITEGIC>MOL_PROPERTY
E
SciTegic.value.DoubleValue
-3.333

@<SCITEGIC>MOL_PROPERTY
-TS
SciTegic.value.DoubleValue
33.388

@<SCITEGIC>MOL_PROPERTY
U+W
SciTegic.value.DoubleValue
-24.795

@<SCITEGIC>MOL_PROPERTY
U
SciTegic.value.DoubleValue
29.609

@<SCITEGIC>MOL_PROPERTY
W
SciTegic.value.DoubleValue
-54.404

@<SCITEGIC>MOL_PROPERTY
W(PB)
SciTegic.value.DoubleValue
-56.599

@<SCITEGIC>MOL_PROPERTY
W(SA)
SciTegic.value.DoubleValue
2.195

@<SCITEGIC>MOL_PROPERTY
Valence
SciTegic.value.DoubleValue
8.401

@<SCITEGIC>MOL_PROPERTY
Coulomb
SciTegic.value.DoubleValue
20.135

@<SCITEGIC>MOL_PROPERTY
VdW
SciTegic.value.DoubleValue
1.073

@<SCITEGIC>MOL_PROPERTY
VdW6
SciTegic.value.DoubleValue
-9.966

@<SCITEGIC>MOL_PROPERTY
VdW12
SciTegic.value.DoubleValue
11.039

@<SCITEGIC>MOL_PROPERTY
Bond
SciTegic.value.DoubleValue
0.358

@<SCITEGIC>MOL_PROPERTY
Angle
SciTegic.value.DoubleValue
2.261

@<SCITEGIC>MOL_PROPERTY
Pdih
SciTegic.value.DoubleValue
5.782

@<SCITEGIC>MOL_PROPERTY
Idih
SciTegic.value.DoubleValue
0.000

@<SCITEGIC>MOL_PROPERTY
Tether
SciTegic.value.DoubleValue
0.000

@<TRIPOS>MOLECULE
guest-s13_vm2.mol2 : vm2 ligand conformer 84
          26          25           1
SMALL
USER_CHARGES
 
@<TRIPOS>ATOM
       1    C1      21.506338   18.580118   21.144581 C.3        1 MOL1        -0.2398
       2    H1      21.456057   17.837838   20.337347 H          1 MOL1         0.0972
       3    H2      22.507498   19.029600   21.121470 H          1 MOL1         0.0972
       4    H3      21.398743   18.045009   22.094179 H          1 MOL1         0.0972
       5    C2      20.418827   19.663976   20.959513 C.3        1 MOL1        -0.1383
       6    H4      20.557430   20.114131   19.966482 H          1 MOL1         0.0961
       7    H5      20.556635   20.483221   21.677909 H          1 MOL1         0.0961
       8    C3      18.979367   19.098388   21.050294 C.3        1 MOL1        -0.1407
       9    H6      18.367976   19.609932   20.293969 H          1 MOL1         0.0961
      10    H7      18.969790   18.037817   20.763264 H          1 MOL1         0.0961
      11    C4      18.270415   19.284210   22.418981 C.3        1 MOL1        -0.1407
      12    H8      17.242006   18.915372   22.302327 H          1 MOL1         0.0961
      13    H9      18.166631   20.352875   22.642229 H          1 MOL1         0.0961
      14    C5      18.906204   18.523995   23.614998 C.3        1 MOL1        -0.1472
      15    H10     18.131919   18.357226   24.375593 H          1 MOL1         0.0961
      16    H11     19.207809   17.524872   23.274625 H          1 MOL1         0.0961
      17    C6      20.107670   19.226104   24.293672 C.3        1 MOL1         0.1190
      18    H12     20.841336   19.488363   23.528161 H          1 MOL1         0.0923
      19    C7      19.691319   20.514798   25.025888 C.3        1 MOL1        -0.2463
      20    H13     18.913948   20.313481   25.773413 H          1 MOL1         0.0972
      21    H14     19.309570   21.268489   24.328391 H          1 MOL1         0.0972
      22    H15     20.550905   20.959519   25.542267 H          1 MOL1         0.0972
      23    N1      20.807859   18.296411   25.246074 N.4        1 MOL1        -0.5974
      24    H16     21.132527   17.446850   24.775913 H          1 MOL1         0.3625
      25    H17     21.626381   18.742070   25.670192 H          1 MOL1         0.3625
      26    H18     20.189173   18.007983   26.008720 H          1 MOL1         0.3625
@<TRIPOS>BOND
    1     1     2    1
    2     1     3    1
    3     1     4    1
    4     1     5    1
    5     5     6    1
    6     5     7    1
    7     5     8    1
    8     8     9    1
    9     8    10    1
   10     8    11    1
   11    11    12    1
   12    11    13    1
   13    11    14    1
   14    14    15    1
   15    14    16    1
   16    14    17    1
   17    17    18    1
   18    17    19    1
   19    19    20    1
   20    19    21    1
   21    19    22    1
   22    17    23    1
   23    23    24    1
   24    23    25    1
   25    23    26    1
@<TRIPOS>SUBSTRUCTURE
       1 MOL1            1 RESIDUE      1      MOL     
@<SCITEGIC>MOL_PROPERTY
VM2 Rank
SciTegic.value.IntegerValue
84

@<SCITEGIC>MOL_PROPERTY
Conf_Id
SciTegic.value.IntegerValue
70

@<SCITEGIC>MOL_PROPERTY
Probability
SciTegic.value.DoubleValue
0.00

@<SCITEGIC>MOL_PROPERTY
Sum Probability
SciTegic.value.DoubleValue
100.00

@<SCITEGIC>MOL_PROPERTY
Delta G
SciTegic.value.DoubleValue
6.573

@<SCITEGIC>MOL_PROPERTY
G
SciTegic.value.DoubleValue
30.283

@<SCITEGIC>MOL_PROPERTY
E
SciTegic.value.DoubleValue
-3.100

@<SCITEGIC>MOL_PROPERTY
-TS
SciTegic.value.DoubleValue
33.382

@<SCITEGIC>MOL_PROPERTY
U+W
SciTegic.value.DoubleValue
-24.561

@<SCITEGIC>MOL_PROPERTY
U
SciTegic.value.DoubleValue
29.944

@<SCITEGIC>MOL_PROPERTY
W
SciTegic.value.DoubleValue
-54.506

@<SCITEGIC>MOL_PROPERTY
W(PB)
SciTegic.value.DoubleValue
-56.701

@<SCITEGIC>MOL_PROPERTY
W(SA)
SciTegic.value.DoubleValue
2.195

@<SCITEGIC>MOL_PROPERTY
Valence
SciTegic.value.DoubleValue
8.447

@<SCITEGIC>MOL_PROPERTY
Coulomb
SciTegic.value.DoubleValue
20.858

@<SCITEGIC>MOL_PROPERTY
VdW
SciTegic.value.DoubleValue
0.639

@<SCITEGIC>MOL_PROPERTY
VdW6
SciTegic.value.DoubleValue
-10.246

@<SCITEGIC>MOL_PROPERTY
VdW12
SciTegic.value.DoubleValue
10.886

@<SCITEGIC>MOL_PROPERTY
Bond
SciTegic.value.DoubleValue
0.318

@<SCITEGIC>MOL_PROPERTY
Angle
SciTegic.value.DoubleValue
2.793

@<SCITEGIC>MOL_PROPERTY
Pdih
SciTegic.value.DoubleValue
5.337

@<SCITEGIC>MOL_PROPERTY
Idih
SciTegic.value.DoubleValue
0.000

@<SCITEGIC>MOL_PROPERTY
Tether
SciTegic.value.DoubleValue
0.000

@<TRIPOS>MOLECULE
guest-s13_vm2.mol2 : vm2 ligand conformer 85
          26          25           1
SMALL
USER_CHARGES
 
@<TRIPOS>ATOM
       1    C1      21.442491   18.096728   20.336044 C.3        1 MOL1        -0.2398
       2    H1      20.937059   17.884902   19.384691 H          1 MOL1         0.0972
       3    H2      22.484190   18.360482   20.111322 H          1 MOL1         0.0972
       4    H3      21.449709   17.174134   20.930665 H          1 MOL1         0.0972
       5    C2      20.740891   19.245069   21.091206 C.3        1 MOL1        -0.1383
       6    H4      20.783621   20.157845   20.480294 H          1 MOL1         0.0961
       7    H5      21.295964   19.472031   22.009270 H          1 MOL1         0.0961
       8    C3      19.261397   18.907808   21.398769 C.3        1 MOL1        -0.1407
       9    H6      18.721959   18.860879   20.442409 H          1 MOL1         0.0961
      10    H7      19.163359   17.906935   21.839485 H          1 MOL1         0.0961
      11    C4      18.571725   19.962586   22.301285 C.3        1 MOL1        -0.1407
      12    H8      17.536595   20.081135   21.952031 H          1 MOL1         0.0961
      13    H9      19.041525   20.946021   22.160986 H          1 MOL1         0.0961
      14    C5      18.511861   19.615958   23.814496 C.3        1 MOL1        -0.1472
      15    H10     17.934955   20.412184   24.303680 H          1 MOL1         0.0961
      16    H11     17.933493   18.694864   23.965362 H          1 MOL1         0.0961
      17    C6      19.881391   19.493055   24.522674 C.3        1 MOL1         0.1190
      18    H12     20.539033   20.280611   24.142269 H          1 MOL1         0.0923
      19    C7      19.721273   19.690114   26.039152 C.3        1 MOL1        -0.2463
      20    H13     20.692102   19.619130   26.545013 H          1 MOL1         0.0972
      21    H14     19.054888   18.932122   26.469702 H          1 MOL1         0.0972
      22    H15     19.303466   20.679626   26.262878 H          1 MOL1         0.0972
      23    N1      20.556972   18.176683   24.250374 N.4        1 MOL1        -0.5974
      24    H16     20.008053   17.394553   24.617300 H          1 MOL1         0.3625
      25    H17     20.676707   18.028486   23.243769 H          1 MOL1         0.3625
      26    H18     21.482644   18.133178   24.686402 H          1 MOL1         0.3625
@<TRIPOS>BOND
    1     1     2    1
    2     1     3    1
    3     1     4    1
    4     1     5    1
    5     5     6    1
    6     5     7    1
    7     5     8    1
    8     8     9    1
    9     8    10    1
   10     8    11    1
   11    11    12    1
   12    11    13    1
   13    11    14    1
   14    14    15    1
   15    14    16    1
   16    14    17    1
   17    17    18    1
   18    17    19    1
   19    19    20    1
   20    19    21    1
   21    19    22    1
   22    17    23    1
   23    23    24    1
   24    23    25    1
   25    23    26    1
@<TRIPOS>SUBSTRUCTURE
       1 MOL1            1 RESIDUE      1      MOL     
@<SCITEGIC>MOL_PROPERTY
VM2 Rank
SciTegic.value.IntegerValue
85

@<SCITEGIC>MOL_PROPERTY
Conf_Id
SciTegic.value.IntegerValue
1070

@<SCITEGIC>MOL_PROPERTY
Probability
SciTegic.value.DoubleValue
0.00

@<SCITEGIC>MOL_PROPERTY
Sum Probability
SciTegic.value.DoubleValue
100.00

@<SCITEGIC>MOL_PROPERTY
Delta G
SciTegic.value.DoubleValue
7.072

@<SCITEGIC>MOL_PROPERTY
G
SciTegic.value.DoubleValue
30.781

@<SCITEGIC>MOL_PROPERTY
E
SciTegic.value.DoubleValue
-2.480

@<SCITEGIC>MOL_PROPERTY
-TS
SciTegic.value.DoubleValue
33.261

@<SCITEGIC>MOL_PROPERTY
U+W
SciTegic.value.DoubleValue
-23.941

@<SCITEGIC>MOL_PROPERTY
U
SciTegic.value.DoubleValue
28.934

@<SCITEGIC>MOL_PROPERTY
W
SciTegic.value.DoubleValue
-52.876

@<SCITEGIC>MOL_PROPERTY
W(PB)
SciTegic.value.DoubleValue
-55.146

@<SCITEGIC>MOL_PROPERTY
W(SA)
SciTegic.value.DoubleValue
2.271

@<SCITEGIC>MOL_PROPERTY
Valence
SciTegic.value.DoubleValue
7.029

@<SCITEGIC>MOL_PROPERTY
Coulomb
SciTegic.value.DoubleValue
21.124

@<SCITEGIC>MOL_PROPERTY
VdW
SciTegic.value.DoubleValue
0.781

@<SCITEGIC>MOL_PROPERTY
VdW6
SciTegic.value.DoubleValue
-9.550

@<SCITEGIC>MOL_PROPERTY
VdW12
SciTegic.value.DoubleValue
10.332

@<SCITEGIC>MOL_PROPERTY
Bond
SciTegic.value.DoubleValue
0.264

@<SCITEGIC>MOL_PROPERTY
Angle
SciTegic.value.DoubleValue
2.108

@<SCITEGIC>MOL_PROPERTY
Pdih
SciTegic.value.DoubleValue
4.657

@<SCITEGIC>MOL_PROPERTY
Idih
SciTegic.value.DoubleValue
0.000

@<SCITEGIC>MOL_PROPERTY
Tether
SciTegic.value.DoubleValue
0.000

@<TRIPOS>MOLECULE
guest-s13_vm2.mol2 : vm2 ligand conformer 86
          26          25           1
SMALL
USER_CHARGES
 
@<TRIPOS>ATOM
       1    C1      19.475608   17.670388   20.635198 C.3        1 MOL1        -0.2398
       2    H1      18.427603   17.815800   20.342527 H          1 MOL1         0.0972
       3    H2      19.898100   16.893006   19.985522 H          1 MOL1         0.0972
       4    H3      19.489460   17.289616   21.662556 H          1 MOL1         0.0972
       5    C2      20.275219   18.986395   20.495462 C.3        1 MOL1        -0.1383
       6    H4      20.234578   19.300490   19.443015 H          1 MOL1         0.0961
       7    H5      21.337362   18.809926   20.715150 H          1 MOL1         0.0961
       8    C3      19.719318   20.133212   21.379450 C.3        1 MOL1        -0.1407
       9    H6      19.684372   21.044882   20.767063 H          1 MOL1         0.0961
      10    H7      18.676533   19.931762   21.649088 H          1 MOL1         0.0961
      11    C4      20.577045   20.453741   22.635085 C.3        1 MOL1        -0.1407
      12    H8      20.178688   21.348829   23.132407 H          1 MOL1         0.0961
      13    H9      21.580533   20.736754   22.288107 H          1 MOL1         0.0961
      14    C5      20.729736   19.310571   23.676293 C.3        1 MOL1        -0.1472
      15    H10     20.776859   18.334848   23.181746 H          1 MOL1         0.0961
      16    H11     21.709108   19.437442   24.156166 H          1 MOL1         0.0961
      17    C6      19.672150   19.293082   24.806976 C.3        1 MOL1         0.1190
      18    H12     19.717165   20.253927   25.328844 H          1 MOL1         0.0923
      19    C7      18.236241   19.097245   24.293675 C.3        1 MOL1        -0.2463
      20    H13     18.160486   18.218682   23.641604 H          1 MOL1         0.0972
      21    H14     17.896470   19.978542   23.738889 H          1 MOL1         0.0972
      22    H15     17.540848   18.960911   25.130985 H          1 MOL1         0.0972
      23    N1      20.002683   18.243366   25.831861 N.4        1 MOL1        -0.5974
      24    H16     20.937263   18.382321   26.226614 H          1 MOL1         0.3625
      25    H17     19.338440   18.259372   26.610906 H          1 MOL1         0.3625
      26    H18     19.975944   17.303731   25.427259 H          1 MOL1         0.3625
@<TRIPOS>BOND
    1     1     2    1
    2     1     3    1
    3     1     4    1
    4     1     5    1
    5     5     6    1
    6     5     7    1
    7     5     8    1
    8     8     9    1
    9     8    10    1
   10     8    11    1
   11    11    12    1
   12    11    13    1
   13    11    14    1
   14    14    15    1
   15    14    16    1
   16    14    17    1
   17    17    18    1
   18    17    19    1
   19    19    20    1
   20    19    21    1
   21    19    22    1
   22    17    23    1
   23    23    24    1
   24    23    25    1
   25    23    26    1
@<TRIPOS>SUBSTRUCTURE
       1 MOL1            1 RESIDUE      1      MOL     
@<SCITEGIC>MOL_PROPERTY
VM2 Rank
SciTegic.value.IntegerValue
86

@<SCITEGIC>MOL_PROPERTY
Conf_Id
SciTegic.value.IntegerValue
239

@<SCITEGIC>MOL_PROPERTY
Probability
SciTegic.value.DoubleValue
0.00

@<SCITEGIC>MOL_PROPERTY
Sum Probability
SciTegic.value.DoubleValue
100.00

@<SCITEGIC>MOL_PROPERTY
Delta G
SciTegic.value.DoubleValue
7.228

@<SCITEGIC>MOL_PROPERTY
G
SciTegic.value.DoubleValue
30.938

@<SCITEGIC>MOL_PROPERTY
E
SciTegic.value.DoubleValue
-2.278

@<SCITEGIC>MOL_PROPERTY
-TS
SciTegic.value.DoubleValue
33.216

@<SCITEGIC>MOL_PROPERTY
U+W
SciTegic.value.DoubleValue
-23.740

@<SCITEGIC>MOL_PROPERTY
U
SciTegic.value.DoubleValue
30.750

@<SCITEGIC>MOL_PROPERTY
W
SciTegic.value.DoubleValue
-54.489

@<SCITEGIC>MOL_PROPERTY
W(PB)
SciTegic.value.DoubleValue
-56.702

@<SCITEGIC>MOL_PROPERTY
W(SA)
SciTegic.value.DoubleValue
2.212

@<SCITEGIC>MOL_PROPERTY
Valence
SciTegic.value.DoubleValue
9.482

@<SCITEGIC>MOL_PROPERTY
Coulomb
SciTegic.value.DoubleValue
20.298

@<SCITEGIC>MOL_PROPERTY
VdW
SciTegic.value.DoubleValue
0.970

@<SCITEGIC>MOL_PROPERTY
VdW6
SciTegic.value.DoubleValue
-9.658

@<SCITEGIC>MOL_PROPERTY
VdW12
SciTegic.value.DoubleValue
10.628

@<SCITEGIC>MOL_PROPERTY
Bond
SciTegic.value.DoubleValue
0.353

@<SCITEGIC>MOL_PROPERTY
Angle
SciTegic.value.DoubleValue
2.952

@<SCITEGIC>MOL_PROPERTY
Pdih
SciTegic.value.DoubleValue
6.177

@<SCITEGIC>MOL_PROPERTY
Idih
SciTegic.value.DoubleValue
0.000

@<SCITEGIC>MOL_PROPERTY
Tether
SciTegic.value.DoubleValue
0.000

@<TRIPOS>MOLECULE
guest-s13_vm2.mol2 : vm2 ligand conformer 87
          26          25           1
SMALL
USER_CHARGES
 
@<TRIPOS>ATOM
       1    C1      20.917925   19.574946   19.955425 C.3        1 MOL1        -0.2398
       2    H1      20.557864   18.970577   19.112726 H          1 MOL1         0.0972
       3    H2      20.247401   20.435501   20.068679 H          1 MOL1         0.0972
       4    H3      21.910475   19.960996   19.689380 H          1 MOL1         0.0972
       5    C2      20.993585   18.733823   21.250124 C.3        1 MOL1        -0.1383
       6    H4      21.381178   19.361302   22.061950 H          1 MOL1         0.0961
       7    H5      21.727070   17.929211   21.099730 H          1 MOL1         0.0961
       8    C3      19.630840   18.102904   21.637635 C.3        1 MOL1        -0.1407
       9    H6      19.205530   17.631526   20.740654 H          1 MOL1         0.0961
      10    H7      19.778894   17.279074   22.348151 H          1 MOL1         0.0961
      11    C4      18.597687   19.111320   22.207896 C.3        1 MOL1        -0.1407
      12    H8      17.605547   18.823959   21.833171 H          1 MOL1         0.0961
      13    H9      18.778073   20.117798   21.809246 H          1 MOL1         0.0961
      14    C5      18.505158   19.175074   23.756932 C.3        1 MOL1        -0.1472
      15    H10     17.680293   19.857872   24.000821 H          1 MOL1         0.0961
      16    H11     18.208580   18.196564   24.157188 H          1 MOL1         0.0961
      17    C6      19.782995   19.668888   24.474444 C.3        1 MOL1         0.1190
      18    H12     20.224347   20.473944   23.878934 H          1 MOL1         0.0923
      19    C7      19.436997   20.230752   25.863293 C.3        1 MOL1        -0.2463
      20    H13     20.338652   20.595321   26.370788 H          1 MOL1         0.0972
      21    H14     18.973690   19.464346   26.497300 H          1 MOL1         0.0972
      22    H15     18.739972   21.074073   25.781298 H          1 MOL1         0.0972
      23    N1      20.822813   18.590292   24.608252 N.4        1 MOL1        -0.5974
      24    H16     21.681358   18.948190   25.036719 H          1 MOL1         0.3625
      25    H17     20.486367   17.820720   25.193191 H          1 MOL1         0.3625
      26    H18     21.067400   18.201052   23.693685 H          1 MOL1         0.3625
@<TRIPOS>BOND
    1     1     2    1
    2     1     3    1
    3     1     4    1
    4     1     5    1
    5     5     6    1
    6     5     7    1
    7     5     8    1
    8     8     9    1
    9     8    10    1
   10     8    11    1
   11    11    12    1
   12    11    13    1
   13    11    14    1
   14    14    15    1
   15    14    16    1
   16    14    17    1
   17    17    18    1
   18    17    19    1
   19    19    20    1
   20    19    21    1
   21    19    22    1
   22    17    23    1
   23    23    24    1
   24    23    25    1
   25    23    26    1
@<TRIPOS>SUBSTRUCTURE
       1 MOL1            1 RESIDUE      1      MOL     
@<SCITEGIC>MOL_PROPERTY
VM2 Rank
SciTegic.value.IntegerValue
87

@<SCITEGIC>MOL_PROPERTY
Conf_Id
SciTegic.value.IntegerValue
258

@<SCITEGIC>MOL_PROPERTY
Probability
SciTegic.value.DoubleValue
0.00

@<SCITEGIC>MOL_PROPERTY
Sum Probability
SciTegic.value.DoubleValue
100.00

@<SCITEGIC>MOL_PROPERTY
Delta G
SciTegic.value.DoubleValue
7.300

@<SCITEGIC>MOL_PROPERTY
G
SciTegic.value.DoubleValue
31.009

@<SCITEGIC>MOL_PROPERTY
E
SciTegic.value.DoubleValue
-2.224

@<SCITEGIC>MOL_PROPERTY
-TS
SciTegic.value.DoubleValue
33.233

@<SCITEGIC>MOL_PROPERTY
U+W
SciTegic.value.DoubleValue
-23.685

@<SCITEGIC>MOL_PROPERTY
U
SciTegic.value.DoubleValue
30.033

@<SCITEGIC>MOL_PROPERTY
W
SciTegic.value.DoubleValue
-53.719

@<SCITEGIC>MOL_PROPERTY
W(PB)
SciTegic.value.DoubleValue
-55.956

@<SCITEGIC>MOL_PROPERTY
W(SA)
SciTegic.value.DoubleValue
2.237

@<SCITEGIC>MOL_PROPERTY
Valence
SciTegic.value.DoubleValue
7.747

@<SCITEGIC>MOL_PROPERTY
Coulomb
SciTegic.value.DoubleValue
21.341

@<SCITEGIC>MOL_PROPERTY
VdW
SciTegic.value.DoubleValue
0.945

@<SCITEGIC>MOL_PROPERTY
VdW6
SciTegic.value.DoubleValue
-9.749

@<SCITEGIC>MOL_PROPERTY
VdW12
SciTegic.value.DoubleValue
10.694

@<SCITEGIC>MOL_PROPERTY
Bond
SciTegic.value.DoubleValue
0.311

@<SCITEGIC>MOL_PROPERTY
Angle
SciTegic.value.DoubleValue
2.246

@<SCITEGIC>MOL_PROPERTY
Pdih
SciTegic.value.DoubleValue
5.191

@<SCITEGIC>MOL_PROPERTY
Idih
SciTegic.value.DoubleValue
0.000

@<SCITEGIC>MOL_PROPERTY
Tether
SciTegic.value.DoubleValue
0.000

@<TRIPOS>MOLECULE
guest-s13_vm2.mol2 : vm2 ligand conformer 88
          26          25           1
SMALL
USER_CHARGES
 
@<TRIPOS>ATOM
       1    C1      20.464892   17.630848   20.229927 C.3        1 MOL1        -0.2398
       2    H1      19.893887   16.759452   19.883808 H          1 MOL1         0.0972
       3    H2      20.803987   18.183678   19.344058 H          1 MOL1         0.0972
       4    H3      21.351698   17.262739   20.762007 H          1 MOL1         0.0972
       5    C2      19.597173   18.523982   21.141159 C.3        1 MOL1        -0.1383
       6    H4      19.233201   17.930560   21.987289 H          1 MOL1         0.0961
       7    H5      18.704323   18.846412   20.587035 H          1 MOL1         0.0961
       8    C3      20.375755   19.770333   21.626770 C.3        1 MOL1        -0.1407
       9    H6      21.344290   19.485055   22.058135 H          1 MOL1         0.0961
      10    H7      20.617706   20.380487   20.745293 H          1 MOL1         0.0961
      11    C4      19.574508   20.647366   22.624707 C.3        1 MOL1        -0.1407
      12    H8      18.496395   20.464742   22.524828 H          1 MOL1         0.0961
      13    H9      19.711974   21.695945   22.326338 H          1 MOL1         0.0961
      14    C5      20.018833   20.537155   24.112331 C.3        1 MOL1        -0.1472
      15    H10     21.086913   20.779367   24.188829 H          1 MOL1         0.0961
      16    H11     19.503093   21.325714   24.676099 H          1 MOL1         0.0961
      17    C6      19.755793   19.196324   24.841798 C.3        1 MOL1         0.1190
      18    H12     20.034178   19.345644   25.889636 H          1 MOL1         0.0923
      19    C7      18.267655   18.804431   24.822876 C.3        1 MOL1        -0.2463
      20    H13     17.915985   18.572487   23.811813 H          1 MOL1         0.0972
      21    H14     17.648508   19.618132   25.220390 H          1 MOL1         0.0972
      22    H15     18.095392   17.920697   25.449294 H          1 MOL1         0.0972
      23    N1      20.633390   18.077562   24.354432 N.4        1 MOL1        -0.5974
      24    H16     21.624371   18.293060   24.496593 H          1 MOL1         0.3625
      25    H17     20.436309   17.202933   24.849294 H          1 MOL1         0.3625
      26    H18     20.494685   17.914206   23.353898 H          1 MOL1         0.3625
@<TRIPOS>BOND
    1     1     2    1
    2     1     3    1
    3     1     4    1
    4     1     5    1
    5     5     6    1
    6     5     7    1
    7     5     8    1
    8     8     9    1
    9     8    10    1
   10     8    11    1
   11    11    12    1
   12    11    13    1
   13    11    14    1
   14    14    15    1
   15    14    16    1
   16    14    17    1
   17    17    18    1
   18    17    19    1
   19    19    20    1
   20    19    21    1
   21    19    22    1
   22    17    23    1
   23    23    24    1
   24    23    25    1
   25    23    26    1
@<TRIPOS>SUBSTRUCTURE
       1 MOL1            1 RESIDUE      1      MOL     
@<SCITEGIC>MOL_PROPERTY
VM2 Rank
SciTegic.value.IntegerValue
88

@<SCITEGIC>MOL_PROPERTY
Conf_Id
SciTegic.value.IntegerValue
122

@<SCITEGIC>MOL_PROPERTY
Probability
SciTegic.value.DoubleValue
0.00

@<SCITEGIC>MOL_PROPERTY
Sum Probability
SciTegic.value.DoubleValue
100.00

@<SCITEGIC>MOL_PROPERTY
Delta G
SciTegic.value.DoubleValue
7.754

@<SCITEGIC>MOL_PROPERTY
G
SciTegic.value.DoubleValue
31.464

@<SCITEGIC>MOL_PROPERTY
E
SciTegic.value.DoubleValue
-2.237

@<SCITEGIC>MOL_PROPERTY
-TS
SciTegic.value.DoubleValue
33.701

@<SCITEGIC>MOL_PROPERTY
U+W
SciTegic.value.DoubleValue
-23.699

@<SCITEGIC>MOL_PROPERTY
U
SciTegic.value.DoubleValue
29.525

@<SCITEGIC>MOL_PROPERTY
W
SciTegic.value.DoubleValue
-53.224

@<SCITEGIC>MOL_PROPERTY
W(PB)
SciTegic.value.DoubleValue
-55.435

@<SCITEGIC>MOL_PROPERTY
W(SA)
SciTegic.value.DoubleValue
2.211

@<SCITEGIC>MOL_PROPERTY
Valence
SciTegic.value.DoubleValue
7.633

@<SCITEGIC>MOL_PROPERTY
Coulomb
SciTegic.value.DoubleValue
21.335

@<SCITEGIC>MOL_PROPERTY
VdW
SciTegic.value.DoubleValue
0.556

@<SCITEGIC>MOL_PROPERTY
VdW6
SciTegic.value.DoubleValue
-10.324

@<SCITEGIC>MOL_PROPERTY
VdW12
SciTegic.value.DoubleValue
10.880

@<SCITEGIC>MOL_PROPERTY
Bond
SciTegic.value.DoubleValue
0.326

@<SCITEGIC>MOL_PROPERTY
Angle
SciTegic.value.DoubleValue
2.670

@<SCITEGIC>MOL_PROPERTY
Pdih
SciTegic.value.DoubleValue
4.637

@<SCITEGIC>MOL_PROPERTY
Idih
SciTegic.value.DoubleValue
0.000

@<SCITEGIC>MOL_PROPERTY
Tether
SciTegic.value.DoubleValue
0.000

@<TRIPOS>MOLECULE
guest-s13_vm2.mol2 : vm2 ligand conformer 89
          26          25           1
SMALL
USER_CHARGES
 
@<TRIPOS>ATOM
       1    C1      18.870419   19.333134   20.489198 C.3        1 MOL1        -0.2398
       2    H1      18.447529   19.293239   19.477066 H          1 MOL1         0.0972
       3    H2      18.110775   18.954115   21.183818 H          1 MOL1         0.0972
       4    H3      19.063133   20.387881   20.715103 H          1 MOL1         0.0972
       5    C2      20.166503   18.497574   20.560978 C.3        1 MOL1        -0.1383
       6    H4      20.942226   18.975810   19.946851 H          1 MOL1         0.0961
       7    H5      19.974629   17.520107   20.096740 H          1 MOL1         0.0961
       8    C3      20.711348   18.253466   21.992155 C.3        1 MOL1        -0.1407
       9    H6      19.990790   17.680085   22.582229 H          1 MOL1         0.0961
      10    H7      21.581147   17.589873   21.889364 H          1 MOL1         0.0961
      11    C4      21.186338   19.521258   22.752975 C.3        1 MOL1        -0.1407
      12    H8      21.683154   20.193219   22.039858 H          1 MOL1         0.0961
      13    H9      21.977701   19.224914   23.454346 H          1 MOL1         0.0961
      14    C5      20.114759   20.333894   23.541913 C.3        1 MOL1        -0.1472
      15    H10     20.634933   21.194980   23.981308 H          1 MOL1         0.0961
      16    H11     19.380481   20.776169   22.861355 H          1 MOL1         0.0961
      17    C6      19.380559   19.618831   24.707507 C.3        1 MOL1         0.1190
      18    H12     19.150724   20.390901   25.448360 H          1 MOL1         0.0923
      19    C7      18.027216   19.020980   24.280352 C.3        1 MOL1        -0.2463
      20    H13     18.137572   18.192175   23.575485 H          1 MOL1         0.0972
      21    H14     17.396001   19.785231   23.810388 H          1 MOL1         0.0972
      22    H15     17.485217   18.642143   25.155461 H          1 MOL1         0.0972
      23    N1      20.230858   18.608863   25.428922 N.4        1 MOL1        -0.5974
      24    H16     21.085874   19.035847   25.796237 H          1 MOL1         0.3625
      25    H17     19.730868   18.193537   26.220045 H          1 MOL1         0.3625
      26    H18     20.509886   17.849195   24.803342 H          1 MOL1         0.3625
@<TRIPOS>BOND
    1     1     2    1
    2     1     3    1
    3     1     4    1
    4     1     5    1
    5     5     6    1
    6     5     7    1
    7     5     8    1
    8     8     9    1
    9     8    10    1
   10     8    11    1
   11    11    12    1
   12    11    13    1
   13    11    14    1
   14    14    15    1
   15    14    16    1
   16    14    17    1
   17    17    18    1
   18    17    19    1
   19    19    20    1
   20    19    21    1
   21    19    22    1
   22    17    23    1
   23    23    24    1
   24    23    25    1
   25    23    26    1
@<TRIPOS>SUBSTRUCTURE
       1 MOL1            1 RESIDUE      1      MOL     
@<SCITEGIC>MOL_PROPERTY
VM2 Rank
SciTegic.value.IntegerValue
89

@<SCITEGIC>MOL_PROPERTY
Conf_Id
SciTegic.value.IntegerValue
249

@<SCITEGIC>MOL_PROPERTY
Probability
SciTegic.value.DoubleValue
0.00

@<SCITEGIC>MOL_PROPERTY
Sum Probability
SciTegic.value.DoubleValue
100.00

@<SCITEGIC>MOL_PROPERTY
Delta G
SciTegic.value.DoubleValue
8.060

@<SCITEGIC>MOL_PROPERTY
G
SciTegic.value.DoubleValue
31.770

@<SCITEGIC>MOL_PROPERTY
E
SciTegic.value.DoubleValue
-1.720

@<SCITEGIC>MOL_PROPERTY
-TS
SciTegic.value.DoubleValue
33.489

@<SCITEGIC>MOL_PROPERTY
U+W
SciTegic.value.DoubleValue
-23.182

@<SCITEGIC>MOL_PROPERTY
U
SciTegic.value.DoubleValue
31.350

@<SCITEGIC>MOL_PROPERTY
W
SciTegic.value.DoubleValue
-54.532

@<SCITEGIC>MOL_PROPERTY
W(PB)
SciTegic.value.DoubleValue
-56.675

@<SCITEGIC>MOL_PROPERTY
W(SA)
SciTegic.value.DoubleValue
2.143

@<SCITEGIC>MOL_PROPERTY
Valence
SciTegic.value.DoubleValue
9.658

@<SCITEGIC>MOL_PROPERTY
Coulomb
SciTegic.value.DoubleValue
20.873

@<SCITEGIC>MOL_PROPERTY
VdW
SciTegic.value.DoubleValue
0.819

@<SCITEGIC>MOL_PROPERTY
VdW6
SciTegic.value.DoubleValue
-10.582

@<SCITEGIC>MOL_PROPERTY
VdW12
SciTegic.value.DoubleValue
11.401

@<SCITEGIC>MOL_PROPERTY
Bond
SciTegic.value.DoubleValue
0.428

@<SCITEGIC>MOL_PROPERTY
Angle
SciTegic.value.DoubleValue
4.179

@<SCITEGIC>MOL_PROPERTY
Pdih
SciTegic.value.DoubleValue
5.050

@<SCITEGIC>MOL_PROPERTY
Idih
SciTegic.value.DoubleValue
0.000

@<SCITEGIC>MOL_PROPERTY
Tether
SciTegic.value.DoubleValue
0.000

