VeraChem MOL file


 26 25  0  0  0  0  0  0  0  0999 V2000     
   20.2414   18.6563   18.8060 C   0  0  0  0  0  0  0  0  0  0  0  0
   19.6046   19.4972   18.5017 H   0  0  0  0  0  0  0  0  0  0  0  0
   21.0557   18.5687   18.0750 H   0  0  0  0  0  0  0  0  0  0  0  0
   19.6424   17.7377   18.7549 H   0  0  0  0  0  0  0  0  0  0  0  0
   20.8051   18.8728   20.2264 C   0  0  0  0  0  0  0  0  0  0  0  0
   21.4264   19.7793   20.2377 H   0  0  0  0  0  0  0  0  0  0  0  0
   21.4642   18.0334   20.4887 H   0  0  0  0  0  0  0  0  0  0  0  0
   19.6785   18.9995   21.2757 C   0  0  0  0  0  0  0  0  0  0  0  0
   19.0208   19.8376   21.0067 H   0  0  0  0  0  0  0  0  0  0  0  0
   19.0592   18.0918   21.2594 H   0  0  0  0  0  0  0  0  0  0  0  0
   20.2389   19.2173   22.6994 C   0  0  0  0  0  0  0  0  0  0  0  0
   20.8549   20.1273   22.7150 H   0  0  0  0  0  0  0  0  0  0  0  0
   20.9000   18.3793   22.9576 H   0  0  0  0  0  0  0  0  0  0  0  0
   19.1076   19.3422   23.7488 C   0  0  0  0  0  0  0  0  0  0  0  0
   18.4279   20.1490   23.4433 H   0  0  0  0  0  0  0  0  0  0  0  0
   18.5119   18.4198   23.7646 H   0  0  0  0  0  0  0  0  0  0  0  0
   19.6331   19.6456   25.1688 C   0  0  1  0  0  0  0  0  0  0  0  0
   20.2419   20.5539   25.1222 H   0  0  0  0  0  0  0  0  0  0  0  0
   18.4605   19.8996   26.1296 C   0  0  0  0  0  0  0  0  0  0  0  0
   17.8446   20.7377   25.7803 H   0  0  0  0  0  0  0  0  0  0  0  0
   18.8276   20.1521   27.1321 H   0  0  0  0  0  0  0  0  0  0  0  0
   17.8173   19.0147   26.2138 H   0  0  0  0  0  0  0  0  0  0  0  0
   20.5229   18.5546   25.6994 N   0  3  0  0  0  0  0  0  0  0  0  0
   20.8769   18.7815   26.6330 H   0  0  0  0  0  0  0  0  0  0  0  0
   20.0217   17.6651   25.7697 H   0  0  0  0  0  0  0  0  0  0  0  0
   21.3337   18.4049   25.0931 H   0  0  0  0  0  0  0  0  0  0  0  0
  1  2  1  0  0  0  0
  1  3  1  0  0  0  0
  1  4  1  0  0  0  0
  1  5  1  0  0  0  0
  5  6  1  0  0  0  0
  5  7  1  0  0  0  0
  5  8  1  0  0  0  0
  8  9  1  0  0  0  0
  8 10  1  0  0  0  0
  8 11  1  0  0  0  0
 11 12  1  0  0  0  0
 11 13  1  0  0  0  0
 11 14  1  0  0  0  0
 14 15  1  0  0  0  0
 14 16  1  0  0  0  0
 14 17  1  0  0  0  0
 17 18  1  0  0  0  0
 17 19  1  0  0  0  0
 19 20  1  0  0  0  0
 19 21  1  0  0  0  0
 19 22  1  0  0  0  0
 17 23  1  0  0  0  0
 23 24  1  0  0  0  0
 23 25  1  0  0  0  0
 23 26  1  0  0  0  0
M  END
> <VM2 Rank>
1

> <Conf_Id>
1163

> <Probability>
17.00

> <Sum Probability>
17.00

> <Delta G>
0.000

> <G>
23.710

> <E>
-8.843

> <-TS>
32.553

> <U+W>
-30.305

> <U>
23.517

> <W>
-53.819

> <W(PB)>
-56.165

> <W(SA)>
2.346

> <Valence>
2.737

> <Coulomb>
19.862

> <VdW>
0.919

> <VdW6>
-6.793

> <VdW12>
7.712

> <Bond>
0.171

> <Angle>
0.873

> <Pdih>
1.693

> <Idih>
0.000

> <Tether>
0.000

$$$$
VeraChem MOL file


 26 25  0  0  0  0  0  0  0  0999 V2000     
   20.2651   18.6437   18.8026 C   0  0  0  0  0  0  0  0  0  0  0  0
   20.3176   19.2783   17.9084 H   0  0  0  0  0  0  0  0  0  0  0  0
   21.1742   18.0290   18.8332 H   0  0  0  0  0  0  0  0  0  0  0  0
   19.4028   17.9737   18.6902 H   0  0  0  0  0  0  0  0  0  0  0  0
   20.1354   19.5062   20.0760 C   0  0  0  0  0  0  0  0  0  0  0  0
   19.2364   20.1340   20.0008 H   0  0  0  0  0  0  0  0  0  0  0  0
   20.9941   20.1888   20.1429 H   0  0  0  0  0  0  0  0  0  0  0  0
   20.0596   18.6366   21.3506 C   0  0  0  0  0  0  0  0  0  0  0  0
   19.2008   17.9549   21.2782 H   0  0  0  0  0  0  0  0  0  0  0  0
   20.9588   18.0088   21.4187 H   0  0  0  0  0  0  0  0  0  0  0  0
   19.9301   19.4968   22.6281 C   0  0  0  0  0  0  0  0  0  0  0  0
   19.0340   20.1257   22.5455 H   0  0  0  0  0  0  0  0  0  0  0  0
   20.7917   20.1749   22.7022 H   0  0  0  0  0  0  0  0  0  0  0  0
   19.8499   18.6222   23.9036 C   0  0  0  0  0  0  0  0  0  0  0  0
   18.9532   17.9895   23.8631 H   0  0  0  0  0  0  0  0  0  0  0  0
   20.7110   17.9409   23.9147 H   0  0  0  0  0  0  0  0  0  0  0  0
   19.8535   19.4355   25.2183 C   0  0  1  0  0  0  0  0  0  0  0  0
   20.7327   20.0872   25.2160 H   0  0  0  0  0  0  0  0  0  0  0  0
   18.5969   20.3130   25.3618 C   0  0  0  0  0  0  0  0  0  0  0  0
   18.5528   21.0781   24.5783 H   0  0  0  0  0  0  0  0  0  0  0  0
   18.5996   20.8367   26.3256 H   0  0  0  0  0  0  0  0  0  0  0  0
   17.6826   19.7092   25.3055 H   0  0  0  0  0  0  0  0  0  0  0  0
   19.9974   18.5340   26.4131 N   0  3  0  0  0  0  0  0  0  0  0  0
   19.2077   17.8877   26.4920 H   0  0  0  0  0  0  0  0  0  0  0  0
   20.8513   17.9712   26.3607 H   0  0  0  0  0  0  0  0  0  0  0  0
   20.0405   19.0710   27.2839 H   0  0  0  0  0  0  0  0  0  0  0  0
  1  2  1  0  0  0  0
  1  3  1  0  0  0  0
  1  4  1  0  0  0  0
  1  5  1  0  0  0  0
  5  6  1  0  0  0  0
  5  7  1  0  0  0  0
  5  8  1  0  0  0  0
  8  9  1  0  0  0  0
  8 10  1  0  0  0  0
  8 11  1  0  0  0  0
 11 12  1  0  0  0  0
 11 13  1  0  0  0  0
 11 14  1  0  0  0  0
 14 15  1  0  0  0  0
 14 16  1  0  0  0  0
 14 17  1  0  0  0  0
 17 18  1  0  0  0  0
 17 19  1  0  0  0  0
 19 20  1  0  0  0  0
 19 21  1  0  0  0  0
 19 22  1  0  0  0  0
 17 23  1  0  0  0  0
 23 24  1  0  0  0  0
 23 25  1  0  0  0  0
 23 26  1  0  0  0  0
M  END
> <VM2 Rank>
2

> <Conf_Id>
618

> <Probability>
7.68

> <Sum Probability>
24.68

> <Delta G>
0.474

> <G>
24.183

> <E>
-8.383

> <-TS>
32.566

> <U+W>
-29.845

> <U>
23.817

> <W>
-53.662

> <W(PB)>
-56.020

> <W(SA)>
2.358

> <Valence>
3.277

> <Coulomb>
19.492

> <VdW>
1.049

> <VdW6>
-6.949

> <VdW12>
7.998

> <Bond>
0.183

> <Angle>
1.152

> <Pdih>
1.942

> <Idih>
0.000

> <Tether>
0.000

$$$$
VeraChem MOL file


 26 25  0  0  0  0  0  0  0  0999 V2000     
   20.3613   18.7664   18.8989 C   0  0  0  0  0  0  0  0  0  0  0  0
   20.3291   17.9289   18.1900 H   0  0  0  0  0  0  0  0  0  0  0  0
   19.6207   19.5098   18.5761 H   0  0  0  0  0  0  0  0  0  0  0  0
   21.3567   19.2248   18.8338 H   0  0  0  0  0  0  0  0  0  0  0  0
   20.0681   18.2779   20.3333 C   0  0  0  0  0  0  0  0  0  0  0  0
   20.8041   17.5117   20.6148 H   0  0  0  0  0  0  0  0  0  0  0  0
   19.0814   17.7945   20.3591 H   0  0  0  0  0  0  0  0  0  0  0  0
   20.1073   19.4385   21.3520 C   0  0  0  0  0  0  0  0  0  0  0  0
   21.0946   19.9199   21.3202 H   0  0  0  0  0  0  0  0  0  0  0  0
   19.3719   20.2027   21.0647 H   0  0  0  0  0  0  0  0  0  0  0  0
   19.8141   18.9535   22.7899 C   0  0  0  0  0  0  0  0  0  0  0  0
   20.5511   18.1892   23.0694 H   0  0  0  0  0  0  0  0  0  0  0  0
   18.8283   18.4705   22.8097 H   0  0  0  0  0  0  0  0  0  0  0  0
   19.8522   20.1239   23.8070 C   0  0  0  0  0  0  0  0  0  0  0  0
   20.8255   20.6276   23.7405 H   0  0  0  0  0  0  0  0  0  0  0  0
   19.1035   20.8755   23.5235 H   0  0  0  0  0  0  0  0  0  0  0  0
   19.6133   19.7157   25.2800 C   0  0  1  0  0  0  0  0  0  0  0  0
   19.6967   20.6232   25.8861 H   0  0  0  0  0  0  0  0  0  0  0  0
   18.2040   19.1383   25.4995 C   0  0  0  0  0  0  0  0  0  0  0  0
   18.0143   18.9865   26.5691 H   0  0  0  0  0  0  0  0  0  0  0  0
   18.0784   18.1718   24.9971 H   0  0  0  0  0  0  0  0  0  0  0  0
   17.4376   19.8256   25.1203 H   0  0  0  0  0  0  0  0  0  0  0  0
   20.6676   18.7738   25.7935 N   0  3  0  0  0  0  0  0  0  0  0  0
   20.5304   18.5640   26.7863 H   0  0  0  0  0  0  0  0  0  0  0  0
   20.6509   17.8852   25.2872 H   0  0  0  0  0  0  0  0  0  0  0  0
   21.6065   19.1695   25.6918 H   0  0  0  0  0  0  0  0  0  0  0  0
  1  2  1  0  0  0  0
  1  3  1  0  0  0  0
  1  4  1  0  0  0  0
  1  5  1  0  0  0  0
  5  6  1  0  0  0  0
  5  7  1  0  0  0  0
  5  8  1  0  0  0  0
  8  9  1  0  0  0  0
  8 10  1  0  0  0  0
  8 11  1  0  0  0  0
 11 12  1  0  0  0  0
 11 13  1  0  0  0  0
 11 14  1  0  0  0  0
 14 15  1  0  0  0  0
 14 16  1  0  0  0  0
 14 17  1  0  0  0  0
 17 18  1  0  0  0  0
 17 19  1  0  0  0  0
 19 20  1  0  0  0  0
 19 21  1  0  0  0  0
 19 22  1  0  0  0  0
 17 23  1  0  0  0  0
 23 24  1  0  0  0  0
 23 25  1  0  0  0  0
 23 26  1  0  0  0  0
M  END
> <VM2 Rank>
3

> <Conf_Id>
1283

> <Probability>
7.21

> <Sum Probability>
31.89

> <Delta G>
0.511

> <G>
24.221

> <E>
-8.477

> <-TS>
32.698

> <U+W>
-29.939

> <U>
24.060

> <W>
-53.999

> <W(PB)>
-56.330

> <W(SA)>
2.332

> <Valence>
3.249

> <Coulomb>
19.781

> <VdW>
1.030

> <VdW6>
-7.421

> <VdW12>
8.450

> <Bond>
0.207

> <Angle>
1.205

> <Pdih>
1.837

> <Idih>
0.000

> <Tether>
0.000

$$$$
VeraChem MOL file


 26 25  0  0  0  0  0  0  0  0999 V2000     
   21.0479   19.5374   19.5908 C   0  0  0  0  0  0  0  0  0  0  0  0
   21.7406   19.8914   20.3643 H   0  0  0  0  0  0  0  0  0  0  0  0
   21.6438   19.2914   18.7024 H   0  0  0  0  0  0  0  0  0  0  0  0
   20.3759   20.3640   19.3258 H   0  0  0  0  0  0  0  0  0  0  0  0
   20.2494   18.3022   20.0654 C   0  0  0  0  0  0  0  0  0  0  0  0
   20.9444   17.5008   20.3527 H   0  0  0  0  0  0  0  0  0  0  0  0
   19.6642   17.9129   19.2205 H   0  0  0  0  0  0  0  0  0  0  0  0
   19.2862   18.6056   21.2383 C   0  0  0  0  0  0  0  0  0  0  0  0
   18.5786   19.3905   20.9375 H   0  0  0  0  0  0  0  0  0  0  0  0
   18.6852   17.7074   21.4371 H   0  0  0  0  0  0  0  0  0  0  0  0
   20.0117   19.0261   22.5390 C   0  0  0  0  0  0  0  0  0  0  0  0
   20.5566   19.9653   22.3752 H   0  0  0  0  0  0  0  0  0  0  0  0
   20.7575   18.2627   22.7974 H   0  0  0  0  0  0  0  0  0  0  0  0
   19.0190   19.2154   23.7118 C   0  0  0  0  0  0  0  0  0  0  0  0
   18.2492   19.9386   23.4111 H   0  0  0  0  0  0  0  0  0  0  0  0
   18.4987   18.2700   23.9151 H   0  0  0  0  0  0  0  0  0  0  0  0
   19.7000   19.7209   25.0022 C   0  0  1  0  0  0  0  0  0  0  0  0
   20.2299   20.6496   24.7689 H   0  0  0  0  0  0  0  0  0  0  0  0
   18.6460   20.0245   26.0790 C   0  0  0  0  0  0  0  0  0  0  0  0
   18.0851   19.1217   26.3514 H   0  0  0  0  0  0  0  0  0  0  0  0
   17.9308   20.7768   25.7235 H   0  0  0  0  0  0  0  0  0  0  0  0
   19.1200   20.4191   26.9862 H   0  0  0  0  0  0  0  0  0  0  0  0
   20.7278   18.7559   25.5274 N   0  3  0  0  0  0  0  0  0  0  0  0
   21.4619   18.5786   24.8367 H   0  0  0  0  0  0  0  0  0  0  0  0
   21.1823   19.1159   26.3713 H   0  0  0  0  0  0  0  0  0  0  0  0
   20.3057   17.8550   25.7674 H   0  0  0  0  0  0  0  0  0  0  0  0
  1  2  1  0  0  0  0
  1  3  1  0  0  0  0
  1  4  1  0  0  0  0
  1  5  1  0  0  0  0
  5  6  1  0  0  0  0
  5  7  1  0  0  0  0
  5  8  1  0  0  0  0
  8  9  1  0  0  0  0
  8 10  1  0  0  0  0
  8 11  1  0  0  0  0
 11 12  1  0  0  0  0
 11 13  1  0  0  0  0
 11 14  1  0  0  0  0
 14 15  1  0  0  0  0
 14 16  1  0  0  0  0
 14 17  1  0  0  0  0
 17 18  1  0  0  0  0
 17 19  1  0  0  0  0
 19 20  1  0  0  0  0
 19 21  1  0  0  0  0
 19 22  1  0  0  0  0
 17 23  1  0  0  0  0
 23 24  1  0  0  0  0
 23 25  1  0  0  0  0
 23 26  1  0  0  0  0
M  END
> <VM2 Rank>
4

> <Conf_Id>
1268

> <Probability>
6.27

> <Sum Probability>
38.17

> <Delta G>
0.594

> <G>
24.304

> <E>
-8.361

> <-TS>
32.665

> <U+W>
-29.822

> <U>
24.148

> <W>
-53.971

> <W(PB)>
-56.282

> <W(SA)>
2.311

> <Valence>
3.242

> <Coulomb>
19.863

> <VdW>
1.043

> <VdW6>
-7.422

> <VdW12>
8.465

> <Bond>
0.206

> <Angle>
1.112

> <Pdih>
1.924

> <Idih>
0.000

> <Tether>
0.000

$$$$
VeraChem MOL file


 26 25  0  0  0  0  0  0  0  0999 V2000     
   21.0697   18.0176   19.8286 C   0  0  0  0  0  0  0  0  0  0  0  0
   20.4117   17.1391   19.8177 H   0  0  0  0  0  0  0  0  0  0  0  0
   21.6580   18.0076   18.9019 H   0  0  0  0  0  0  0  0  0  0  0  0
   21.7715   17.9121   20.6650 H   0  0  0  0  0  0  0  0  0  0  0  0
   20.2510   19.3242   19.9349 C   0  0  0  0  0  0  0  0  0  0  0  0
   19.6582   19.4458   19.0175 H   0  0  0  0  0  0  0  0  0  0  0  0
   20.9327   20.1853   19.9764 H   0  0  0  0  0  0  0  0  0  0  0  0
   19.2943   19.3545   21.1513 C   0  0  0  0  0  0  0  0  0  0  0  0
   18.6764   20.2607   21.0853 H   0  0  0  0  0  0  0  0  0  0  0  0
   18.6017   18.5034   21.0943 H   0  0  0  0  0  0  0  0  0  0  0  0
   20.0282   19.3401   22.5138 C   0  0  0  0  0  0  0  0  0  0  0  0
   20.7543   20.1642   22.5471 H   0  0  0  0  0  0  0  0  0  0  0  0
   20.5965   18.4071   22.6136 H   0  0  0  0  0  0  0  0  0  0  0  0
   19.0395   19.4755   23.6975 C   0  0  0  0  0  0  0  0  0  0  0  0
   18.4433   20.3874   23.5598 H   0  0  0  0  0  0  0  0  0  0  0  0
   18.3330   18.6348   23.6892 H   0  0  0  0  0  0  0  0  0  0  0  0
   19.7463   19.5467   25.0687 C   0  0  1  0  0  0  0  0  0  0  0  0
   20.4616   20.3746   25.0430 H   0  0  0  0  0  0  0  0  0  0  0  0
   18.7246   19.8266   26.1825 C   0  0  0  0  0  0  0  0  0  0  0  0
   17.9821   19.0217   26.2517 H   0  0  0  0  0  0  0  0  0  0  0  0
   18.1920   20.7675   25.9957 H   0  0  0  0  0  0  0  0  0  0  0  0
   19.2246   19.9151   27.1549 H   0  0  0  0  0  0  0  0  0  0  0  0
   20.5343   18.3027   25.3768 N   0  3  0  0  0  0  0  0  0  0  0  0
   19.9299   17.4777   25.4148 H   0  0  0  0  0  0  0  0  0  0  0  0
   21.2508   18.1282   24.6672 H   0  0  0  0  0  0  0  0  0  0  0  0
   21.0103   18.3757   26.2805 H   0  0  0  0  0  0  0  0  0  0  0  0
  1  2  1  0  0  0  0
  1  3  1  0  0  0  0
  1  4  1  0  0  0  0
  1  5  1  0  0  0  0
  5  6  1  0  0  0  0
  5  7  1  0  0  0  0
  5  8  1  0  0  0  0
  8  9  1  0  0  0  0
  8 10  1  0  0  0  0
  8 11  1  0  0  0  0
 11 12  1  0  0  0  0
 11 13  1  0  0  0  0
 11 14  1  0  0  0  0
 14 15  1  0  0  0  0
 14 16  1  0  0  0  0
 14 17  1  0  0  0  0
 17 18  1  0  0  0  0
 17 19  1  0  0  0  0
 19 20  1  0  0  0  0
 19 21  1  0  0  0  0
 19 22  1  0  0  0  0
 17 23  1  0  0  0  0
 23 24  1  0  0  0  0
 23 25  1  0  0  0  0
 23 26  1  0  0  0  0
M  END
> <VM2 Rank>
5

> <Conf_Id>
1062

> <Probability>
6.03

> <Sum Probability>
44.20

> <Delta G>
0.618

> <G>
24.328

> <E>
-8.331

> <-TS>
32.658

> <U+W>
-29.793

> <U>
24.259

> <W>
-54.052

> <W(PB)>
-56.355

> <W(SA)>
2.304

> <Valence>
3.240

> <Coulomb>
19.971

> <VdW>
1.049

> <VdW6>
-7.431

> <VdW12>
8.480

> <Bond>
0.208

> <Angle>
1.110

> <Pdih>
1.922

> <Idih>
0.000

> <Tether>
0.000

$$$$
VeraChem MOL file


 26 25  0  0  0  0  0  0  0  0999 V2000     
   19.9267   18.4376   19.0849 C   0  0  0  0  0  0  0  0  0  0  0  0
   19.2237   19.2151   18.7584 H   0  0  0  0  0  0  0  0  0  0  0  0
   20.9095   18.6605   18.6494 H   0  0  0  0  0  0  0  0  0  0  0  0
   19.5852   17.4795   18.6721 H   0  0  0  0  0  0  0  0  0  0  0  0
   20.0037   18.3710   20.6250 C   0  0  0  0  0  0  0  0  0  0  0  0
   20.6908   17.5659   20.9206 H   0  0  0  0  0  0  0  0  0  0  0  0
   19.0138   18.1065   21.0198 H   0  0  0  0  0  0  0  0  0  0  0  0
   20.4795   19.7128   21.2304 C   0  0  0  0  0  0  0  0  0  0  0  0
   21.4336   19.9962   20.7649 H   0  0  0  0  0  0  0  0  0  0  0  0
   19.7649   20.5078   20.9760 H   0  0  0  0  0  0  0  0  0  0  0  0
   20.6775   19.6633   22.7653 C   0  0  0  0  0  0  0  0  0  0  0  0
   21.1157   20.6173   23.0902 H   0  0  0  0  0  0  0  0  0  0  0  0
   21.4129   18.8849   23.0087 H   0  0  0  0  0  0  0  0  0  0  0  0
   19.3623   19.4201   23.5489 C   0  0  0  0  0  0  0  0  0  0  0  0
   18.6078   20.1425   23.2099 H   0  0  0  0  0  0  0  0  0  0  0  0
   18.9664   18.4217   23.3241 H   0  0  0  0  0  0  0  0  0  0  0  0
   19.5397   19.5652   25.0758 C   0  0  1  0  0  0  0  0  0  0  0  0
   19.9496   20.5591   25.2803 H   0  0  0  0  0  0  0  0  0  0  0  0
   18.1814   19.4482   25.7856 C   0  0  0  0  0  0  0  0  0  0  0  0
   17.4847   20.2144   25.4231 H   0  0  0  0  0  0  0  0  0  0  0  0
   18.2954   19.5879   26.8677 H   0  0  0  0  0  0  0  0  0  0  0  0
   17.7268   18.4645   25.6139 H   0  0  0  0  0  0  0  0  0  0  0  0
   20.5173   18.5696   25.6383 N   0  3  0  0  0  0  0  0  0  0  0  0
   20.2019   17.6084   25.4839 H   0  0  0  0  0  0  0  0  0  0  0  0
   21.4394   18.6653   25.2048 H   0  0  0  0  0  0  0  0  0  0  0  0
   20.6391   18.6940   26.6473 H   0  0  0  0  0  0  0  0  0  0  0  0
  1  2  1  0  0  0  0
  1  3  1  0  0  0  0
  1  4  1  0  0  0  0
  1  5  1  0  0  0  0
  5  6  1  0  0  0  0
  5  7  1  0  0  0  0
  5  8  1  0  0  0  0
  8  9  1  0  0  0  0
  8 10  1  0  0  0  0
  8 11  1  0  0  0  0
 11 12  1  0  0  0  0
 11 13  1  0  0  0  0
 11 14  1  0  0  0  0
 14 15  1  0  0  0  0
 14 16  1  0  0  0  0
 14 17  1  0  0  0  0
 17 18  1  0  0  0  0
 17 19  1  0  0  0  0
 19 20  1  0  0  0  0
 19 21  1  0  0  0  0
 19 22  1  0  0  0  0
 17 23  1  0  0  0  0
 23 24  1  0  0  0  0
 23 25  1  0  0  0  0
 23 26  1  0  0  0  0
M  END
> <VM2 Rank>
6

> <Conf_Id>
1286

> <Probability>
5.31

> <Sum Probability>
49.50

> <Delta G>
0.694

> <G>
24.404

> <E>
-8.264

> <-TS>
32.668

> <U+W>
-29.726

> <U>
24.276

> <W>
-54.002

> <W(PB)>
-56.316

> <W(SA)>
2.314

> <Valence>
3.269

> <Coulomb>
20.007

> <VdW>
1.000

> <VdW6>
-7.483

> <VdW12>
8.483

> <Bond>
0.211

> <Angle>
1.103

> <Pdih>
1.955

> <Idih>
0.000

> <Tether>
0.000

$$$$
VeraChem MOL file


 26 25  0  0  0  0  0  0  0  0999 V2000     
   20.8971   19.5642   19.3397 C   0  0  0  0  0  0  0  0  0  0  0  0
   21.6801   20.2088   19.7599 H   0  0  0  0  0  0  0  0  0  0  0  0
   21.3062   19.0767   18.4452 H   0  0  0  0  0  0  0  0  0  0  0  0
   20.0619   20.2025   19.0234 H   0  0  0  0  0  0  0  0  0  0  0  0
   20.4325   18.5123   20.3692 C   0  0  0  0  0  0  0  0  0  0  0  0
   21.2809   17.8686   20.6408 H   0  0  0  0  0  0  0  0  0  0  0  0
   19.6757   17.8617   19.9088 H   0  0  0  0  0  0  0  0  0  0  0  0
   19.8510   19.1725   21.6388 C   0  0  0  0  0  0  0  0  0  0  0  0
   20.6120   19.8275   22.0832 H   0  0  0  0  0  0  0  0  0  0  0  0
   19.0023   19.8129   21.3613 H   0  0  0  0  0  0  0  0  0  0  0  0
   19.3868   18.1186   22.6727 C   0  0  0  0  0  0  0  0  0  0  0  0
   20.2366   17.4902   22.9710 H   0  0  0  0  0  0  0  0  0  0  0  0
   18.6631   17.4429   22.1960 H   0  0  0  0  0  0  0  0  0  0  0  0
   18.7225   18.7436   23.9263 C   0  0  0  0  0  0  0  0  0  0  0  0
   17.8185   19.2835   23.6145 H   0  0  0  0  0  0  0  0  0  0  0  0
   18.3840   17.9379   24.5911 H   0  0  0  0  0  0  0  0  0  0  0  0
   19.6370   19.7072   24.7157 C   0  0  1  0  0  0  0  0  0  0  0  0
   19.9487   20.5136   24.0455 H   0  0  0  0  0  0  0  0  0  0  0  0
   18.8678   20.3322   25.8904 C   0  0  0  0  0  0  0  0  0  0  0  0
   18.5347   19.5649   26.6005 H   0  0  0  0  0  0  0  0  0  0  0  0
   17.9832   20.8738   25.5328 H   0  0  0  0  0  0  0  0  0  0  0  0
   19.4995   21.0474   26.4315 H   0  0  0  0  0  0  0  0  0  0  0  0
   20.8933   19.0375   25.2012 N   0  3  0  0  0  0  0  0  0  0  0  0
   21.4331   18.6509   24.4223 H   0  0  0  0  0  0  0  0  0  0  0  0
   21.4999   19.6946   25.6998 H   0  0  0  0  0  0  0  0  0  0  0  0
   20.6821   18.2683   25.8423 H   0  0  0  0  0  0  0  0  0  0  0  0
  1  2  1  0  0  0  0
  1  3  1  0  0  0  0
  1  4  1  0  0  0  0
  1  5  1  0  0  0  0
  5  6  1  0  0  0  0
  5  7  1  0  0  0  0
  5  8  1  0  0  0  0
  8  9  1  0  0  0  0
  8 10  1  0  0  0  0
  8 11  1  0  0  0  0
 11 12  1  0  0  0  0
 11 13  1  0  0  0  0
 11 14  1  0  0  0  0
 14 15  1  0  0  0  0
 14 16  1  0  0  0  0
 14 17  1  0  0  0  0
 17 18  1  0  0  0  0
 17 19  1  0  0  0  0
 19 20  1  0  0  0  0
 19 21  1  0  0  0  0
 19 22  1  0  0  0  0
 17 23  1  0  0  0  0
 23 24  1  0  0  0  0
 23 25  1  0  0  0  0
 23 26  1  0  0  0  0
M  END
> <VM2 Rank>
7

> <Conf_Id>
743

> <Probability>
5.28

> <Sum Probability>
54.79

> <Delta G>
0.697

> <G>
24.406

> <E>
-8.339

> <-TS>
32.745

> <U+W>
-29.800

> <U>
24.149

> <W>
-53.949

> <W(PB)>
-56.255

> <W(SA)>
2.306

> <Valence>
3.038

> <Coulomb>
20.324

> <VdW>
0.787

> <VdW6>
-7.686

> <VdW12>
8.473

> <Bond>
0.201

> <Angle>
1.090

> <Pdih>
1.748

> <Idih>
0.000

> <Tether>
0.000

$$$$
VeraChem MOL file


 26 25  0  0  0  0  0  0  0  0999 V2000     
   19.8815   18.9331   18.9778 C   0  0  0  0  0  0  0  0  0  0  0  0
   19.2375   18.0475   18.8992 H   0  0  0  0  0  0  0  0  0  0  0  0
   19.4706   19.7081   18.3177 H   0  0  0  0  0  0  0  0  0  0  0  0
   20.8781   18.6657   18.6031 H   0  0  0  0  0  0  0  0  0  0  0  0
   19.9528   19.4393   20.4341 C   0  0  0  0  0  0  0  0  0  0  0  0
   18.9459   19.7352   20.7567 H   0  0  0  0  0  0  0  0  0  0  0  0
   20.5793   20.3412   20.4756 H   0  0  0  0  0  0  0  0  0  0  0  0
   20.5251   18.3610   21.3846 C   0  0  0  0  0  0  0  0  0  0  0  0
   19.8672   17.4809   21.3858 H   0  0  0  0  0  0  0  0  0  0  0  0
   21.4936   18.0203   20.9930 H   0  0  0  0  0  0  0  0  0  0  0  0
   20.7323   18.8570   22.8370 C   0  0  0  0  0  0  0  0  0  0  0  0
   21.3921   19.7357   22.8342 H   0  0  0  0  0  0  0  0  0  0  0  0
   21.2651   18.0724   23.3900 H   0  0  0  0  0  0  0  0  0  0  0  0
   19.4090   19.1993   23.5692 C   0  0  0  0  0  0  0  0  0  0  0  0
   18.8912   20.0002   23.0273 H   0  0  0  0  0  0  0  0  0  0  0  0
   18.7410   18.3278   23.5567 H   0  0  0  0  0  0  0  0  0  0  0  0
   19.6294   19.6630   25.0259 C   0  0  1  0  0  0  0  0  0  0  0  0
   20.3252   20.5076   25.0152 H   0  0  0  0  0  0  0  0  0  0  0  0
   18.3034   20.1384   25.6415 C   0  0  0  0  0  0  0  0  0  0  0  0
   18.4587   20.5024   26.6646 H   0  0  0  0  0  0  0  0  0  0  0  0
   17.5675   19.3254   25.6759 H   0  0  0  0  0  0  0  0  0  0  0  0
   17.8752   20.9624   25.0572 H   0  0  0  0  0  0  0  0  0  0  0  0
   20.2546   18.5969   25.8839 N   0  3  0  0  0  0  0  0  0  0  0  0
   20.4079   18.9287   26.8404 H   0  0  0  0  0  0  0  0  0  0  0  0
   19.6598   17.7660   25.9397 H   0  0  0  0  0  0  0  0  0  0  0  0
   21.1621   18.3024   25.5138 H   0  0  0  0  0  0  0  0  0  0  0  0
  1  2  1  0  0  0  0
  1  3  1  0  0  0  0
  1  4  1  0  0  0  0
  1  5  1  0  0  0  0
  5  6  1  0  0  0  0
  5  7  1  0  0  0  0
  5  8  1  0  0  0  0
  8  9  1  0  0  0  0
  8 10  1  0  0  0  0
  8 11  1  0  0  0  0
 11 12  1  0  0  0  0
 11 13  1  0  0  0  0
 11 14  1  0  0  0  0
 14 15  1  0  0  0  0
 14 16  1  0  0  0  0
 14 17  1  0  0  0  0
 17 18  1  0  0  0  0
 17 19  1  0  0  0  0
 19 20  1  0  0  0  0
 19 21  1  0  0  0  0
 19 22  1  0  0  0  0
 17 23  1  0  0  0  0
 23 24  1  0  0  0  0
 23 25  1  0  0  0  0
 23 26  1  0  0  0  0
M  END
> <VM2 Rank>
8

> <Conf_Id>
1219

> <Probability>
4.38

> <Sum Probability>
59.17

> <Delta G>
0.809

> <G>
24.519

> <E>
-8.104

> <-TS>
32.622

> <U+W>
-29.565

> <U>
24.282

> <W>
-53.847

> <W(PB)>
-56.207

> <W(SA)>
2.360

> <Valence>
3.311

> <Coulomb>
19.887

> <VdW>
1.083

> <VdW6>
-7.444

> <VdW12>
8.528

> <Bond>
0.218

> <Angle>
1.167

> <Pdih>
1.925

> <Idih>
0.000

> <Tether>
0.000

$$$$
VeraChem MOL file


 26 25  0  0  0  0  0  0  0  0999 V2000     
   20.9636   19.5127   19.3553 C   0  0  0  0  0  0  0  0  0  0  0  0
   21.3654   20.4759   19.6960 H   0  0  0  0  0  0  0  0  0  0  0  0
   21.7725   18.7715   19.3950 H   0  0  0  0  0  0  0  0  0  0  0  0
   20.6615   19.6259   18.3061 H   0  0  0  0  0  0  0  0  0  0  0  0
   19.7653   19.0731   20.2230 C   0  0  0  0  0  0  0  0  0  0  0  0
   19.3641   18.1256   19.8367 H   0  0  0  0  0  0  0  0  0  0  0  0
   18.9606   19.8168   20.1369 H   0  0  0  0  0  0  0  0  0  0  0  0
   20.1638   18.9055   21.7059 C   0  0  0  0  0  0  0  0  0  0  0  0
   20.9670   18.1600   21.7867 H   0  0  0  0  0  0  0  0  0  0  0  0
   20.5714   19.8552   22.0772 H   0  0  0  0  0  0  0  0  0  0  0  0
   18.9622   18.4683   22.5775 C   0  0  0  0  0  0  0  0  0  0  0  0
   18.5326   17.5469   22.1607 H   0  0  0  0  0  0  0  0  0  0  0  0
   18.1668   19.2233   22.5214 H   0  0  0  0  0  0  0  0  0  0  0  0
   19.3438   18.2052   24.0573 C   0  0  0  0  0  0  0  0  0  0  0  0
   18.4478   17.8852   24.6056 H   0  0  0  0  0  0  0  0  0  0  0  0
   20.0395   17.3564   24.0898 H   0  0  0  0  0  0  0  0  0  0  0  0
   19.9904   19.4037   24.7916 C   0  0  1  0  0  0  0  0  0  0  0  0
   20.8837   19.7069   24.2377 H   0  0  0  0  0  0  0  0  0  0  0  0
   19.0389   20.6104   24.8790 C   0  0  0  0  0  0  0  0  0  0  0  0
   18.1006   20.3403   25.3792 H   0  0  0  0  0  0  0  0  0  0  0  0
   18.7980   20.9999   23.8831 H   0  0  0  0  0  0  0  0  0  0  0  0
   19.5027   21.4283   25.4440 H   0  0  0  0  0  0  0  0  0  0  0  0
   20.4600   19.0090   26.1643 N   0  3  0  0  0  0  0  0  0  0  0  0
   20.9245   19.7881   26.6394 H   0  0  0  0  0  0  0  0  0  0  0  0
   19.6794   18.7128   26.7562 H   0  0  0  0  0  0  0  0  0  0  0  0
   21.1283   18.2341   26.1263 H   0  0  0  0  0  0  0  0  0  0  0  0
  1  2  1  0  0  0  0
  1  3  1  0  0  0  0
  1  4  1  0  0  0  0
  1  5  1  0  0  0  0
  5  6  1  0  0  0  0
  5  7  1  0  0  0  0
  5  8  1  0  0  0  0
  8  9  1  0  0  0  0
  8 10  1  0  0  0  0
  8 11  1  0  0  0  0
 11 12  1  0  0  0  0
 11 13  1  0  0  0  0
 11 14  1  0  0  0  0
 14 15  1  0  0  0  0
 14 16  1  0  0  0  0
 14 17  1  0  0  0  0
 17 18  1  0  0  0  0
 17 19  1  0  0  0  0
 19 20  1  0  0  0  0
 19 21  1  0  0  0  0
 19 22  1  0  0  0  0
 17 23  1  0  0  0  0
 23 24  1  0  0  0  0
 23 25  1  0  0  0  0
 23 26  1  0  0  0  0
M  END
> <VM2 Rank>
9

> <Conf_Id>
472

> <Probability>
3.73

> <Sum Probability>
62.90

> <Delta G>
0.904

> <G>
24.613

> <E>
-8.229

> <-TS>
32.842

> <U+W>
-29.691

> <U>
24.335

> <W>
-54.026

> <W(PB)>
-56.341

> <W(SA)>
2.315

> <Valence>
3.530

> <Coulomb>
19.945

> <VdW>
0.861

> <VdW6>
-7.914

> <VdW12>
8.775

> <Bond>
0.213

> <Angle>
1.415

> <Pdih>
1.903

> <Idih>
0.000

> <Tether>
0.000

$$$$
VeraChem MOL file


 26 25  0  0  0  0  0  0  0  0999 V2000     
   20.8059   19.7433   19.5401 C   0  0  0  0  0  0  0  0  0  0  0  0
   20.6849   20.0812   18.5028 H   0  0  0  0  0  0  0  0  0  0  0  0
   20.8218   20.6359   20.1776 H   0  0  0  0  0  0  0  0  0  0  0  0
   21.7812   19.2457   19.6195 H   0  0  0  0  0  0  0  0  0  0  0  0
   19.6592   18.7846   19.9337 C   0  0  0  0  0  0  0  0  0  0  0  0
   19.6078   17.9722   19.1953 H   0  0  0  0  0  0  0  0  0  0  0  0
   18.6981   19.3143   19.8751 H   0  0  0  0  0  0  0  0  0  0  0  0
   19.8309   18.1654   21.3418 C   0  0  0  0  0  0  0  0  0  0  0  0
   19.0369   17.4213   21.4947 H   0  0  0  0  0  0  0  0  0  0  0  0
   20.7816   17.6165   21.3869 H   0  0  0  0  0  0  0  0  0  0  0  0
   19.7736   19.2074   22.4848 C   0  0  0  0  0  0  0  0  0  0  0  0
   18.8475   19.7893   22.3910 H   0  0  0  0  0  0  0  0  0  0  0  0
   20.6088   19.9135   22.3885 H   0  0  0  0  0  0  0  0  0  0  0  0
   19.8386   18.5328   23.8772 C   0  0  0  0  0  0  0  0  0  0  0  0
   18.9674   17.8782   24.0131 H   0  0  0  0  0  0  0  0  0  0  0  0
   20.7237   17.8837   23.9095 H   0  0  0  0  0  0  0  0  0  0  0  0
   19.9241   19.5346   25.0515 C   0  0  1  0  0  0  0  0  0  0  0  0
   20.7747   20.1999   24.8736 H   0  0  0  0  0  0  0  0  0  0  0  0
   18.6523   20.3929   25.1763 C   0  0  0  0  0  0  0  0  0  0  0  0
   18.7177   21.0558   26.0478 H   0  0  0  0  0  0  0  0  0  0  0  0
   17.7599   19.7654   25.2927 H   0  0  0  0  0  0  0  0  0  0  0  0
   18.5127   21.0298   24.2953 H   0  0  0  0  0  0  0  0  0  0  0  0
   20.2035   18.8271   26.3486 N   0  3  0  0  0  0  0  0  0  0  0  0
   20.3007   19.4899   27.1229 H   0  0  0  0  0  0  0  0  0  0  0  0
   19.4482   18.1811   26.5930 H   0  0  0  0  0  0  0  0  0  0  0  0
   21.0703   18.2838   26.3031 H   0  0  0  0  0  0  0  0  0  0  0  0
  1  2  1  0  0  0  0
  1  3  1  0  0  0  0
  1  4  1  0  0  0  0
  1  5  1  0  0  0  0
  5  6  1  0  0  0  0
  5  7  1  0  0  0  0
  5  8  1  0  0  0  0
  8  9  1  0  0  0  0
  8 10  1  0  0  0  0
  8 11  1  0  0  0  0
 11 12  1  0  0  0  0
 11 13  1  0  0  0  0
 11 14  1  0  0  0  0
 14 15  1  0  0  0  0
 14 16  1  0  0  0  0
 14 17  1  0  0  0  0
 17 18  1  0  0  0  0
 17 19  1  0  0  0  0
 19 20  1  0  0  0  0
 19 21  1  0  0  0  0
 19 22  1  0  0  0  0
 17 23  1  0  0  0  0
 23 24  1  0  0  0  0
 23 25  1  0  0  0  0
 23 26  1  0  0  0  0
M  END
> <VM2 Rank>
10

> <Conf_Id>
1289

> <Probability>
2.97

> <Sum Probability>
65.87

> <Delta G>
1.040

> <G>
24.750

> <E>
-7.931

> <-TS>
32.681

> <U+W>
-29.393

> <U>
24.442

> <W>
-53.835

> <W(PB)>
-56.130

> <W(SA)>
2.295

> <Valence>
3.781

> <Coulomb>
19.492

> <VdW>
1.170

> <VdW6>
-7.583

> <VdW12>
8.753

> <Bond>
0.218

> <Angle>
1.390

> <Pdih>
2.173

> <Idih>
0.000

> <Tether>
0.000

$$$$
VeraChem MOL file


 26 25  0  0  0  0  0  0  0  0999 V2000     
   19.3588   19.5421   19.4492 C   0  0  0  0  0  0  0  0  0  0  0  0
   19.5227   19.9145   18.4297 H   0  0  0  0  0  0  0  0  0  0  0  0
   18.5544   18.7962   19.4088 H   0  0  0  0  0  0  0  0  0  0  0  0
   19.0141   20.3877   20.0571 H   0  0  0  0  0  0  0  0  0  0  0  0
   20.6590   18.9274   20.0156 C   0  0  0  0  0  0  0  0  0  0  0  0
   21.4377   19.7005   20.0758 H   0  0  0  0  0  0  0  0  0  0  0  0
   21.0301   18.1720   19.3089 H   0  0  0  0  0  0  0  0  0  0  0  0
   20.4735   18.2620   21.4008 C   0  0  0  0  0  0  0  0  0  0  0  0
   19.7084   17.4765   21.3309 H   0  0  0  0  0  0  0  0  0  0  0  0
   21.4109   17.7570   21.6720 H   0  0  0  0  0  0  0  0  0  0  0  0
   20.0943   19.2619   22.5198 C   0  0  0  0  0  0  0  0  0  0  0  0
   19.1274   19.7225   22.2833 H   0  0  0  0  0  0  0  0  0  0  0  0
   20.8367   20.0711   22.5551 H   0  0  0  0  0  0  0  0  0  0  0  0
   20.0175   18.5705   23.9035 C   0  0  0  0  0  0  0  0  0  0  0  0
   19.2328   17.8024   23.8903 H   0  0  0  0  0  0  0  0  0  0  0  0
   20.9643   18.0449   24.0850 H   0  0  0  0  0  0  0  0  0  0  0  0
   19.7697   19.5474   25.0758 C   0  0  1  0  0  0  0  0  0  0  0  0
   20.5382   20.3259   25.0419 H   0  0  0  0  0  0  0  0  0  0  0  0
   18.3887   20.2221   24.9882 C   0  0  0  0  0  0  0  0  0  0  0  0
   18.3099   20.8562   24.0977 H   0  0  0  0  0  0  0  0  0  0  0  0
   18.2174   20.8658   25.8598 H   0  0  0  0  0  0  0  0  0  0  0  0
   17.5844   19.4768   24.9527 H   0  0  0  0  0  0  0  0  0  0  0  0
   19.9265   18.8546   26.4010 N   0  3  0  0  0  0  0  0  0  0  0  0
   19.2376   18.1065   26.5164 H   0  0  0  0  0  0  0  0  0  0  0  0
   20.8555   18.4352   26.5001 H   0  0  0  0  0  0  0  0  0  0  0  0
   19.8028   19.5064   27.1810 H   0  0  0  0  0  0  0  0  0  0  0  0
  1  2  1  0  0  0  0
  1  3  1  0  0  0  0
  1  4  1  0  0  0  0
  1  5  1  0  0  0  0
  5  6  1  0  0  0  0
  5  7  1  0  0  0  0
  5  8  1  0  0  0  0
  8  9  1  0  0  0  0
  8 10  1  0  0  0  0
  8 11  1  0  0  0  0
 11 12  1  0  0  0  0
 11 13  1  0  0  0  0
 11 14  1  0  0  0  0
 14 15  1  0  0  0  0
 14 16  1  0  0  0  0
 14 17  1  0  0  0  0
 17 18  1  0  0  0  0
 17 19  1  0  0  0  0
 19 20  1  0  0  0  0
 19 21  1  0  0  0  0
 19 22  1  0  0  0  0
 17 23  1  0  0  0  0
 23 24  1  0  0  0  0
 23 25  1  0  0  0  0
 23 26  1  0  0  0  0
M  END
> <VM2 Rank>
11

> <Conf_Id>
1303

> <Probability>
2.50

> <Sum Probability>
68.37

> <Delta G>
1.143

> <G>
24.853

> <E>
-7.821

> <-TS>
32.674

> <U+W>
-29.283

> <U>
24.454

> <W>
-53.737

> <W(PB)>
-56.067

> <W(SA)>
2.330

> <Valence>
3.783

> <Coulomb>
19.491

> <VdW>
1.181

> <VdW6>
-7.595

> <VdW12>
8.776

> <Bond>
0.221

> <Angle>
1.392

> <Pdih>
2.171

> <Idih>
0.000

> <Tether>
0.000

$$$$
VeraChem MOL file


 26 25  0  0  0  0  0  0  0  0999 V2000     
   20.5940   17.7671   19.9359 C   0  0  0  0  0  0  0  0  0  0  0  0
   20.3499   17.0743   20.7507 H   0  0  0  0  0  0  0  0  0  0  0  0
   20.3898   17.2485   18.9903 H   0  0  0  0  0  0  0  0  0  0  0  0
   21.6699   17.9810   19.9759 H   0  0  0  0  0  0  0  0  0  0  0  0
   19.7648   19.0682   20.0287 C   0  0  0  0  0  0  0  0  0  0  0  0
   18.6931   18.8250   20.0191 H   0  0  0  0  0  0  0  0  0  0  0  0
   19.9510   19.6714   19.1291 H   0  0  0  0  0  0  0  0  0  0  0  0
   20.0968   19.9223   21.2762 C   0  0  0  0  0  0  0  0  0  0  0  0
   21.1643   20.1824   21.2685 H   0  0  0  0  0  0  0  0  0  0  0  0
   19.5470   20.8710   21.2050 H   0  0  0  0  0  0  0  0  0  0  0  0
   19.7375   19.2287   22.6122 C   0  0  0  0  0  0  0  0  0  0  0  0
   20.3348   18.3154   22.7236 H   0  0  0  0  0  0  0  0  0  0  0  0
   18.6835   18.9228   22.5836 H   0  0  0  0  0  0  0  0  0  0  0  0
   19.9860   20.1640   23.8243 C   0  0  0  0  0  0  0  0  0  0  0  0
   21.0295   20.5052   23.8081 H   0  0  0  0  0  0  0  0  0  0  0  0
   19.3713   21.0676   23.7177 H   0  0  0  0  0  0  0  0  0  0  0  0
   19.7005   19.5302   25.2065 C   0  0  1  0  0  0  0  0  0  0  0  0
   19.9401   20.2826   25.9644 H   0  0  0  0  0  0  0  0  0  0  0  0
   18.2179   19.1553   25.3763 C   0  0  0  0  0  0  0  0  0  0  0  0
   17.9283   18.3331   24.7112 H   0  0  0  0  0  0  0  0  0  0  0  0
   17.5712   20.0153   25.1623 H   0  0  0  0  0  0  0  0  0  0  0  0
   18.0183   18.8378   26.4071 H   0  0  0  0  0  0  0  0  0  0  0  0
   20.5906   18.3522   25.4937 N   0  3  0  0  0  0  0  0  0  0  0  0
   20.4209   17.5886   24.8347 H   0  0  0  0  0  0  0  0  0  0  0  0
   21.5807   18.6043   25.4260 H   0  0  0  0  0  0  0  0  0  0  0  0
   20.4326   17.9851   26.4364 H   0  0  0  0  0  0  0  0  0  0  0  0
  1  2  1  0  0  0  0
  1  3  1  0  0  0  0
  1  4  1  0  0  0  0
  1  5  1  0  0  0  0
  5  6  1  0  0  0  0
  5  7  1  0  0  0  0
  5  8  1  0  0  0  0
  8  9  1  0  0  0  0
  8 10  1  0  0  0  0
  8 11  1  0  0  0  0
 11 12  1  0  0  0  0
 11 13  1  0  0  0  0
 11 14  1  0  0  0  0
 14 15  1  0  0  0  0
 14 16  1  0  0  0  0
 14 17  1  0  0  0  0
 17 18  1  0  0  0  0
 17 19  1  0  0  0  0
 19 20  1  0  0  0  0
 19 21  1  0  0  0  0
 19 22  1  0  0  0  0
 17 23  1  0  0  0  0
 23 24  1  0  0  0  0
 23 25  1  0  0  0  0
 23 26  1  0  0  0  0
M  END
> <VM2 Rank>
12

> <Conf_Id>
495

> <Probability>
2.40

> <Sum Probability>
70.77

> <Delta G>
1.166

> <G>
24.876

> <E>
-7.931

> <-TS>
32.807

> <U+W>
-29.393

> <U>
24.790

> <W>
-54.183

> <W(PB)>
-56.463

> <W(SA)>
2.279

> <Valence>
3.751

> <Coulomb>
19.894

> <VdW>
1.145

> <VdW6>
-8.074

> <VdW12>
9.219

> <Bond>
0.243

> <Angle>
1.440

> <Pdih>
2.068

> <Idih>
0.000

> <Tether>
0.000

$$$$
VeraChem MOL file


 26 25  0  0  0  0  0  0  0  0999 V2000     
   20.2619   18.3070   19.1274 C   0  0  0  0  0  0  0  0  0  0  0  0
   19.9749   19.1500   18.4853 H   0  0  0  0  0  0  0  0  0  0  0  0
   21.3557   18.2163   19.1042 H   0  0  0  0  0  0  0  0  0  0  0  0
   19.8385   17.3927   18.6919 H   0  0  0  0  0  0  0  0  0  0  0  0
   19.7529   18.5096   20.5704 C   0  0  0  0  0  0  0  0  0  0  0  0
   20.0231   17.6303   21.1702 H   0  0  0  0  0  0  0  0  0  0  0  0
   18.6555   18.5670   20.5647 H   0  0  0  0  0  0  0  0  0  0  0  0
   20.3399   19.7914   21.2073 C   0  0  0  0  0  0  0  0  0  0  0  0
   21.4346   19.7120   21.2575 H   0  0  0  0  0  0  0  0  0  0  0  0
   20.1232   20.6471   20.5529 H   0  0  0  0  0  0  0  0  0  0  0  0
   19.7753   20.0954   22.6167 C   0  0  0  0  0  0  0  0  0  0  0  0
   18.6847   20.2038   22.5496 H   0  0  0  0  0  0  0  0  0  0  0  0
   20.1651   21.0686   22.9459 H   0  0  0  0  0  0  0  0  0  0  0  0
   20.1430   19.0209   23.6724 C   0  0  0  0  0  0  0  0  0  0  0  0
   19.6466   18.0719   23.4333 H   0  0  0  0  0  0  0  0  0  0  0  0
   21.2232   18.8321   23.6184 H   0  0  0  0  0  0  0  0  0  0  0  0
   19.7891   19.4300   25.1204 C   0  0  1  0  0  0  0  0  0  0  0  0
   20.2631   20.3939   25.3300 H   0  0  0  0  0  0  0  0  0  0  0  0
   18.2708   19.5794   25.3249 C   0  0  0  0  0  0  0  0  0  0  0  0
   17.7427   18.6524   25.0690 H   0  0  0  0  0  0  0  0  0  0  0  0
   17.8632   20.3888   24.7082 H   0  0  0  0  0  0  0  0  0  0  0  0
   18.0438   19.8226   26.3702 H   0  0  0  0  0  0  0  0  0  0  0  0
   20.3552   18.4542   26.1144 N   0  3  0  0  0  0  0  0  0  0  0  0
   19.9586   17.5191   25.9890 H   0  0  0  0  0  0  0  0  0  0  0  0
   21.3720   18.3716   26.0251 H   0  0  0  0  0  0  0  0  0  0  0  0
   20.1572   18.7431   27.0766 H   0  0  0  0  0  0  0  0  0  0  0  0
  1  2  1  0  0  0  0
  1  3  1  0  0  0  0
  1  4  1  0  0  0  0
  1  5  1  0  0  0  0
  5  6  1  0  0  0  0
  5  7  1  0  0  0  0
  5  8  1  0  0  0  0
  8  9  1  0  0  0  0
  8 10  1  0  0  0  0
  8 11  1  0  0  0  0
 11 12  1  0  0  0  0
 11 13  1  0  0  0  0
 11 14  1  0  0  0  0
 14 15  1  0  0  0  0
 14 16  1  0  0  0  0
 14 17  1  0  0  0  0
 17 18  1  0  0  0  0
 17 19  1  0  0  0  0
 19 20  1  0  0  0  0
 19 21  1  0  0  0  0
 19 22  1  0  0  0  0
 17 23  1  0  0  0  0
 23 24  1  0  0  0  0
 23 25  1  0  0  0  0
 23 26  1  0  0  0  0
M  END
> <VM2 Rank>
13

> <Conf_Id>
180

> <Probability>
2.38

> <Sum Probability>
73.16

> <Delta G>
1.172

> <G>
24.881

> <E>
-7.819

> <-TS>
32.700

> <U+W>
-29.281

> <U>
24.614

> <W>
-53.895

> <W(PB)>
-56.202

> <W(SA)>
2.307

> <Valence>
3.779

> <Coulomb>
19.717

> <VdW>
1.118

> <VdW6>
-7.653

> <VdW12>
8.772

> <Bond>
0.222

> <Angle>
1.351

> <Pdih>
2.206

> <Idih>
0.000

> <Tether>
0.000

$$$$
VeraChem MOL file


 26 25  0  0  0  0  0  0  0  0999 V2000     
   19.3884   18.1240   19.7279 C   0  0  0  0  0  0  0  0  0  0  0  0
   19.5633   17.4957   18.8449 H   0  0  0  0  0  0  0  0  0  0  0  0
   18.9714   17.4805   20.5124 H   0  0  0  0  0  0  0  0  0  0  0  0
   18.6339   18.8752   19.4610 H   0  0  0  0  0  0  0  0  0  0  0  0
   20.7043   18.7951   20.1830 C   0  0  0  0  0  0  0  0  0  0  0  0
   21.1455   19.3250   19.3272 H   0  0  0  0  0  0  0  0  0  0  0  0
   21.4310   18.0239   20.4744 H   0  0  0  0  0  0  0  0  0  0  0  0
   20.5134   19.8005   21.3442 C   0  0  0  0  0  0  0  0  0  0  0  0
   21.4711   20.3076   21.5263 H   0  0  0  0  0  0  0  0  0  0  0  0
   19.8032   20.5816   21.0398 H   0  0  0  0  0  0  0  0  0  0  0  0
   20.0322   19.1407   22.6588 C   0  0  0  0  0  0  0  0  0  0  0  0
   20.7185   18.3261   22.9250 H   0  0  0  0  0  0  0  0  0  0  0  0
   19.0446   18.6906   22.4997 H   0  0  0  0  0  0  0  0  0  0  0  0
   19.9549   20.1689   23.8175 C   0  0  0  0  0  0  0  0  0  0  0  0
   20.9354   20.6468   23.9421 H   0  0  0  0  0  0  0  0  0  0  0  0
   19.2599   20.9734   23.5425 H   0  0  0  0  0  0  0  0  0  0  0  0
   19.5215   19.5825   25.1821 C   0  0  1  0  0  0  0  0  0  0  0  0
   19.5398   20.4015   25.9079 H   0  0  0  0  0  0  0  0  0  0  0  0
   18.0870   19.0271   25.1448 C   0  0  0  0  0  0  0  0  0  0  0  0
   18.0125   18.1368   24.5092 H   0  0  0  0  0  0  0  0  0  0  0  0
   17.3866   19.7812   24.7646 H   0  0  0  0  0  0  0  0  0  0  0  0
   17.7583   18.7467   26.1530 H   0  0  0  0  0  0  0  0  0  0  0  0
   20.4863   18.5493   25.6957 N   0  3  0  0  0  0  0  0  0  0  0  0
   20.2188   18.2177   26.6268 H   0  0  0  0  0  0  0  0  0  0  0  0
   20.5218   17.7344   25.0784 H   0  0  0  0  0  0  0  0  0  0  0  0
   21.4363   18.9247   25.7662 H   0  0  0  0  0  0  0  0  0  0  0  0
  1  2  1  0  0  0  0
  1  3  1  0  0  0  0
  1  4  1  0  0  0  0
  1  5  1  0  0  0  0
  5  6  1  0  0  0  0
  5  7  1  0  0  0  0
  5  8  1  0  0  0  0
  8  9  1  0  0  0  0
  8 10  1  0  0  0  0
  8 11  1  0  0  0  0
 11 12  1  0  0  0  0
 11 13  1  0  0  0  0
 11 14  1  0  0  0  0
 14 15  1  0  0  0  0
 14 16  1  0  0  0  0
 14 17  1  0  0  0  0
 17 18  1  0  0  0  0
 17 19  1  0  0  0  0
 19 20  1  0  0  0  0
 19 21  1  0  0  0  0
 19 22  1  0  0  0  0
 17 23  1  0  0  0  0
 23 24  1  0  0  0  0
 23 25  1  0  0  0  0
 23 26  1  0  0  0  0
M  END
> <VM2 Rank>
14

> <Conf_Id>
1358

> <Probability>
2.38

> <Sum Probability>
75.53

> <Delta G>
1.172

> <G>
24.882

> <E>
-7.926

> <-TS>
32.808

> <U+W>
-29.388

> <U>
24.690

> <W>
-54.078

> <W(PB)>
-56.372

> <W(SA)>
2.294

> <Valence>
3.755

> <Coulomb>
19.785

> <VdW>
1.150

> <VdW6>
-8.077

> <VdW12>
9.227

> <Bond>
0.244

> <Angle>
1.443

> <Pdih>
2.068

> <Idih>
0.000

> <Tether>
0.000

$$$$
VeraChem MOL file


 26 25  0  0  0  0  0  0  0  0999 V2000     
   20.5166   18.4102   19.0958 C   0  0  0  0  0  0  0  0  0  0  0  0
   19.7700   17.6123   18.9904 H   0  0  0  0  0  0  0  0  0  0  0  0
   20.2065   19.2542   18.4660 H   0  0  0  0  0  0  0  0  0  0  0  0
   21.4709   18.0324   18.7064 H   0  0  0  0  0  0  0  0  0  0  0  0
   20.6623   18.8416   20.5706 C   0  0  0  0  0  0  0  0  0  0  0  0
   21.4354   19.6189   20.6475 H   0  0  0  0  0  0  0  0  0  0  0  0
   21.0135   17.9833   21.1581 H   0  0  0  0  0  0  0  0  0  0  0  0
   19.3270   19.3739   21.1429 C   0  0  0  0  0  0  0  0  0  0  0  0
   18.9539   20.1728   20.4872 H   0  0  0  0  0  0  0  0  0  0  0  0
   18.5696   18.5782   21.1192 H   0  0  0  0  0  0  0  0  0  0  0  0
   19.4443   19.9376   22.5808 C   0  0  0  0  0  0  0  0  0  0  0  0
   18.4911   20.4212   22.8298 H   0  0  0  0  0  0  0  0  0  0  0  0
   20.2079   20.7272   22.6049 H   0  0  0  0  0  0  0  0  0  0  0  0
   19.7730   18.8580   23.6451 C   0  0  0  0  0  0  0  0  0  0  0  0
   19.0032   18.0751   23.6291 H   0  0  0  0  0  0  0  0  0  0  0  0
   20.7188   18.3707   23.3797 H   0  0  0  0  0  0  0  0  0  0  0  0
   19.9133   19.4195   25.0790 C   0  0  1  0  0  0  0  0  0  0  0  0
   20.6403   20.2373   25.0577 H   0  0  0  0  0  0  0  0  0  0  0  0
   18.5812   19.9649   25.6251 C   0  0  0  0  0  0  0  0  0  0  0  0
   17.7983   19.1967   25.6017 H   0  0  0  0  0  0  0  0  0  0  0  0
   18.2342   20.8278   25.0455 H   0  0  0  0  0  0  0  0  0  0  0  0
   18.6977   20.2995   26.6633 H   0  0  0  0  0  0  0  0  0  0  0  0
   20.4703   18.3823   26.0146 N   0  3  0  0  0  0  0  0  0  0  0  0
   19.8453   17.5759   26.0946 H   0  0  0  0  0  0  0  0  0  0  0  0
   21.3800   18.0363   25.6963 H   0  0  0  0  0  0  0  0  0  0  0  0
   20.6021   18.7609   26.9569 H   0  0  0  0  0  0  0  0  0  0  0  0
  1  2  1  0  0  0  0
  1  3  1  0  0  0  0
  1  4  1  0  0  0  0
  1  5  1  0  0  0  0
  5  6  1  0  0  0  0
  5  7  1  0  0  0  0
  5  8  1  0  0  0  0
  8  9  1  0  0  0  0
  8 10  1  0  0  0  0
  8 11  1  0  0  0  0
 11 12  1  0  0  0  0
 11 13  1  0  0  0  0
 11 14  1  0  0  0  0
 14 15  1  0  0  0  0
 14 16  1  0  0  0  0
 14 17  1  0  0  0  0
 17 18  1  0  0  0  0
 17 19  1  0  0  0  0
 19 20  1  0  0  0  0
 19 21  1  0  0  0  0
 19 22  1  0  0  0  0
 17 23  1  0  0  0  0
 23 24  1  0  0  0  0
 23 25  1  0  0  0  0
 23 26  1  0  0  0  0
M  END
> <VM2 Rank>
15

> <Conf_Id>
1049

> <Probability>
2.26

> <Sum Probability>
77.79

> <Delta G>
1.203

> <G>
24.913

> <E>
-7.676

> <-TS>
32.589

> <U+W>
-29.138

> <U>
24.912

> <W>
-54.050

> <W(PB)>
-56.344

> <W(SA)>
2.294

> <Valence>
3.916

> <Coulomb>
19.768

> <VdW>
1.227

> <VdW6>
-7.563

> <VdW12>
8.790

> <Bond>
0.234

> <Angle>
1.481

> <Pdih>
2.202

> <Idih>
0.000

> <Tether>
0.000

$$$$
VeraChem MOL file


 26 25  0  0  0  0  0  0  0  0999 V2000     
   20.2883   19.1207   19.0370 C   0  0  0  0  0  0  0  0  0  0  0  0
   21.3852   19.1057   18.9954 H   0  0  0  0  0  0  0  0  0  0  0  0
   19.9183   18.1616   18.6519 H   0  0  0  0  0  0  0  0  0  0  0  0
   19.9363   19.9124   18.3630 H   0  0  0  0  0  0  0  0  0  0  0  0
   19.7915   19.3700   20.4769 C   0  0  0  0  0  0  0  0  0  0  0  0
   18.6932   19.4090   20.4814 H   0  0  0  0  0  0  0  0  0  0  0  0
   20.1469   20.3539   20.8104 H   0  0  0  0  0  0  0  0  0  0  0  0
   20.2794   18.2680   21.4469 C   0  0  0  0  0  0  0  0  0  0  0  0
   19.9819   17.2873   21.0508 H   0  0  0  0  0  0  0  0  0  0  0  0
   21.3776   18.2652   21.4822 H   0  0  0  0  0  0  0  0  0  0  0  0
   19.7135   18.4094   22.8814 C   0  0  0  0  0  0  0  0  0  0  0  0
   20.0156   17.5241   23.4560 H   0  0  0  0  0  0  0  0  0  0  0  0
   18.6165   18.3913   22.8371 H   0  0  0  0  0  0  0  0  0  0  0  0
   20.1984   19.6922   23.6107 C   0  0  0  0  0  0  0  0  0  0  0  0
   21.2931   19.7500   23.5513 H   0  0  0  0  0  0  0  0  0  0  0  0
   19.8187   20.5797   23.0893 H   0  0  0  0  0  0  0  0  0  0  0  0
   19.7827   19.7901   25.0977 C   0  0  1  0  0  0  0  0  0  0  0  0
   20.1928   20.7265   25.4886 H   0  0  0  0  0  0  0  0  0  0  0  0
   18.2544   19.8445   25.2675 C   0  0  0  0  0  0  0  0  0  0  0  0
   17.8222   20.6452   24.6546 H   0  0  0  0  0  0  0  0  0  0  0  0
   17.9916   20.0474   26.3130 H   0  0  0  0  0  0  0  0  0  0  0  0
   17.7807   18.8980   24.9808 H   0  0  0  0  0  0  0  0  0  0  0  0
   20.3797   18.6931   25.9359 N   0  3  0  0  0  0  0  0  0  0  0  0
   21.4009   18.6772   25.8619 H   0  0  0  0  0  0  0  0  0  0  0  0
   20.1471   18.8103   26.9262 H   0  0  0  0  0  0  0  0  0  0  0  0
   20.0354   17.7744   25.6469 H   0  0  0  0  0  0  0  0  0  0  0  0
  1  2  1  0  0  0  0
  1  3  1  0  0  0  0
  1  4  1  0  0  0  0
  1  5  1  0  0  0  0
  5  6  1  0  0  0  0
  5  7  1  0  0  0  0
  5  8  1  0  0  0  0
  8  9  1  0  0  0  0
  8 10  1  0  0  0  0
  8 11  1  0  0  0  0
 11 12  1  0  0  0  0
 11 13  1  0  0  0  0
 11 14  1  0  0  0  0
 14 15  1  0  0  0  0
 14 16  1  0  0  0  0
 14 17  1  0  0  0  0
 17 18  1  0  0  0  0
 17 19  1  0  0  0  0
 19 20  1  0  0  0  0
 19 21  1  0  0  0  0
 19 22  1  0  0  0  0
 17 23  1  0  0  0  0
 23 24  1  0  0  0  0
 23 25  1  0  0  0  0
 23 26  1  0  0  0  0
M  END
> <VM2 Rank>
16

> <Conf_Id>
529

> <Probability>
1.94

> <Sum Probability>
79.73

> <Delta G>
1.295

> <G>
25.005

> <E>
-7.804

> <-TS>
32.809

> <U+W>
-29.266

> <U>
24.725

> <W>
-53.991

> <W(PB)>
-56.300

> <W(SA)>
2.309

> <Valence>
3.779

> <Coulomb>
19.804

> <VdW>
1.142

> <VdW6>
-8.104

> <VdW12>
9.246

> <Bond>
0.254

> <Angle>
1.437

> <Pdih>
2.089

> <Idih>
0.000

> <Tether>
0.000

$$$$
VeraChem MOL file


 26 25  0  0  0  0  0  0  0  0999 V2000     
   20.1935   20.0427   19.9067 C   0  0  0  0  0  0  0  0  0  0  0  0
   20.2076   20.7487   20.7463 H   0  0  0  0  0  0  0  0  0  0  0  0
   21.2225   19.9155   19.5461 H   0  0  0  0  0  0  0  0  0  0  0  0
   19.6087   20.5016   19.0991 H   0  0  0  0  0  0  0  0  0  0  0  0
   19.5776   18.6862   20.3177 C   0  0  0  0  0  0  0  0  0  0  0  0
   19.4742   18.0591   19.4212 H   0  0  0  0  0  0  0  0  0  0  0  0
   18.5574   18.8406   20.6934 H   0  0  0  0  0  0  0  0  0  0  0  0
   20.4242   17.9151   21.3626 C   0  0  0  0  0  0  0  0  0  0  0  0
   19.9306   16.9581   21.5809 H   0  0  0  0  0  0  0  0  0  0  0  0
   21.3923   17.6571   20.9117 H   0  0  0  0  0  0  0  0  0  0  0  0
   20.6826   18.6648   22.6954 C   0  0  0  0  0  0  0  0  0  0  0  0
   21.2691   19.5736   22.5056 H   0  0  0  0  0  0  0  0  0  0  0  0
   21.3136   18.0237   23.3248 H   0  0  0  0  0  0  0  0  0  0  0  0
   19.3856   19.0292   23.4625 C   0  0  0  0  0  0  0  0  0  0  0  0
   18.7710   19.6901   22.8387 H   0  0  0  0  0  0  0  0  0  0  0  0
   18.7922   18.1229   23.6416 H   0  0  0  0  0  0  0  0  0  0  0  0
   19.6598   19.7444   24.8035 C   0  0  1  0  0  0  0  0  0  0  0  0
   20.2826   20.6217   24.6030 H   0  0  0  0  0  0  0  0  0  0  0  0
   18.3416   20.2227   25.4330 C   0  0  0  0  0  0  0  0  0  0  0  0
   18.5315   20.7627   26.3688 H   0  0  0  0  0  0  0  0  0  0  0  0
   17.6778   19.3776   25.6546 H   0  0  0  0  0  0  0  0  0  0  0  0
   17.8115   20.9053   24.7572 H   0  0  0  0  0  0  0  0  0  0  0  0
   20.4230   18.8829   25.7726 N   0  3  0  0  0  0  0  0  0  0  0  0
   20.6099   19.3799   26.6481 H   0  0  0  0  0  0  0  0  0  0  0  0
   19.9022   18.0339   26.0075 H   0  0  0  0  0  0  0  0  0  0  0  0
   21.3257   18.5942   25.3865 H   0  0  0  0  0  0  0  0  0  0  0  0
  1  2  1  0  0  0  0
  1  3  1  0  0  0  0
  1  4  1  0  0  0  0
  1  5  1  0  0  0  0
  5  6  1  0  0  0  0
  5  7  1  0  0  0  0
  5  8  1  0  0  0  0
  8  9  1  0  0  0  0
  8 10  1  0  0  0  0
  8 11  1  0  0  0  0
 11 12  1  0  0  0  0
 11 13  1  0  0  0  0
 11 14  1  0  0  0  0
 14 15  1  0  0  0  0
 14 16  1  0  0  0  0
 14 17  1  0  0  0  0
 17 18  1  0  0  0  0
 17 19  1  0  0  0  0
 19 20  1  0  0  0  0
 19 21  1  0  0  0  0
 19 22  1  0  0  0  0
 17 23  1  0  0  0  0
 23 24  1  0  0  0  0
 23 25  1  0  0  0  0
 23 26  1  0  0  0  0
M  END
> <VM2 Rank>
17

> <Conf_Id>
1335

> <Probability>
1.90

> <Sum Probability>
81.63

> <Delta G>
1.305

> <G>
25.015

> <E>
-7.960

> <-TS>
32.975

> <U+W>
-29.421

> <U>
24.692

> <W>
-54.113

> <W(PB)>
-56.397

> <W(SA)>
2.284

> <Valence>
3.727

> <Coulomb>
19.918

> <VdW>
1.047

> <VdW6>
-8.393

> <VdW12>
9.440

> <Bond>
0.259

> <Angle>
1.567

> <Pdih>
1.900

> <Idih>
0.000

> <Tether>
0.000

$$$$
VeraChem MOL file


 26 25  0  0  0  0  0  0  0  0999 V2000     
   20.6671   19.8500   19.6715 C   0  0  0  0  0  0  0  0  0  0  0  0
   20.1124   20.5127   18.9946 H   0  0  0  0  0  0  0  0  0  0  0  0
   21.4903   20.4289   20.1103 H   0  0  0  0  0  0  0  0  0  0  0  0
   21.1008   19.0407   19.0698 H   0  0  0  0  0  0  0  0  0  0  0  0
   19.7371   19.2896   20.7683 C   0  0  0  0  0  0  0  0  0  0  0  0
   18.9081   18.7420   20.2986 H   0  0  0  0  0  0  0  0  0  0  0  0
   19.2928   20.1282   21.3208 H   0  0  0  0  0  0  0  0  0  0  0  0
   20.4979   18.3543   21.7374 C   0  0  0  0  0  0  0  0  0  0  0  0
   20.9921   17.5640   21.1555 H   0  0  0  0  0  0  0  0  0  0  0  0
   21.3033   18.9124   22.2329 H   0  0  0  0  0  0  0  0  0  0  0  0
   19.5843   17.6829   22.7954 C   0  0  0  0  0  0  0  0  0  0  0  0
   20.1906   17.0015   23.4071 H   0  0  0  0  0  0  0  0  0  0  0  0
   18.8515   17.0455   22.2816 H   0  0  0  0  0  0  0  0  0  0  0  0
   18.8237   18.6685   23.7224 C   0  0  0  0  0  0  0  0  0  0  0  0
   18.0804   19.2184   23.1309 H   0  0  0  0  0  0  0  0  0  0  0  0
   18.2513   18.0927   24.4617 H   0  0  0  0  0  0  0  0  0  0  0  0
   19.7358   19.6771   24.4553 C   0  0  1  0  0  0  0  0  0  0  0  0
   20.2956   20.2430   23.7046 H   0  0  0  0  0  0  0  0  0  0  0  0
   18.8912   20.6685   25.2713 C   0  0  0  0  0  0  0  0  0  0  0  0
   19.5317   21.4105   25.7638 H   0  0  0  0  0  0  0  0  0  0  0  0
   18.3092   20.1520   26.0448 H   0  0  0  0  0  0  0  0  0  0  0  0
   18.1921   21.2108   24.6226 H   0  0  0  0  0  0  0  0  0  0  0  0
   20.7510   18.9970   25.3324 N   0  3  0  0  0  0  0  0  0  0  0  0
   21.3685   19.6754   25.7872 H   0  0  0  0  0  0  0  0  0  0  0  0
   20.2995   18.4505   26.0704 H   0  0  0  0  0  0  0  0  0  0  0  0
   21.3401   18.3580   24.7920 H   0  0  0  0  0  0  0  0  0  0  0  0
  1  2  1  0  0  0  0
  1  3  1  0  0  0  0
  1  4  1  0  0  0  0
  1  5  1  0  0  0  0
  5  6  1  0  0  0  0
  5  7  1  0  0  0  0
  5  8  1  0  0  0  0
  8  9  1  0  0  0  0
  8 10  1  0  0  0  0
  8 11  1  0  0  0  0
 11 12  1  0  0  0  0
 11 13  1  0  0  0  0
 11 14  1  0  0  0  0
 14 15  1  0  0  0  0
 14 16  1  0  0  0  0
 14 17  1  0  0  0  0
 17 18  1  0  0  0  0
 17 19  1  0  0  0  0
 19 20  1  0  0  0  0
 19 21  1  0  0  0  0
 19 22  1  0  0  0  0
 17 23  1  0  0  0  0
 23 24  1  0  0  0  0
 23 25  1  0  0  0  0
 23 26  1  0  0  0  0
M  END
> <VM2 Rank>
18

> <Conf_Id>
441

> <Probability>
1.90

> <Sum Probability>
83.53

> <Delta G>
1.307

> <G>
25.017

> <E>
-8.003

> <-TS>
33.020

> <U+W>
-29.465

> <U>
24.584

> <W>
-54.048

> <W(PB)>
-56.337

> <W(SA)>
2.288

> <Valence>
3.508

> <Coulomb>
20.402

> <VdW>
0.674

> <VdW6>
-8.749

> <VdW12>
9.423

> <Bond>
0.246

> <Angle>
1.409

> <Pdih>
1.854

> <Idih>
0.000

> <Tether>
0.000

$$$$
VeraChem MOL file


 26 25  0  0  0  0  0  0  0  0999 V2000     
   20.5828   18.9537   19.0883 C   0  0  0  0  0  0  0  0  0  0  0  0
   21.5791   19.0695   18.6421 H   0  0  0  0  0  0  0  0  0  0  0  0
   20.1450   18.0256   18.6982 H   0  0  0  0  0  0  0  0  0  0  0  0
   19.9621   19.7935   18.7496 H   0  0  0  0  0  0  0  0  0  0  0  0
   20.6763   18.9193   20.6286 C   0  0  0  0  0  0  0  0  0  0  0  0
   21.1559   19.8438   20.9759 H   0  0  0  0  0  0  0  0  0  0  0  0
   21.3262   18.0878   20.9352 H   0  0  0  0  0  0  0  0  0  0  0  0
   19.2821   18.7611   21.2805 C   0  0  0  0  0  0  0  0  0  0  0  0
   18.6503   19.6209   21.0183 H   0  0  0  0  0  0  0  0  0  0  0  0
   18.7891   17.8762   20.8546 H   0  0  0  0  0  0  0  0  0  0  0  0
   19.3296   18.6009   22.8201 C   0  0  0  0  0  0  0  0  0  0  0  0
   19.9570   17.7362   23.0736 H   0  0  0  0  0  0  0  0  0  0  0  0
   18.3158   18.3606   23.1649 H   0  0  0  0  0  0  0  0  0  0  0  0
   19.8423   19.8691   23.5563 C   0  0  0  0  0  0  0  0  0  0  0  0
   20.8672   20.0919   23.2356 H   0  0  0  0  0  0  0  0  0  0  0  0
   19.2359   20.7339   23.2564 H   0  0  0  0  0  0  0  0  0  0  0  0
   19.8395   19.7709   25.1004 C   0  0  1  0  0  0  0  0  0  0  0  0
   20.2722   20.6998   25.4848 H   0  0  0  0  0  0  0  0  0  0  0  0
   18.4161   19.6521   25.6731 C   0  0  0  0  0  0  0  0  0  0  0  0
   17.9521   18.6930   25.4146 H   0  0  0  0  0  0  0  0  0  0  0  0
   17.7749   20.4580   25.2950 H   0  0  0  0  0  0  0  0  0  0  0  0
   18.4361   19.7292   26.7671 H   0  0  0  0  0  0  0  0  0  0  0  0
   20.7191   18.6609   25.6068 N   0  3  0  0  0  0  0  0  0  0  0  0
   21.6802   18.7588   25.2677 H   0  0  0  0  0  0  0  0  0  0  0  0
   20.7555   18.6494   26.6300 H   0  0  0  0  0  0  0  0  0  0  0  0
   20.3760   17.7468   25.3018 H   0  0  0  0  0  0  0  0  0  0  0  0
  1  2  1  0  0  0  0
  1  3  1  0  0  0  0
  1  4  1  0  0  0  0
  1  5  1  0  0  0  0
  5  6  1  0  0  0  0
  5  7  1  0  0  0  0
  5  8  1  0  0  0  0
  8  9  1  0  0  0  0
  8 10  1  0  0  0  0
  8 11  1  0  0  0  0
 11 12  1  0  0  0  0
 11 13  1  0  0  0  0
 11 14  1  0  0  0  0
 14 15  1  0  0  0  0
 14 16  1  0  0  0  0
 14 17  1  0  0  0  0
 17 18  1  0  0  0  0
 17 19  1  0  0  0  0
 19 20  1  0  0  0  0
 19 21  1  0  0  0  0
 19 22  1  0  0  0  0
 17 23  1  0  0  0  0
 23 24  1  0  0  0  0
 23 25  1  0  0  0  0
 23 26  1  0  0  0  0
M  END
> <VM2 Rank>
19

> <Conf_Id>
1290

> <Probability>
1.86

> <Sum Probability>
85.39

> <Delta G>
1.320

> <G>
25.030

> <E>
-7.728

> <-TS>
32.758

> <U+W>
-29.190

> <U>
24.991

> <W>
-54.180

> <W(PB)>
-56.460

> <W(SA)>
2.279

> <Valence>
3.862

> <Coulomb>
19.956

> <VdW>
1.172

> <VdW6>
-8.054

> <VdW12>
9.225

> <Bond>
0.258

> <Angle>
1.499

> <Pdih>
2.106

> <Idih>
0.000

> <Tether>
0.000

$$$$
VeraChem MOL file


 26 25  0  0  0  0  0  0  0  0999 V2000     
   20.2950   17.6425   20.3251 C   0  0  0  0  0  0  0  0  0  0  0  0
   21.3207   17.7178   19.9415 H   0  0  0  0  0  0  0  0  0  0  0  0
   20.3346   17.2062   21.3308 H   0  0  0  0  0  0  0  0  0  0  0  0
   19.7464   16.9419   19.6825 H   0  0  0  0  0  0  0  0  0  0  0  0
   19.6027   19.0242   20.3340 C   0  0  0  0  0  0  0  0  0  0  0  0
   18.5872   18.9273   20.7407 H   0  0  0  0  0  0  0  0  0  0  0  0
   19.4792   19.3645   19.2964 H   0  0  0  0  0  0  0  0  0  0  0  0
   20.3925   20.1046   21.1162 C   0  0  0  0  0  0  0  0  0  0  0  0
   21.3575   20.2697   20.6174 H   0  0  0  0  0  0  0  0  0  0  0  0
   19.8515   21.0583   21.0462 H   0  0  0  0  0  0  0  0  0  0  0  0
   20.6535   19.7806   22.6098 C   0  0  0  0  0  0  0  0  0  0  0  0
   21.2263   20.6096   23.0482 H   0  0  0  0  0  0  0  0  0  0  0  0
   21.2956   18.8940   22.6859 H   0  0  0  0  0  0  0  0  0  0  0  0
   19.3552   19.5756   23.4313 C   0  0  0  0  0  0  0  0  0  0  0  0
   18.6900   20.4331   23.2637 H   0  0  0  0  0  0  0  0  0  0  0  0
   18.8195   18.6865   23.0751 H   0  0  0  0  0  0  0  0  0  0  0  0
   19.6199   19.4381   24.9460 C   0  0  1  0  0  0  0  0  0  0  0  0
   20.1700   20.3234   25.2797 H   0  0  0  0  0  0  0  0  0  0  0  0
   18.2919   19.3761   25.7175 C   0  0  0  0  0  0  0  0  0  0  0  0
   17.6903   20.2744   25.5307 H   0  0  0  0  0  0  0  0  0  0  0  0
   18.4728   19.3158   26.7977 H   0  0  0  0  0  0  0  0  0  0  0  0
   17.7004   18.5010   25.4204 H   0  0  0  0  0  0  0  0  0  0  0  0
   20.4774   18.2462   25.2741 N   0  3  0  0  0  0  0  0  0  0  0  0
   21.3832   18.2959   24.8005 H   0  0  0  0  0  0  0  0  0  0  0  0
   20.6608   18.1829   26.2795 H   0  0  0  0  0  0  0  0  0  0  0  0
   20.0270   17.3727   24.9892 H   0  0  0  0  0  0  0  0  0  0  0  0
  1  2  1  0  0  0  0
  1  3  1  0  0  0  0
  1  4  1  0  0  0  0
  1  5  1  0  0  0  0
  5  6  1  0  0  0  0
  5  7  1  0  0  0  0
  5  8  1  0  0  0  0
  8  9  1  0  0  0  0
  8 10  1  0  0  0  0
  8 11  1  0  0  0  0
 11 12  1  0  0  0  0
 11 13  1  0  0  0  0
 11 14  1  0  0  0  0
 14 15  1  0  0  0  0
 14 16  1  0  0  0  0
 14 17  1  0  0  0  0
 17 18  1  0  0  0  0
 17 19  1  0  0  0  0
 19 20  1  0  0  0  0
 19 21  1  0  0  0  0
 19 22  1  0  0  0  0
 17 23  1  0  0  0  0
 23 24  1  0  0  0  0
 23 25  1  0  0  0  0
 23 26  1  0  0  0  0
M  END
> <VM2 Rank>
20

> <Conf_Id>
1326

> <Probability>
1.62

> <Sum Probability>
87.01

> <Delta G>
1.403

> <G>
25.112

> <E>
-7.883

> <-TS>
32.995

> <U+W>
-29.345

> <U>
24.852

> <W>
-54.196

> <W(PB)>
-56.469

> <W(SA)>
2.273

> <Valence>
3.679

> <Coulomb>
20.236

> <VdW>
0.936

> <VdW6>
-8.465

> <VdW12>
9.401

> <Bond>
0.251

> <Angle>
1.471

> <Pdih>
1.958

> <Idih>
0.000

> <Tether>
0.000

$$$$
VeraChem MOL file


 26 25  0  0  0  0  0  0  0  0999 V2000     
   19.4665   19.7364   19.6717 C   0  0  0  0  0  0  0  0  0  0  0  0
   19.4701   20.7727   20.0337 H   0  0  0  0  0  0  0  0  0  0  0  0
   19.5188   19.7637   18.5756 H   0  0  0  0  0  0  0  0  0  0  0  0
   18.5070   19.2797   19.9445 H   0  0  0  0  0  0  0  0  0  0  0  0
   20.6589   18.9412   20.2502 C   0  0  0  0  0  0  0  0  0  0  0  0
   21.5924   19.3637   19.8530 H   0  0  0  0  0  0  0  0  0  0  0  0
   20.6169   17.9017   19.8962 H   0  0  0  0  0  0  0  0  0  0  0  0
   20.7204   18.9665   21.7963 C   0  0  0  0  0  0  0  0  0  0  0  0
   21.6498   18.4759   22.1170 H   0  0  0  0  0  0  0  0  0  0  0  0
   20.7862   20.0088   22.1359 H   0  0  0  0  0  0  0  0  0  0  0  0
   19.5169   18.2603   22.4701 C   0  0  0  0  0  0  0  0  0  0  0  0
   19.4108   17.2510   22.0492 H   0  0  0  0  0  0  0  0  0  0  0  0
   18.5849   18.7873   22.2307 H   0  0  0  0  0  0  0  0  0  0  0  0
   19.6673   18.1382   24.0085 C   0  0  0  0  0  0  0  0  0  0  0  0
   18.7873   17.6212   24.4137 H   0  0  0  0  0  0  0  0  0  0  0  0
   20.5267   17.4893   24.2225 H   0  0  0  0  0  0  0  0  0  0  0  0
   19.8609   19.4792   24.7553 C   0  0  1  0  0  0  0  0  0  0  0  0
   20.7433   19.9787   24.3445 H   0  0  0  0  0  0  0  0  0  0  0  0
   18.6503   20.4149   24.5882 C   0  0  0  0  0  0  0  0  0  0  0  0
   17.7269   19.9348   24.9352 H   0  0  0  0  0  0  0  0  0  0  0  0
   18.5139   20.7054   23.5399 H   0  0  0  0  0  0  0  0  0  0  0  0
   18.7920   21.3372   25.1647 H   0  0  0  0  0  0  0  0  0  0  0  0
   20.1469   19.2512   26.2137 N   0  3  0  0  0  0  0  0  0  0  0  0
   20.9756   18.6650   26.3487 H   0  0  0  0  0  0  0  0  0  0  0  0
   20.3155   20.1338   26.7046 H   0  0  0  0  0  0  0  0  0  0  0  0
   19.3631   18.7875   26.6808 H   0  0  0  0  0  0  0  0  0  0  0  0
  1  2  1  0  0  0  0
  1  3  1  0  0  0  0
  1  4  1  0  0  0  0
  1  5  1  0  0  0  0
  5  6  1  0  0  0  0
  5  7  1  0  0  0  0
  5  8  1  0  0  0  0
  8  9  1  0  0  0  0
  8 10  1  0  0  0  0
  8 11  1  0  0  0  0
 11 12  1  0  0  0  0
 11 13  1  0  0  0  0
 11 14  1  0  0  0  0
 14 15  1  0  0  0  0
 14 16  1  0  0  0  0
 14 17  1  0  0  0  0
 17 18  1  0  0  0  0
 17 19  1  0  0  0  0
 19 20  1  0  0  0  0
 19 21  1  0  0  0  0
 19 22  1  0  0  0  0
 17 23  1  0  0  0  0
 23 24  1  0  0  0  0
 23 25  1  0  0  0  0
 23 26  1  0  0  0  0
M  END
> <VM2 Rank>
21

> <Conf_Id>
183

> <Probability>
1.60

> <Sum Probability>
88.61

> <Delta G>
1.410

> <G>
25.119

> <E>
-7.848

> <-TS>
32.967

> <U+W>
-29.309

> <U>
24.864

> <W>
-54.173

> <W(PB)>
-56.445

> <W(SA)>
2.272

> <Valence>
4.005

> <Coulomb>
19.922

> <VdW>
0.937

> <VdW6>
-8.619

> <VdW12>
9.556

> <Bond>
0.248

> <Angle>
1.606

> <Pdih>
2.151

> <Idih>
0.000

> <Tether>
0.000

$$$$
VeraChem MOL file


 26 25  0  0  0  0  0  0  0  0999 V2000     
   20.1155   18.5740   19.3460 C   0  0  0  0  0  0  0  0  0  0  0  0
   19.3471   19.3018   19.0549 H   0  0  0  0  0  0  0  0  0  0  0  0
   20.7124   18.3417   18.4546 H   0  0  0  0  0  0  0  0  0  0  0  0
   19.6139   17.6490   19.6560 H   0  0  0  0  0  0  0  0  0  0  0  0
   21.0171   19.1363   20.4685 C   0  0  0  0  0  0  0  0  0  0  0  0
   21.5918   19.9832   20.0680 H   0  0  0  0  0  0  0  0  0  0  0  0
   21.7549   18.3777   20.7652 H   0  0  0  0  0  0  0  0  0  0  0  0
   20.2294   19.6161   21.7115 C   0  0  0  0  0  0  0  0  0  0  0  0
   20.9352   20.1126   22.3901 H   0  0  0  0  0  0  0  0  0  0  0  0
   19.5003   20.3808   21.4100 H   0  0  0  0  0  0  0  0  0  0  0  0
   19.5041   18.4699   22.4615 C   0  0  0  0  0  0  0  0  0  0  0  0
   20.2263   17.6906   22.7386 H   0  0  0  0  0  0  0  0  0  0  0  0
   18.7833   17.9899   21.7870 H   0  0  0  0  0  0  0  0  0  0  0  0
   18.7345   18.9526   23.7181 C   0  0  0  0  0  0  0  0  0  0  0  0
   17.9585   19.6638   23.4049 H   0  0  0  0  0  0  0  0  0  0  0  0
   18.2057   18.0989   24.1624 H   0  0  0  0  0  0  0  0  0  0  0  0
   19.6222   19.6178   24.7942 C   0  0  1  0  0  0  0  0  0  0  0  0
   20.1219   20.4808   24.3446 H   0  0  0  0  0  0  0  0  0  0  0  0
   18.7596   20.1208   25.9625 C   0  0  0  0  0  0  0  0  0  0  0  0
   18.2375   19.2918   26.4567 H   0  0  0  0  0  0  0  0  0  0  0  0
   18.0069   20.8373   25.6107 H   0  0  0  0  0  0  0  0  0  0  0  0
   19.3789   20.6295   26.7115 H   0  0  0  0  0  0  0  0  0  0  0  0
   20.7057   18.7007   25.2917 N   0  3  0  0  0  0  0  0  0  0  0  0
   21.3001   19.1639   25.9848 H   0  0  0  0  0  0  0  0  0  0  0  0
   20.3134   17.8651   25.7335 H   0  0  0  0  0  0  0  0  0  0  0  0
   21.3102   18.3904   24.5262 H   0  0  0  0  0  0  0  0  0  0  0  0
  1  2  1  0  0  0  0
  1  3  1  0  0  0  0
  1  4  1  0  0  0  0
  1  5  1  0  0  0  0
  5  6  1  0  0  0  0
  5  7  1  0  0  0  0
  5  8  1  0  0  0  0
  8  9  1  0  0  0  0
  8 10  1  0  0  0  0
  8 11  1  0  0  0  0
 11 12  1  0  0  0  0
 11 13  1  0  0  0  0
 11 14  1  0  0  0  0
 14 15  1  0  0  0  0
 14 16  1  0  0  0  0
 14 17  1  0  0  0  0
 17 18  1  0  0  0  0
 17 19  1  0  0  0  0
 19 20  1  0  0  0  0
 19 21  1  0  0  0  0
 19 22  1  0  0  0  0
 17 23  1  0  0  0  0
 23 24  1  0  0  0  0
 23 25  1  0  0  0  0
 23 26  1  0  0  0  0
M  END
> <VM2 Rank>
22

> <Conf_Id>
1215

> <Probability>
1.58

> <Sum Probability>
90.19

> <Delta G>
1.415

> <G>
25.125

> <E>
-7.705

> <-TS>
32.830

> <U+W>
-29.167

> <U>
24.833

> <W>
-54.000

> <W(PB)>
-56.293

> <W(SA)>
2.294

> <Valence>
3.589

> <Coulomb>
20.270

> <VdW>
0.974

> <VdW6>
-8.254

> <VdW12>
9.228

> <Bond>
0.244

> <Angle>
1.377

> <Pdih>
1.968

> <Idih>
0.000

> <Tether>
0.000

$$$$
VeraChem MOL file


 26 25  0  0  0  0  0  0  0  0999 V2000     
   21.2416   18.1957   20.0745 C   0  0  0  0  0  0  0  0  0  0  0  0
   22.1529   18.4173   20.6449 H   0  0  0  0  0  0  0  0  0  0  0  0
   20.8116   17.2631   20.4601 H   0  0  0  0  0  0  0  0  0  0  0  0
   21.5340   18.0171   19.0316 H   0  0  0  0  0  0  0  0  0  0  0  0
   20.2338   19.3643   20.1603 C   0  0  0  0  0  0  0  0  0  0  0  0
   19.3212   19.1074   19.6045 H   0  0  0  0  0  0  0  0  0  0  0  0
   20.6641   20.2409   19.6560 H   0  0  0  0  0  0  0  0  0  0  0  0
   19.8702   19.7557   21.6127 C   0  0  0  0  0  0  0  0  0  0  0  0
   20.7869   20.0331   22.1498 H   0  0  0  0  0  0  0  0  0  0  0  0
   19.2426   20.6571   21.5844 H   0  0  0  0  0  0  0  0  0  0  0  0
   19.1164   18.6391   22.3785 C   0  0  0  0  0  0  0  0  0  0  0  0
   19.7576   17.7555   22.4889 H   0  0  0  0  0  0  0  0  0  0  0  0
   18.2521   18.3154   21.7823 H   0  0  0  0  0  0  0  0  0  0  0  0
   18.6109   19.0928   23.7719 C   0  0  0  0  0  0  0  0  0  0  0  0
   17.8849   19.9056   23.6372 H   0  0  0  0  0  0  0  0  0  0  0  0
   18.0611   18.2656   24.2403 H   0  0  0  0  0  0  0  0  0  0  0  0
   19.7288   19.5696   24.7263 C   0  0  1  0  0  0  0  0  0  0  0  0
   20.2510   20.4069   24.2540 H   0  0  0  0  0  0  0  0  0  0  0  0
   19.1264   20.0667   26.0499 C   0  0  0  0  0  0  0  0  0  0  0  0
   18.4188   20.8862   25.8724 H   0  0  0  0  0  0  0  0  0  0  0  0
   19.9117   20.4438   26.7166 H   0  0  0  0  0  0  0  0  0  0  0  0
   18.5931   19.2617   26.5710 H   0  0  0  0  0  0  0  0  0  0  0  0
   20.7600   18.5041   24.9799 N   0  3  0  0  0  0  0  0  0  0  0  0
   20.3453   17.6833   25.4288 H   0  0  0  0  0  0  0  0  0  0  0  0
   21.1941   18.1928   24.1068 H   0  0  0  0  0  0  0  0  0  0  0  0
   21.5074   18.8438   25.5917 H   0  0  0  0  0  0  0  0  0  0  0  0
  1  2  1  0  0  0  0
  1  3  1  0  0  0  0
  1  4  1  0  0  0  0
  1  5  1  0  0  0  0
  5  6  1  0  0  0  0
  5  7  1  0  0  0  0
  5  8  1  0  0  0  0
  8  9  1  0  0  0  0
  8 10  1  0  0  0  0
  8 11  1  0  0  0  0
 11 12  1  0  0  0  0
 11 13  1  0  0  0  0
 11 14  1  0  0  0  0
 14 15  1  0  0  0  0
 14 16  1  0  0  0  0
 14 17  1  0  0  0  0
 17 18  1  0  0  0  0
 17 19  1  0  0  0  0
 19 20  1  0  0  0  0
 19 21  1  0  0  0  0
 19 22  1  0  0  0  0
 17 23  1  0  0  0  0
 23 24  1  0  0  0  0
 23 25  1  0  0  0  0
 23 26  1  0  0  0  0
M  END
> <VM2 Rank>
23

> <Conf_Id>
802

> <Probability>
1.46

> <Sum Probability>
91.64

> <Delta G>
1.465

> <G>
25.175

> <E>
-7.697

> <-TS>
32.872

> <U+W>
-29.159

> <U>
24.810

> <W>
-53.969

> <W(PB)>
-56.251

> <W(SA)>
2.282

> <Valence>
3.513

> <Coulomb>
20.423

> <VdW>
0.874

> <VdW6>
-8.372

> <VdW12>
9.246

> <Bond>
0.236

> <Angle>
1.287

> <Pdih>
1.990

> <Idih>
0.000

> <Tether>
0.000

$$$$
VeraChem MOL file


 26 25  0  0  0  0  0  0  0  0999 V2000     
   19.0823   18.2864   20.0989 C   0  0  0  0  0  0  0  0  0  0  0  0
   18.4418   18.1979   20.9852 H   0  0  0  0  0  0  0  0  0  0  0  0
   18.6938   19.1001   19.4729 H   0  0  0  0  0  0  0  0  0  0  0  0
   18.9907   17.3519   19.5305 H   0  0  0  0  0  0  0  0  0  0  0  0
   20.5562   18.5408   20.4883 C   0  0  0  0  0  0  0  0  0  0  0  0
   21.1736   18.5025   19.5801 H   0  0  0  0  0  0  0  0  0  0  0  0
   20.9157   17.7253   21.1302 H   0  0  0  0  0  0  0  0  0  0  0  0
   20.7835   19.9082   21.1818 C   0  0  0  0  0  0  0  0  0  0  0  0
   21.8553   20.0233   21.3946 H   0  0  0  0  0  0  0  0  0  0  0  0
   20.5298   20.7111   20.4760 H   0  0  0  0  0  0  0  0  0  0  0  0
   19.9824   20.1253   22.4915 C   0  0  0  0  0  0  0  0  0  0  0  0
   18.9089   20.1330   22.2647 H   0  0  0  0  0  0  0  0  0  0  0  0
   20.2186   21.1254   22.8806 H   0  0  0  0  0  0  0  0  0  0  0  0
   20.2944   19.0717   23.5852 C   0  0  0  0  0  0  0  0  0  0  0  0
   19.9498   18.0811   23.2621 H   0  0  0  0  0  0  0  0  0  0  0  0
   21.3838   19.0020   23.7026 H   0  0  0  0  0  0  0  0  0  0  0  0
   19.6723   19.4043   24.9604 C   0  0  1  0  0  0  0  0  0  0  0  0
   19.9933   20.4102   25.2480 H   0  0  0  0  0  0  0  0  0  0  0  0
   18.1337   19.3762   24.9213 C   0  0  0  0  0  0  0  0  0  0  0  0
   17.7631   18.4023   24.5779 H   0  0  0  0  0  0  0  0  0  0  0  0
   17.7376   20.1497   24.2534 H   0  0  0  0  0  0  0  0  0  0  0  0
   17.7184   19.5656   25.9188 H   0  0  0  0  0  0  0  0  0  0  0  0
   20.1832   18.4752   26.0265 N   0  3  0  0  0  0  0  0  0  0  0  0
   21.2040   18.5101   26.0998 H   0  0  0  0  0  0  0  0  0  0  0  0
   19.8042   18.7170   26.9465 H   0  0  0  0  0  0  0  0  0  0  0  0
   19.9217   17.5046   25.8343 H   0  0  0  0  0  0  0  0  0  0  0  0
  1  2  1  0  0  0  0
  1  3  1  0  0  0  0
  1  4  1  0  0  0  0
  1  5  1  0  0  0  0
  5  6  1  0  0  0  0
  5  7  1  0  0  0  0
  5  8  1  0  0  0  0
  8  9  1  0  0  0  0
  8 10  1  0  0  0  0
  8 11  1  0  0  0  0
 11 12  1  0  0  0  0
 11 13  1  0  0  0  0
 11 14  1  0  0  0  0
 14 15  1  0  0  0  0
 14 16  1  0  0  0  0
 14 17  1  0  0  0  0
 17 18  1  0  0  0  0
 17 19  1  0  0  0  0
 19 20  1  0  0  0  0
 19 21  1  0  0  0  0
 19 22  1  0  0  0  0
 17 23  1  0  0  0  0
 23 24  1  0  0  0  0
 23 25  1  0  0  0  0
 23 26  1  0  0  0  0
M  END
> <VM2 Rank>
24

> <Conf_Id>
225

> <Probability>
1.19

> <Sum Probability>
92.83

> <Delta G>
1.587

> <G>
25.296

> <E>
-7.727

> <-TS>
33.023

> <U+W>
-29.189

> <U>
25.014

> <W>
-54.203

> <W(PB)>
-56.465

> <W(SA)>
2.262

> <Valence>
4.188

> <Coulomb>
19.774

> <VdW>
1.052

> <VdW6>
-8.655

> <VdW12>
9.707

> <Bond>
0.263

> <Angle>
1.714

> <Pdih>
2.211

> <Idih>
0.000

> <Tether>
0.000

$$$$
VeraChem MOL file


 26 25  0  0  0  0  0  0  0  0999 V2000     
   20.0609   18.6168   19.3310 C   0  0  0  0  0  0  0  0  0  0  0  0
   20.0511   18.9963   18.3010 H   0  0  0  0  0  0  0  0  0  0  0  0
   20.8098   17.8161   19.3863 H   0  0  0  0  0  0  0  0  0  0  0  0
   19.0745   18.1803   19.5299 H   0  0  0  0  0  0  0  0  0  0  0  0
   20.3902   19.7554   20.3231 C   0  0  0  0  0  0  0  0  0  0  0  0
   19.6092   20.5270   20.2734 H   0  0  0  0  0  0  0  0  0  0  0  0
   21.3229   20.2417   20.0046 H   0  0  0  0  0  0  0  0  0  0  0  0
   20.5574   19.2726   21.7842 C   0  0  0  0  0  0  0  0  0  0  0  0
   21.3448   18.5077   21.8296 H   0  0  0  0  0  0  0  0  0  0  0  0
   20.9143   20.1207   22.3831 H   0  0  0  0  0  0  0  0  0  0  0  0
   19.2501   18.7150   22.4024 C   0  0  0  0  0  0  0  0  0  0  0  0
   18.9023   17.8576   21.8118 H   0  0  0  0  0  0  0  0  0  0  0  0
   18.4552   19.4694   22.3362 H   0  0  0  0  0  0  0  0  0  0  0  0
   19.4195   18.2458   23.8709 C   0  0  0  0  0  0  0  0  0  0  0  0
   18.4633   17.8401   24.2273 H   0  0  0  0  0  0  0  0  0  0  0  0
   20.1296   17.4085   23.8869 H   0  0  0  0  0  0  0  0  0  0  0  0
   19.9108   19.3310   24.8582 C   0  0  1  0  0  0  0  0  0  0  0  0
   20.8689   19.7175   24.4987 H   0  0  0  0  0  0  0  0  0  0  0  0
   18.9220   20.5054   24.9668 C   0  0  0  0  0  0  0  0  0  0  0  0
   17.9262   20.1590   25.2703 H   0  0  0  0  0  0  0  0  0  0  0  0
   18.8259   21.0339   24.0112 H   0  0  0  0  0  0  0  0  0  0  0  0
   19.2690   21.2357   25.7081 H   0  0  0  0  0  0  0  0  0  0  0  0
   20.1772   18.7460   26.2174 N   0  3  0  0  0  0  0  0  0  0  0  0
   20.8659   17.9894   26.1744 H   0  0  0  0  0  0  0  0  0  0  0  0
   20.5408   19.4518   26.8640 H   0  0  0  0  0  0  0  0  0  0  0  0
   19.3245   18.3620   26.6333 H   0  0  0  0  0  0  0  0  0  0  0  0
  1  2  1  0  0  0  0
  1  3  1  0  0  0  0
  1  4  1  0  0  0  0
  1  5  1  0  0  0  0
  5  6  1  0  0  0  0
  5  7  1  0  0  0  0
  5  8  1  0  0  0  0
  8  9  1  0  0  0  0
  8 10  1  0  0  0  0
  8 11  1  0  0  0  0
 11 12  1  0  0  0  0
 11 13  1  0  0  0  0
 11 14  1  0  0  0  0
 14 15  1  0  0  0  0
 14 16  1  0  0  0  0
 14 17  1  0  0  0  0
 17 18  1  0  0  0  0
 17 19  1  0  0  0  0
 19 20  1  0  0  0  0
 19 21  1  0  0  0  0
 19 22  1  0  0  0  0
 17 23  1  0  0  0  0
 23 24  1  0  0  0  0
 23 25  1  0  0  0  0
 23 26  1  0  0  0  0
M  END
> <VM2 Rank>
25

> <Conf_Id>
5

> <Probability>
1.14

> <Sum Probability>
93.97

> <Delta G>
1.610

> <G>
25.320

> <E>
-7.603

> <-TS>
32.924

> <U+W>
-29.065

> <U>
25.023

> <W>
-54.088

> <W(PB)>
-56.383

> <W(SA)>
2.296

> <Valence>
4.083

> <Coulomb>
19.893

> <VdW>
1.047

> <VdW6>
-8.479

> <VdW12>
9.527

> <Bond>
0.256

> <Angle>
1.716

> <Pdih>
2.112

> <Idih>
0.000

> <Tether>
0.000

$$$$
VeraChem MOL file


 26 25  0  0  0  0  0  0  0  0999 V2000     
   21.1679   19.3998   19.7804 C   0  0  0  0  0  0  0  0  0  0  0  0
   22.0080   18.8116   19.3888 H   0  0  0  0  0  0  0  0  0  0  0  0
   20.4811   19.6012   18.9480 H   0  0  0  0  0  0  0  0  0  0  0  0
   21.5652   20.3595   20.1359 H   0  0  0  0  0  0  0  0  0  0  0  0
   20.4540   18.6396   20.9180 C   0  0  0  0  0  0  0  0  0  0  0  0
   21.1809   18.4218   21.7117 H   0  0  0  0  0  0  0  0  0  0  0  0
   20.0945   17.6721   20.5406 H   0  0  0  0  0  0  0  0  0  0  0  0
   19.2669   19.4509   21.4883 C   0  0  0  0  0  0  0  0  0  0  0  0
   19.6315   20.4029   21.8968 H   0  0  0  0  0  0  0  0  0  0  0  0
   18.5879   19.7156   20.6660 H   0  0  0  0  0  0  0  0  0  0  0  0
   18.4548   18.6866   22.5656 C   0  0  0  0  0  0  0  0  0  0  0  0
   18.0112   17.7906   22.1099 H   0  0  0  0  0  0  0  0  0  0  0  0
   17.6052   19.3083   22.8782 H   0  0  0  0  0  0  0  0  0  0  0  0
   19.2692   18.2582   23.8159 C   0  0  0  0  0  0  0  0  0  0  0  0
   18.5897   17.7880   24.5391 H   0  0  0  0  0  0  0  0  0  0  0  0
   19.9801   17.4751   23.5233 H   0  0  0  0  0  0  0  0  0  0  0  0
   20.0433   19.4018   24.5123 C   0  0  1  0  0  0  0  0  0  0  0  0
   20.7039   19.8687   23.7755 H   0  0  0  0  0  0  0  0  0  0  0  0
   19.0981   20.4796   25.0722 C   0  0  0  0  0  0  0  0  0  0  0  0
   18.3841   20.0491   25.7853 H   0  0  0  0  0  0  0  0  0  0  0  0
   18.5308   20.9668   24.2706 H   0  0  0  0  0  0  0  0  0  0  0  0
   19.6669   21.2616   25.5901 H   0  0  0  0  0  0  0  0  0  0  0  0
   20.9339   18.8714   25.6014 N   0  3  0  0  0  0  0  0  0  0  0  0
   20.3909   18.4171   26.3405 H   0  0  0  0  0  0  0  0  0  0  0  0
   21.6008   18.1824   25.2421 H   0  0  0  0  0  0  0  0  0  0  0  0
   21.4769   19.6210   26.0390 H   0  0  0  0  0  0  0  0  0  0  0  0
  1  2  1  0  0  0  0
  1  3  1  0  0  0  0
  1  4  1  0  0  0  0
  1  5  1  0  0  0  0
  5  6  1  0  0  0  0
  5  7  1  0  0  0  0
  5  8  1  0  0  0  0
  8  9  1  0  0  0  0
  8 10  1  0  0  0  0
  8 11  1  0  0  0  0
 11 12  1  0  0  0  0
 11 13  1  0  0  0  0
 11 14  1  0  0  0  0
 14 15  1  0  0  0  0
 14 16  1  0  0  0  0
 14 17  1  0  0  0  0
 17 18  1  0  0  0  0
 17 19  1  0  0  0  0
 19 20  1  0  0  0  0
 19 21  1  0  0  0  0
 19 22  1  0  0  0  0
 17 23  1  0  0  0  0
 23 24  1  0  0  0  0
 23 25  1  0  0  0  0
 23 26  1  0  0  0  0
M  END
> <VM2 Rank>
26

> <Conf_Id>
1349

> <Probability>
1.06

> <Sum Probability>
95.03

> <Delta G>
1.655

> <G>
25.365

> <E>
-7.775

> <-TS>
33.140

> <U+W>
-29.237

> <U>
25.091

> <W>
-54.328

> <W(PB)>
-56.621

> <W(SA)>
2.294

> <Valence>
3.982

> <Coulomb>
20.360

> <VdW>
0.750

> <VdW6>
-8.971

> <VdW12>
9.720

> <Bond>
0.256

> <Angle>
1.694

> <Pdih>
2.032

> <Idih>
0.000

> <Tether>
0.000

$$$$
VeraChem MOL file


 26 25  0  0  0  0  0  0  0  0999 V2000     
   19.0302   19.3234   19.9751 C   0  0  0  0  0  0  0  0  0  0  0  0
   18.7105   18.3320   19.6289 H   0  0  0  0  0  0  0  0  0  0  0  0
   18.3830   19.6222   20.8090 H   0  0  0  0  0  0  0  0  0  0  0  0
   18.8637   20.0352   19.1563 H   0  0  0  0  0  0  0  0  0  0  0  0
   20.5191   19.3133   20.3893 C   0  0  0  0  0  0  0  0  0  0  0  0
   20.8099   20.3085   20.7512 H   0  0  0  0  0  0  0  0  0  0  0  0
   21.1331   19.1278   19.4969 H   0  0  0  0  0  0  0  0  0  0  0  0
   20.8567   18.2365   21.4520 C   0  0  0  0  0  0  0  0  0  0  0  0
   20.6774   17.2428   21.0187 H   0  0  0  0  0  0  0  0  0  0  0  0
   21.9328   18.2791   21.6696 H   0  0  0  0  0  0  0  0  0  0  0  0
   20.0679   18.3477   22.7823 C   0  0  0  0  0  0  0  0  0  0  0  0
   20.3822   17.5213   23.4329 H   0  0  0  0  0  0  0  0  0  0  0  0
   18.9996   18.1909   22.5869 H   0  0  0  0  0  0  0  0  0  0  0  0
   20.2875   19.6986   23.5164 C   0  0  0  0  0  0  0  0  0  0  0  0
   21.3649   19.8799   23.6242 H   0  0  0  0  0  0  0  0  0  0  0  0
   19.9012   20.5200   22.9002 H   0  0  0  0  0  0  0  0  0  0  0  0
   19.6314   19.7925   24.9142 C   0  0  1  0  0  0  0  0  0  0  0  0
   19.8743   20.7790   25.3212 H   0  0  0  0  0  0  0  0  0  0  0  0
   18.0982   19.6843   24.8404 C   0  0  0  0  0  0  0  0  0  0  0  0
   17.7769   18.6836   24.5281 H   0  0  0  0  0  0  0  0  0  0  0  0
   17.6896   20.4141   24.1305 H   0  0  0  0  0  0  0  0  0  0  0  0
   17.6517   19.8886   25.8212 H   0  0  0  0  0  0  0  0  0  0  0  0
   20.1969   18.7918   25.8843 N   0  3  0  0  0  0  0  0  0  0  0  0
   21.2127   18.8858   25.9713 H   0  0  0  0  0  0  0  0  0  0  0  0
   19.7977   18.9107   26.8197 H   0  0  0  0  0  0  0  0  0  0  0  0
   20.0004   17.8331   25.5867 H   0  0  0  0  0  0  0  0  0  0  0  0
  1  2  1  0  0  0  0
  1  3  1  0  0  0  0
  1  4  1  0  0  0  0
  1  5  1  0  0  0  0
  5  6  1  0  0  0  0
  5  7  1  0  0  0  0
  5  8  1  0  0  0  0
  8  9  1  0  0  0  0
  8 10  1  0  0  0  0
  8 11  1  0  0  0  0
 11 12  1  0  0  0  0
 11 13  1  0  0  0  0
 11 14  1  0  0  0  0
 14 15  1  0  0  0  0
 14 16  1  0  0  0  0
 14 17  1  0  0  0  0
 17 18  1  0  0  0  0
 17 19  1  0  0  0  0
 19 20  1  0  0  0  0
 19 21  1  0  0  0  0
 19 22  1  0  0  0  0
 17 23  1  0  0  0  0
 23 24  1  0  0  0  0
 23 25  1  0  0  0  0
 23 26  1  0  0  0  0
M  END
> <VM2 Rank>
27

> <Conf_Id>
859

> <Probability>
0.84

> <Sum Probability>
95.87

> <Delta G>
1.794

> <G>
25.504

> <E>
-7.647

> <-TS>
33.151

> <U+W>
-29.109

> <U>
25.100

> <W>
-54.209

> <W(PB)>
-56.438

> <W(SA)>
2.229

> <Valence>
4.185

> <Coulomb>
19.843

> <VdW>
1.072

> <VdW6>
-9.125

> <VdW12>
10.197

> <Bond>
0.294

> <Angle>
1.814

> <Pdih>
2.077

> <Idih>
0.000

> <Tether>
0.000

$$$$
VeraChem MOL file


 26 25  0  0  0  0  0  0  0  0999 V2000     
   21.3085   19.2404   20.1274 C   0  0  0  0  0  0  0  0  0  0  0  0
   21.7553   19.6142   21.0571 H   0  0  0  0  0  0  0  0  0  0  0  0
   22.0916   18.7022   19.5779 H   0  0  0  0  0  0  0  0  0  0  0  0
   21.0039   20.1027   19.5204 H   0  0  0  0  0  0  0  0  0  0  0  0
   20.1084   18.3089   20.4106 C   0  0  0  0  0  0  0  0  0  0  0  0
   20.4321   17.4661   21.0356 H   0  0  0  0  0  0  0  0  0  0  0  0
   19.7737   17.8659   19.4622 H   0  0  0  0  0  0  0  0  0  0  0  0
   18.9051   19.0339   21.0663 C   0  0  0  0  0  0  0  0  0  0  0  0
   18.5148   19.7788   20.3592 H   0  0  0  0  0  0  0  0  0  0  0  0
   18.0935   18.3085   21.2156 H   0  0  0  0  0  0  0  0  0  0  0  0
   19.2040   19.7409   22.4141 C   0  0  0  0  0  0  0  0  0  0  0  0
   18.2819   20.2389   22.7398 H   0  0  0  0  0  0  0  0  0  0  0  0
   19.9421   20.5395   22.2625 H   0  0  0  0  0  0  0  0  0  0  0  0
   19.6951   18.7766   23.5251 C   0  0  0  0  0  0  0  0  0  0  0  0
   18.9497   17.9869   23.6871 H   0  0  0  0  0  0  0  0  0  0  0  0
   20.6101   18.2776   23.1836 H   0  0  0  0  0  0  0  0  0  0  0  0
   20.0091   19.4795   24.8660 C   0  0  1  0  0  0  0  0  0  0  0  0
   20.7060   20.2999   24.6684 H   0  0  0  0  0  0  0  0  0  0  0  0
   18.7473   20.0603   25.5297 C   0  0  0  0  0  0  0  0  0  0  0  0
   18.9911   20.4981   26.5056 H   0  0  0  0  0  0  0  0  0  0  0  0
   17.9879   19.2841   25.6860 H   0  0  0  0  0  0  0  0  0  0  0  0
   18.3050   20.8568   24.9207 H   0  0  0  0  0  0  0  0  0  0  0  0
   20.7106   18.5474   25.8147 N   0  3  0  0  0  0  0  0  0  0  0  0
   21.5787   18.1823   25.4126 H   0  0  0  0  0  0  0  0  0  0  0  0
   20.9560   19.0192   26.6897 H   0  0  0  0  0  0  0  0  0  0  0  0
   20.1219   17.7455   26.0553 H   0  0  0  0  0  0  0  0  0  0  0  0
  1  2  1  0  0  0  0
  1  3  1  0  0  0  0
  1  4  1  0  0  0  0
  1  5  1  0  0  0  0
  5  6  1  0  0  0  0
  5  7  1  0  0  0  0
  5  8  1  0  0  0  0
  8  9  1  0  0  0  0
  8 10  1  0  0  0  0
  8 11  1  0  0  0  0
 11 12  1  0  0  0  0
 11 13  1  0  0  0  0
 11 14  1  0  0  0  0
 14 15  1  0  0  0  0
 14 16  1  0  0  0  0
 14 17  1  0  0  0  0
 17 18  1  0  0  0  0
 17 19  1  0  0  0  0
 19 20  1  0  0  0  0
 19 21  1  0  0  0  0
 19 22  1  0  0  0  0
 17 23  1  0  0  0  0
 23 24  1  0  0  0  0
 23 25  1  0  0  0  0
 23 26  1  0  0  0  0
M  END
> <VM2 Rank>
28

> <Conf_Id>
1007

> <Probability>
0.77

> <Sum Probability>
96.64

> <Delta G>
1.848

> <G>
25.558

> <E>
-7.392

> <-TS>
32.950

> <U+W>
-28.854

> <U>
25.366

> <W>
-54.220

> <W(PB)>
-56.490

> <W(SA)>
2.270

> <Valence>
4.329

> <Coulomb>
19.841

> <VdW>
1.196

> <VdW6>
-8.514

> <VdW12>
9.710

> <Bond>
0.275

> <Angle>
1.896

> <Pdih>
2.159

> <Idih>
0.000

> <Tether>
0.000

$$$$
VeraChem MOL file


 26 25  0  0  0  0  0  0  0  0999 V2000     
   19.5262   19.2326   19.7862 C   0  0  0  0  0  0  0  0  0  0  0  0
   19.2463   20.0429   19.1008 H   0  0  0  0  0  0  0  0  0  0  0  0
   20.0173   18.4479   19.1962 H   0  0  0  0  0  0  0  0  0  0  0  0
   18.6003   18.8190   20.2049 H   0  0  0  0  0  0  0  0  0  0  0  0
   20.4633   19.7610   20.8956 C   0  0  0  0  0  0  0  0  0  0  0  0
   19.9470   20.5347   21.4793 H   0  0  0  0  0  0  0  0  0  0  0  0
   21.3210   20.2616   20.4248 H   0  0  0  0  0  0  0  0  0  0  0  0
   20.9953   18.6470   21.8325 C   0  0  0  0  0  0  0  0  0  0  0  0
   21.5913   17.9400   21.2390 H   0  0  0  0  0  0  0  0  0  0  0  0
   21.6963   19.0928   22.5506 H   0  0  0  0  0  0  0  0  0  0  0  0
   19.9031   17.8529   22.5988 C   0  0  0  0  0  0  0  0  0  0  0  0
   20.3924   17.1044   23.2361 H   0  0  0  0  0  0  0  0  0  0  0  0
   19.3031   17.2754   21.8831 H   0  0  0  0  0  0  0  0  0  0  0  0
   18.9524   18.7228   23.4636 C   0  0  0  0  0  0  0  0  0  0  0  0
   18.3393   19.3498   22.8035 H   0  0  0  0  0  0  0  0  0  0  0  0
   18.2491   18.0658   23.9922 H   0  0  0  0  0  0  0  0  0  0  0  0
   19.6790   19.6233   24.4870 C   0  0  1  0  0  0  0  0  0  0  0  0
   20.3757   20.2684   23.9434 H   0  0  0  0  0  0  0  0  0  0  0  0
   18.6705   20.5193   25.2231 C   0  0  0  0  0  0  0  0  0  0  0  0
   19.1848   21.1878   25.9245 H   0  0  0  0  0  0  0  0  0  0  0  0
   17.9468   19.9203   25.7900 H   0  0  0  0  0  0  0  0  0  0  0  0
   18.1150   21.1451   24.5136 H   0  0  0  0  0  0  0  0  0  0  0  0
   20.4981   18.8291   25.4672 N   0  3  0  0  0  0  0  0  0  0  0  0
   20.9984   19.4395   26.1194 H   0  0  0  0  0  0  0  0  0  0  0  0
   19.9099   18.2028   26.0230 H   0  0  0  0  0  0  0  0  0  0  0  0
   21.1951   18.2531   24.9879 H   0  0  0  0  0  0  0  0  0  0  0  0
  1  2  1  0  0  0  0
  1  3  1  0  0  0  0
  1  4  1  0  0  0  0
  1  5  1  0  0  0  0
  5  6  1  0  0  0  0
  5  7  1  0  0  0  0
  5  8  1  0  0  0  0
  8  9  1  0  0  0  0
  8 10  1  0  0  0  0
  8 11  1  0  0  0  0
 11 12  1  0  0  0  0
 11 13  1  0  0  0  0
 11 14  1  0  0  0  0
 14 15  1  0  0  0  0
 14 16  1  0  0  0  0
 14 17  1  0  0  0  0
 17 18  1  0  0  0  0
 17 19  1  0  0  0  0
 19 20  1  0  0  0  0
 19 21  1  0  0  0  0
 19 22  1  0  0  0  0
 17 23  1  0  0  0  0
 23 24  1  0  0  0  0
 23 25  1  0  0  0  0
 23 26  1  0  0  0  0
M  END
> <VM2 Rank>
29

> <Conf_Id>
457

> <Probability>
0.72

> <Sum Probability>
97.36

> <Delta G>
1.885

> <G>
25.594

> <E>
-7.748

> <-TS>
33.343

> <U+W>
-29.210

> <U>
24.974

> <W>
-54.183

> <W(PB)>
-56.448

> <W(SA)>
2.265

> <Valence>
3.932

> <Coulomb>
20.395

> <VdW>
0.646

> <VdW6>
-9.633

> <VdW12>
10.279

> <Bond>
0.286

> <Angle>
1.718

> <Pdih>
1.928

> <Idih>
0.000

> <Tether>
0.000

$$$$
VeraChem MOL file


 26 25  0  0  0  0  0  0  0  0999 V2000     
   21.1971   18.1895   20.3635 C   0  0  0  0  0  0  0  0  0  0  0  0
   22.0749   18.3518   19.7248 H   0  0  0  0  0  0  0  0  0  0  0  0
   21.5610   17.9703   21.3749 H   0  0  0  0  0  0  0  0  0  0  0  0
   20.6675   17.3043   19.9883 H   0  0  0  0  0  0  0  0  0  0  0  0
   20.2797   19.4331   20.3488 C   0  0  0  0  0  0  0  0  0  0  0  0
   20.0415   19.6841   19.3058 H   0  0  0  0  0  0  0  0  0  0  0  0
   20.8234   20.2997   20.7480 H   0  0  0  0  0  0  0  0  0  0  0  0
   18.9514   19.2296   21.1216 C   0  0  0  0  0  0  0  0  0  0  0  0
   18.3520   20.1470   21.0428 H   0  0  0  0  0  0  0  0  0  0  0  0
   18.3674   18.4459   20.6198 H   0  0  0  0  0  0  0  0  0  0  0  0
   19.1029   18.8529   22.6183 C   0  0  0  0  0  0  0  0  0  0  0  0
   19.6059   17.8815   22.7035 H   0  0  0  0  0  0  0  0  0  0  0  0
   18.0959   18.7106   23.0307 H   0  0  0  0  0  0  0  0  0  0  0  0
   19.8590   19.9246   23.4504 C   0  0  0  0  0  0  0  0  0  0  0  0
   20.8745   20.0470   23.0543 H   0  0  0  0  0  0  0  0  0  0  0  0
   19.3650   20.8971   23.3253 H   0  0  0  0  0  0  0  0  0  0  0  0
   19.9735   19.6140   24.9617 C   0  0  1  0  0  0  0  0  0  0  0  0
   20.5676   20.4149   25.4128 H   0  0  0  0  0  0  0  0  0  0  0  0
   18.6019   19.6065   25.6593 C   0  0  0  0  0  0  0  0  0  0  0  0
   18.7258   19.5276   26.7463 H   0  0  0  0  0  0  0  0  0  0  0  0
   17.9833   18.7626   25.3318 H   0  0  0  0  0  0  0  0  0  0  0  0
   18.0546   20.5349   25.4540 H   0  0  0  0  0  0  0  0  0  0  0  0
   20.7225   18.3378   25.2304 N   0  3  0  0  0  0  0  0  0  0  0  0
   21.6556   18.3543   24.8094 H   0  0  0  0  0  0  0  0  0  0  0  0
   20.8428   18.1792   26.2348 H   0  0  0  0  0  0  0  0  0  0  0  0
   20.2259   17.5288   24.8493 H   0  0  0  0  0  0  0  0  0  0  0  0
  1  2  1  0  0  0  0
  1  3  1  0  0  0  0
  1  4  1  0  0  0  0
  1  5  1  0  0  0  0
  5  6  1  0  0  0  0
  5  7  1  0  0  0  0
  5  8  1  0  0  0  0
  8  9  1  0  0  0  0
  8 10  1  0  0  0  0
  8 11  1  0  0  0  0
 11 12  1  0  0  0  0
 11 13  1  0  0  0  0
 11 14  1  0  0  0  0
 14 15  1  0  0  0  0
 14 16  1  0  0  0  0
 14 17  1  0  0  0  0
 17 18  1  0  0  0  0
 17 19  1  0  0  0  0
 19 20  1  0  0  0  0
 19 21  1  0  0  0  0
 19 22  1  0  0  0  0
 17 23  1  0  0  0  0
 23 24  1  0  0  0  0
 23 25  1  0  0  0  0
 23 26  1  0  0  0  0
M  END
> <VM2 Rank>
30

> <Conf_Id>
237

> <Probability>
0.49

> <Sum Probability>
97.85

> <Delta G>
2.112

> <G>
25.822

> <E>
-7.288

> <-TS>
33.110

> <U+W>
-28.750

> <U>
25.589

> <W>
-54.339

> <W(PB)>
-56.599

> <W(SA)>
2.260

> <Valence>
4.269

> <Coulomb>
20.216

> <VdW>
1.104

> <VdW6>
-9.052

> <VdW12>
10.157

> <Bond>
0.298

> <Angle>
1.891

> <Pdih>
2.079

> <Idih>
0.000

> <Tether>
0.000

$$$$
VeraChem MOL file


 26 25  0  0  0  0  0  0  0  0999 V2000     
   20.5369   18.2094   19.9947 C   0  0  0  0  0  0  0  0  0  0  0  0
   21.4559   17.7929   19.5626 H   0  0  0  0  0  0  0  0  0  0  0  0
   20.0023   17.3887   20.4888 H   0  0  0  0  0  0  0  0  0  0  0  0
   19.9142   18.5776   19.1691 H   0  0  0  0  0  0  0  0  0  0  0  0
   20.8718   19.3460   20.9867 C   0  0  0  0  0  0  0  0  0  0  0  0
   21.4988   20.0889   20.4743 H   0  0  0  0  0  0  0  0  0  0  0  0
   21.4837   18.9516   21.8089 H   0  0  0  0  0  0  0  0  0  0  0  0
   19.6165   20.0617   21.5470 C   0  0  0  0  0  0  0  0  0  0  0  0
   19.9382   20.8904   22.1919 H   0  0  0  0  0  0  0  0  0  0  0  0
   19.0741   20.5299   20.7140 H   0  0  0  0  0  0  0  0  0  0  0  0
   18.6326   19.1507   22.3294 C   0  0  0  0  0  0  0  0  0  0  0  0
   18.1871   18.4199   21.6414 H   0  0  0  0  0  0  0  0  0  0  0  0
   17.7916   19.7610   22.6843 H   0  0  0  0  0  0  0  0  0  0  0  0
   19.2621   18.3919   23.5283 C   0  0  0  0  0  0  0  0  0  0  0  0
   18.4760   17.8245   24.0436 H   0  0  0  0  0  0  0  0  0  0  0  0
   19.9655   17.6437   23.1414 H   0  0  0  0  0  0  0  0  0  0  0  0
   19.9986   19.2887   24.5507 C   0  0  1  0  0  0  0  0  0  0  0  0
   20.7639   19.8610   24.0179 H   0  0  0  0  0  0  0  0  0  0  0  0
   19.0438   20.2777   25.2427 C   0  0  0  0  0  0  0  0  0  0  0  0
   19.5815   20.8773   25.9874 H   0  0  0  0  0  0  0  0  0  0  0  0
   18.2290   19.7503   25.7542 H   0  0  0  0  0  0  0  0  0  0  0  0
   18.6017   20.9749   24.5215 H   0  0  0  0  0  0  0  0  0  0  0  0
   20.7258   18.4619   25.5745 N   0  3  0  0  0  0  0  0  0  0  0  0
   21.3982   17.8252   25.1375 H   0  0  0  0  0  0  0  0  0  0  0  0
   21.2465   19.0513   26.2301 H   0  0  0  0  0  0  0  0  0  0  0  0
   20.0771   17.8931   26.1251 H   0  0  0  0  0  0  0  0  0  0  0  0
  1  2  1  0  0  0  0
  1  3  1  0  0  0  0
  1  4  1  0  0  0  0
  1  5  1  0  0  0  0
  5  6  1  0  0  0  0
  5  7  1  0  0  0  0
  5  8  1  0  0  0  0
  8  9  1  0  0  0  0
  8 10  1  0  0  0  0
  8 11  1  0  0  0  0
 11 12  1  0  0  0  0
 11 13  1  0  0  0  0
 11 14  1  0  0  0  0
 14 15  1  0  0  0  0
 14 16  1  0  0  0  0
 14 17  1  0  0  0  0
 17 18  1  0  0  0  0
 17 19  1  0  0  0  0
 19 20  1  0  0  0  0
 19 21  1  0  0  0  0
 19 22  1  0  0  0  0
 17 23  1  0  0  0  0
 23 24  1  0  0  0  0
 23 25  1  0  0  0  0
 23 26  1  0  0  0  0
M  END
> <VM2 Rank>
31

> <Conf_Id>
72

> <Probability>
0.40

> <Sum Probability>
98.25

> <Delta G>
2.235

> <G>
25.945

> <E>
-7.506

> <-TS>
33.451

> <U+W>
-28.968

> <U>
25.506

> <W>
-54.474

> <W(PB)>
-56.692

> <W(SA)>
2.218

> <Valence>
4.414

> <Coulomb>
20.363

> <VdW>
0.729

> <VdW6>
-9.838

> <VdW12>
10.567

> <Bond>
0.296

> <Angle>
2.006

> <Pdih>
2.112

> <Idih>
0.000

> <Tether>
0.000

$$$$
VeraChem MOL file


 26 25  0  0  0  0  0  0  0  0999 V2000     
   20.7145   17.8852   19.4383 C   0  0  0  0  0  0  0  0  0  0  0  0
   19.7250   17.4930   19.1696 H   0  0  0  0  0  0  0  0  0  0  0  0
   21.2553   18.1011   18.5077 H   0  0  0  0  0  0  0  0  0  0  0  0
   21.2620   17.0965   19.9707 H   0  0  0  0  0  0  0  0  0  0  0  0
   20.5910   19.1570   20.3041 C   0  0  0  0  0  0  0  0  0  0  0  0
   20.0712   19.9380   19.7315 H   0  0  0  0  0  0  0  0  0  0  0  0
   21.5949   19.5439   20.5286 H   0  0  0  0  0  0  0  0  0  0  0  0
   19.8314   18.8814   21.6206 C   0  0  0  0  0  0  0  0  0  0  0  0
   18.8283   18.4985   21.3869 H   0  0  0  0  0  0  0  0  0  0  0  0
   20.3505   18.0885   22.1700 H   0  0  0  0  0  0  0  0  0  0  0  0
   19.7059   20.1592   22.4869 C   0  0  0  0  0  0  0  0  0  0  0  0
   19.2021   20.9287   21.8855 H   0  0  0  0  0  0  0  0  0  0  0  0
   20.7008   20.5622   22.7219 H   0  0  0  0  0  0  0  0  0  0  0  0
   18.8927   19.9604   23.7934 C   0  0  0  0  0  0  0  0  0  0  0  0
   18.4406   20.9270   24.0530 H   0  0  0  0  0  0  0  0  0  0  0  0
   18.0538   19.2734   23.6204 H   0  0  0  0  0  0  0  0  0  0  0  0
   19.7304   19.4936   25.0073 C   0  0  1  0  0  0  0  0  0  0  0  0
   20.5567   20.1984   25.1415 H   0  0  0  0  0  0  0  0  0  0  0  0
   18.8723   19.5138   26.2827 C   0  0  0  0  0  0  0  0  0  0  0  0
   18.0250   18.8214   26.2020 H   0  0  0  0  0  0  0  0  0  0  0  0
   18.4752   20.5192   26.4706 H   0  0  0  0  0  0  0  0  0  0  0  0
   19.4684   19.2240   27.1568 H   0  0  0  0  0  0  0  0  0  0  0  0
   20.3499   18.1375   24.8207 N   0  3  0  0  0  0  0  0  0  0  0  0
   20.9753   18.1259   24.0110 H   0  0  0  0  0  0  0  0  0  0  0  0
   20.9013   17.8627   25.6385 H   0  0  0  0  0  0  0  0  0  0  0  0
   19.6364   17.4186   24.6748 H   0  0  0  0  0  0  0  0  0  0  0  0
  1  2  1  0  0  0  0
  1  3  1  0  0  0  0
  1  4  1  0  0  0  0
  1  5  1  0  0  0  0
  5  6  1  0  0  0  0
  5  7  1  0  0  0  0
  5  8  1  0  0  0  0
  8  9  1  0  0  0  0
  8 10  1  0  0  0  0
  8 11  1  0  0  0  0
 11 12  1  0  0  0  0
 11 13  1  0  0  0  0
 11 14  1  0  0  0  0
 14 15  1  0  0  0  0
 14 16  1  0  0  0  0
 14 17  1  0  0  0  0
 17 18  1  0  0  0  0
 17 19  1  0  0  0  0
 19 20  1  0  0  0  0
 19 21  1  0  0  0  0
 19 22  1  0  0  0  0
 17 23  1  0  0  0  0
 23 24  1  0  0  0  0
 23 25  1  0  0  0  0
 23 26  1  0  0  0  0
M  END
> <VM2 Rank>
32

> <Conf_Id>
282

> <Probability>
0.18

> <Sum Probability>
98.43

> <Delta G>
2.695

> <G>
26.405

> <E>
-5.958

> <-TS>
32.364

> <U+W>
-27.420

> <U>
26.493

> <W>
-53.913

> <W(PB)>
-56.220

> <W(SA)>
2.307

> <Valence>
4.731

> <Coulomb>
20.826

> <VdW>
0.936

> <VdW6>
-7.662

> <VdW12>
8.598

> <Bond>
0.241

> <Angle>
1.432

> <Pdih>
3.058

> <Idih>
0.000

> <Tether>
0.000

$$$$
VeraChem MOL file


 26 25  0  0  0  0  0  0  0  0999 V2000     
   21.3649   19.2437   19.9317 C   0  0  0  0  0  0  0  0  0  0  0  0
   21.6472   19.1850   18.8726 H   0  0  0  0  0  0  0  0  0  0  0  0
   21.1796   20.2995   20.1653 H   0  0  0  0  0  0  0  0  0  0  0  0
   22.2228   18.9047   20.5267 H   0  0  0  0  0  0  0  0  0  0  0  0
   20.1177   18.3736   20.2077 C   0  0  0  0  0  0  0  0  0  0  0  0
   20.3122   17.3524   19.8511 H   0  0  0  0  0  0  0  0  0  0  0  0
   19.2683   18.7476   19.6191 H   0  0  0  0  0  0  0  0  0  0  0  0
   19.7321   18.3124   21.7052 C   0  0  0  0  0  0  0  0  0  0  0  0
   18.9097   17.5931   21.8215 H   0  0  0  0  0  0  0  0  0  0  0  0
   20.5789   17.9075   22.2696 H   0  0  0  0  0  0  0  0  0  0  0  0
   19.2899   19.6842   22.2781 C   0  0  0  0  0  0  0  0  0  0  0  0
   18.5169   20.0960   21.6146 H   0  0  0  0  0  0  0  0  0  0  0  0
   20.1220   20.4003   22.2566 H   0  0  0  0  0  0  0  0  0  0  0  0
   18.7018   19.6147   23.7126 C   0  0  0  0  0  0  0  0  0  0  0  0
   18.0355   20.4787   23.8373 H   0  0  0  0  0  0  0  0  0  0  0  0
   18.0649   18.7270   23.8221 H   0  0  0  0  0  0  0  0  0  0  0  0
   19.7537   19.6657   24.8457 C   0  0  1  0  0  0  0  0  0  0  0  0
   20.3853   20.5449   24.6855 H   0  0  0  0  0  0  0  0  0  0  0  0
   19.0576   19.8184   26.2080 C   0  0  0  0  0  0  0  0  0  0  0  0
   18.4433   20.7271   26.2334 H   0  0  0  0  0  0  0  0  0  0  0  0
   19.7962   19.8949   27.0155 H   0  0  0  0  0  0  0  0  0  0  0  0
   18.4073   18.9603   26.4197 H   0  0  0  0  0  0  0  0  0  0  0  0
   20.6703   18.4754   24.8650 N   0  3  0  0  0  0  0  0  0  0  0  0
   20.1482   17.6046   24.9931 H   0  0  0  0  0  0  0  0  0  0  0  0
   21.1946   18.3995   23.9900 H   0  0  0  0  0  0  0  0  0  0  0  0
   21.3518   18.5409   25.6263 H   0  0  0  0  0  0  0  0  0  0  0  0
  1  2  1  0  0  0  0
  1  3  1  0  0  0  0
  1  4  1  0  0  0  0
  1  5  1  0  0  0  0
  5  6  1  0  0  0  0
  5  7  1  0  0  0  0
  5  8  1  0  0  0  0
  8  9  1  0  0  0  0
  8 10  1  0  0  0  0
  8 11  1  0  0  0  0
 11 12  1  0  0  0  0
 11 13  1  0  0  0  0
 11 14  1  0  0  0  0
 14 15  1  0  0  0  0
 14 16  1  0  0  0  0
 14 17  1  0  0  0  0
 17 18  1  0  0  0  0
 17 19  1  0  0  0  0
 19 20  1  0  0  0  0
 19 21  1  0  0  0  0
 19 22  1  0  0  0  0
 17 23  1  0  0  0  0
 23 24  1  0  0  0  0
 23 25  1  0  0  0  0
 23 26  1  0  0  0  0
M  END
> <VM2 Rank>
33

> <Conf_Id>
973

> <Probability>
0.12

> <Sum Probability>
98.55

> <Delta G>
2.964

> <G>
26.674

> <E>
-5.424

> <-TS>
32.097

> <U+W>
-26.885

> <U>
27.054

> <W>
-53.940

> <W(PB)>
-56.225

> <W(SA)>
2.286

> <Valence>
5.139

> <Coulomb>
20.885

> <VdW>
1.031

> <VdW6>
-8.326

> <VdW12>
9.356

> <Bond>
0.283

> <Angle>
1.709

> <Pdih>
3.147

> <Idih>
0.000

> <Tether>
0.000

$$$$
VeraChem MOL file


 26 25  0  0  0  0  0  0  0  0999 V2000     
   21.1533   18.0707   19.5807 C   0  0  0  0  0  0  0  0  0  0  0  0
   22.1280   17.9827   20.0780 H   0  0  0  0  0  0  0  0  0  0  0  0
   20.6526   17.0951   19.6341 H   0  0  0  0  0  0  0  0  0  0  0  0
   21.3348   18.2985   18.5223 H   0  0  0  0  0  0  0  0  0  0  0  0
   20.2931   19.1725   20.2352 C   0  0  0  0  0  0  0  0  0  0  0  0
   19.3411   19.2606   19.6930 H   0  0  0  0  0  0  0  0  0  0  0  0
   20.8043   20.1406   20.1377 H   0  0  0  0  0  0  0  0  0  0  0  0
   20.0201   18.8745   21.7262 C   0  0  0  0  0  0  0  0  0  0  0  0
   19.5013   17.9100   21.8154 H   0  0  0  0  0  0  0  0  0  0  0  0
   20.9825   18.7819   22.2440 H   0  0  0  0  0  0  0  0  0  0  0  0
   19.1719   19.9875   22.3866 C   0  0  0  0  0  0  0  0  0  0  0  0
   18.2983   20.1889   21.7512 H   0  0  0  0  0  0  0  0  0  0  0  0
   19.7502   20.9215   22.4134 H   0  0  0  0  0  0  0  0  0  0  0  0
   18.6574   19.6572   23.8127 C   0  0  0  0  0  0  0  0  0  0  0  0
   17.9875   20.4750   24.1102 H   0  0  0  0  0  0  0  0  0  0  0  0
   18.0341   18.7535   23.7908 H   0  0  0  0  0  0  0  0  0  0  0  0
   19.7630   19.5100   24.8851 C   0  0  1  0  0  0  0  0  0  0  0  0
   20.5273   20.2709   24.6998 H   0  0  0  0  0  0  0  0  0  0  0  0
   19.1813   19.7444   26.2892 C   0  0  0  0  0  0  0  0  0  0  0  0
   18.3951   19.0147   26.5200 H   0  0  0  0  0  0  0  0  0  0  0  0
   18.7496   20.7498   26.3708 H   0  0  0  0  0  0  0  0  0  0  0  0
   19.9635   19.6577   27.0535 H   0  0  0  0  0  0  0  0  0  0  0  0
   20.4480   18.1713   24.8383 N   0  3  0  0  0  0  0  0  0  0  0  0
   19.7928   17.4115   25.0402 H   0  0  0  0  0  0  0  0  0  0  0  0
   20.8546   17.9904   23.9179 H   0  0  0  0  0  0  0  0  0  0  0  0
   21.2038   18.1140   25.5268 H   0  0  0  0  0  0  0  0  0  0  0  0
  1  2  1  0  0  0  0
  1  3  1  0  0  0  0
  1  4  1  0  0  0  0
  1  5  1  0  0  0  0
  5  6  1  0  0  0  0
  5  7  1  0  0  0  0
  5  8  1  0  0  0  0
  8  9  1  0  0  0  0
  8 10  1  0  0  0  0
  8 11  1  0  0  0  0
 11 12  1  0  0  0  0
 11 13  1  0  0  0  0
 11 14  1  0  0  0  0
 14 15  1  0  0  0  0
 14 16  1  0  0  0  0
 14 17  1  0  0  0  0
 17 18  1  0  0  0  0
 17 19  1  0  0  0  0
 19 20  1  0  0  0  0
 19 21  1  0  0  0  0
 19 22  1  0  0  0  0
 17 23  1  0  0  0  0
 23 24  1  0  0  0  0
 23 25  1  0  0  0  0
 23 26  1  0  0  0  0
M  END
> <VM2 Rank>
34

> <Conf_Id>
809

> <Probability>
0.11

> <Sum Probability>
98.66

> <Delta G>
3.004

> <G>
26.714

> <E>
-5.842

> <-TS>
32.556

> <U+W>
-27.304

> <U>
26.574

> <W>
-53.878

> <W(PB)>
-56.194

> <W(SA)>
2.316

> <Valence>
4.532

> <Coulomb>
21.136

> <VdW>
0.906

> <VdW6>
-7.877

> <VdW12>
8.783

> <Bond>
0.227

> <Angle>
1.591

> <Pdih>
2.714

> <Idih>
0.000

> <Tether>
0.000

$$$$
VeraChem MOL file


 26 25  0  0  0  0  0  0  0  0999 V2000     
   19.8667   19.8047   19.2355 C   0  0  0  0  0  0  0  0  0  0  0  0
   20.3351   19.6395   18.2565 H   0  0  0  0  0  0  0  0  0  0  0  0
   18.7841   19.6645   19.1190 H   0  0  0  0  0  0  0  0  0  0  0  0
   20.0474   20.8485   19.5235 H   0  0  0  0  0  0  0  0  0  0  0  0
   20.4423   18.8314   20.2860 C   0  0  0  0  0  0  0  0  0  0  0  0
   21.5301   18.9721   20.3561 H   0  0  0  0  0  0  0  0  0  0  0  0
   20.2772   17.7971   19.9530 H   0  0  0  0  0  0  0  0  0  0  0  0
   19.7985   19.0426   21.6741 C   0  0  0  0  0  0  0  0  0  0  0  0
   19.9655   20.0809   21.9896 H   0  0  0  0  0  0  0  0  0  0  0  0
   18.7120   18.8970   21.5987 H   0  0  0  0  0  0  0  0  0  0  0  0
   20.3798   18.0735   22.7302 C   0  0  0  0  0  0  0  0  0  0  0  0
   21.4541   18.2688   22.8535 H   0  0  0  0  0  0  0  0  0  0  0  0
   20.2960   17.0438   22.3559 H   0  0  0  0  0  0  0  0  0  0  0  0
   19.6829   18.1489   24.1127 C   0  0  0  0  0  0  0  0  0  0  0  0
   18.6251   17.8695   24.0179 H   0  0  0  0  0  0  0  0  0  0  0  0
   20.1358   17.3775   24.7496 H   0  0  0  0  0  0  0  0  0  0  0  0
   19.8189   19.5253   24.8084 C   0  0  1  0  0  0  0  0  0  0  0  0
   20.6610   20.0561   24.3538 H   0  0  0  0  0  0  0  0  0  0  0  0
   18.5472   20.3767   24.6384 C   0  0  0  0  0  0  0  0  0  0  0  0
   18.2975   20.5221   23.5817 H   0  0  0  0  0  0  0  0  0  0  0  0
   18.6845   21.3690   25.0853 H   0  0  0  0  0  0  0  0  0  0  0  0
   17.6863   19.9021   25.1256 H   0  0  0  0  0  0  0  0  0  0  0  0
   20.1517   19.3850   26.2687 N   0  3  0  0  0  0  0  0  0  0  0  0
   21.0214   18.8626   26.4085 H   0  0  0  0  0  0  0  0  0  0  0  0
   20.2712   20.2990   26.7146 H   0  0  0  0  0  0  0  0  0  0  0  0
   19.4116   18.8925   26.7759 H   0  0  0  0  0  0  0  0  0  0  0  0
  1  2  1  0  0  0  0
  1  3  1  0  0  0  0
  1  4  1  0  0  0  0
  1  5  1  0  0  0  0
  5  6  1  0  0  0  0
  5  7  1  0  0  0  0
  5  8  1  0  0  0  0
  8  9  1  0  0  0  0
  8 10  1  0  0  0  0
  8 11  1  0  0  0  0
 11 12  1  0  0  0  0
 11 13  1  0  0  0  0
 11 14  1  0  0  0  0
 14 15  1  0  0  0  0
 14 16  1  0  0  0  0
 14 17  1  0  0  0  0
 17 18  1  0  0  0  0
 17 19  1  0  0  0  0
 19 20  1  0  0  0  0
 19 21  1  0  0  0  0
 19 22  1  0  0  0  0
 17 23  1  0  0  0  0
 23 24  1  0  0  0  0
 23 25  1  0  0  0  0
 23 26  1  0  0  0  0
M  END
> <VM2 Rank>
35

> <Conf_Id>
188

> <Probability>
0.08

> <Sum Probability>
98.74

> <Delta G>
3.209

> <G>
26.919

> <E>
-5.787

> <-TS>
32.706

> <U+W>
-27.249

> <U>
26.735

> <W>
-53.984

> <W(PB)>
-56.284

> <W(SA)>
2.300

> <Valence>
5.862

> <Coulomb>
19.879

> <VdW>
0.994

> <VdW6>
-7.879

> <VdW12>
8.873

> <Bond>
0.209

> <Angle>
1.378

> <Pdih>
4.275

> <Idih>
0.000

> <Tether>
0.000

$$$$
VeraChem MOL file


 26 25  0  0  0  0  0  0  0  0999 V2000     
   20.7416   19.7889   19.6931 C   0  0  0  0  0  0  0  0  0  0  0  0
   21.4075   20.6572   19.6053 H   0  0  0  0  0  0  0  0  0  0  0  0
   21.2155   18.9475   19.1710 H   0  0  0  0  0  0  0  0  0  0  0  0
   19.8042   20.0291   19.1746 H   0  0  0  0  0  0  0  0  0  0  0  0
   20.4833   19.4483   21.1762 C   0  0  0  0  0  0  0  0  0  0  0  0
   20.0470   20.3284   21.6659 H   0  0  0  0  0  0  0  0  0  0  0  0
   21.4402   19.2372   21.6733 H   0  0  0  0  0  0  0  0  0  0  0  0
   19.5333   18.2378   21.3253 C   0  0  0  0  0  0  0  0  0  0  0  0
   18.5406   18.5044   20.9370 H   0  0  0  0  0  0  0  0  0  0  0  0
   19.8982   17.4193   20.6895 H   0  0  0  0  0  0  0  0  0  0  0  0
   19.3946   17.6972   22.7722 C   0  0  0  0  0  0  0  0  0  0  0  0
   20.3622   17.3174   23.1241 H   0  0  0  0  0  0  0  0  0  0  0  0
   18.7344   16.8198   22.7317 H   0  0  0  0  0  0  0  0  0  0  0  0
   18.7903   18.7010   23.7917 C   0  0  0  0  0  0  0  0  0  0  0  0
   17.9972   19.2793   23.2993 H   0  0  0  0  0  0  0  0  0  0  0  0
   18.2961   18.1349   24.5924 H   0  0  0  0  0  0  0  0  0  0  0  0
   19.8153   19.6613   24.4393 C   0  0  1  0  0  0  0  0  0  0  0  0
   20.3655   20.1784   23.6502 H   0  0  0  0  0  0  0  0  0  0  0  0
   19.0913   20.7192   25.2871 C   0  0  0  0  0  0  0  0  0  0  0  0
   18.3910   21.2985   24.6725 H   0  0  0  0  0  0  0  0  0  0  0  0
   19.8091   21.4232   25.7259 H   0  0  0  0  0  0  0  0  0  0  0  0
   18.5252   20.2544   26.1041 H   0  0  0  0  0  0  0  0  0  0  0  0
   20.8382   18.9342   25.2691 N   0  3  0  0  0  0  0  0  0  0  0  0
   21.3606   18.2549   24.7099 H   0  0  0  0  0  0  0  0  0  0  0  0
   21.5179   19.5819   25.6777 H   0  0  0  0  0  0  0  0  0  0  0  0
   20.3991   18.4252   26.0407 H   0  0  0  0  0  0  0  0  0  0  0  0
  1  2  1  0  0  0  0
  1  3  1  0  0  0  0
  1  4  1  0  0  0  0
  1  5  1  0  0  0  0
  5  6  1  0  0  0  0
  5  7  1  0  0  0  0
  5  8  1  0  0  0  0
  8  9  1  0  0  0  0
  8 10  1  0  0  0  0
  8 11  1  0  0  0  0
 11 12  1  0  0  0  0
 11 13  1  0  0  0  0
 11 14  1  0  0  0  0
 14 15  1  0  0  0  0
 14 16  1  0  0  0  0
 14 17  1  0  0  0  0
 17 18  1  0  0  0  0
 17 19  1  0  0  0  0
 19 20  1  0  0  0  0
 19 21  1  0  0  0  0
 19 22  1  0  0  0  0
 17 23  1  0  0  0  0
 23 24  1  0  0  0  0
 23 25  1  0  0  0  0
 23 26  1  0  0  0  0
M  END
> <VM2 Rank>
36

> <Conf_Id>
1131

> <Probability>
0.07

> <Sum Probability>
98.81

> <Delta G>
3.252

> <G>
26.962

> <E>
-5.911

> <-TS>
32.873

> <U+W>
-27.373

> <U>
26.753

> <W>
-54.126

> <W(PB)>
-56.390

> <W(SA)>
2.264

> <Valence>
5.252

> <Coulomb>
20.764

> <VdW>
0.737

> <VdW6>
-8.685

> <VdW12>
9.422

> <Bond>
0.256

> <Angle>
1.803

> <Pdih>
3.193

> <Idih>
0.000

> <Tether>
0.000

$$$$
VeraChem MOL file


 26 25  0  0  0  0  0  0  0  0999 V2000     
   20.3163   17.7940   19.6628 C   0  0  0  0  0  0  0  0  0  0  0  0
   21.3920   17.6058   19.7752 H   0  0  0  0  0  0  0  0  0  0  0  0
   19.7736   16.9280   20.0638 H   0  0  0  0  0  0  0  0  0  0  0  0
   20.0966   17.8614   18.5894 H   0  0  0  0  0  0  0  0  0  0  0  0
   19.9017   19.0929   20.3861 C   0  0  0  0  0  0  0  0  0  0  0  0
   18.8287   19.2714   20.2290 H   0  0  0  0  0  0  0  0  0  0  0  0
   20.4337   19.9442   19.9385 H   0  0  0  0  0  0  0  0  0  0  0  0
   20.2031   19.0254   21.8996 C   0  0  0  0  0  0  0  0  0  0  0  0
   19.6715   18.1650   22.3234 H   0  0  0  0  0  0  0  0  0  0  0  0
   21.2782   18.8554   22.0498 H   0  0  0  0  0  0  0  0  0  0  0  0
   19.7735   20.3212   22.6278 C   0  0  0  0  0  0  0  0  0  0  0  0
   18.6837   20.4390   22.5608 H   0  0  0  0  0  0  0  0  0  0  0  0
   20.1977   21.1815   22.0918 H   0  0  0  0  0  0  0  0  0  0  0  0
   20.2304   20.4160   24.1110 C   0  0  0  0  0  0  0  0  0  0  0  0
   21.3275   20.4228   24.1527 H   0  0  0  0  0  0  0  0  0  0  0  0
   19.9193   21.3971   24.4935 H   0  0  0  0  0  0  0  0  0  0  0  0
   19.6967   19.3420   25.0933 C   0  0  1  0  0  0  0  0  0  0  0  0
   19.9344   19.6924   26.1025 H   0  0  0  0  0  0  0  0  0  0  0  0
   18.1688   19.1787   25.0133 C   0  0  0  0  0  0  0  0  0  0  0  0
   17.8101   18.5226   25.8157 H   0  0  0  0  0  0  0  0  0  0  0  0
   17.8576   18.7407   24.0575 H   0  0  0  0  0  0  0  0  0  0  0  0
   17.6681   20.1482   25.1272 H   0  0  0  0  0  0  0  0  0  0  0  0
   20.3974   18.0177   24.9601 N   0  3  0  0  0  0  0  0  0  0  0  0
   21.4088   18.1149   25.0874 H   0  0  0  0  0  0  0  0  0  0  0  0
   20.0652   17.3476   25.6596 H   0  0  0  0  0  0  0  0  0  0  0  0
   20.2410   17.6048   24.0385 H   0  0  0  0  0  0  0  0  0  0  0  0
  1  2  1  0  0  0  0
  1  3  1  0  0  0  0
  1  4  1  0  0  0  0
  1  5  1  0  0  0  0
  5  6  1  0  0  0  0
  5  7  1  0  0  0  0
  5  8  1  0  0  0  0
  8  9  1  0  0  0  0
  8 10  1  0  0  0  0
  8 11  1  0  0  0  0
 11 12  1  0  0  0  0
 11 13  1  0  0  0  0
 11 14  1  0  0  0  0
 14 15  1  0  0  0  0
 14 16  1  0  0  0  0
 14 17  1  0  0  0  0
 17 18  1  0  0  0  0
 17 19  1  0  0  0  0
 19 20  1  0  0  0  0
 19 21  1  0  0  0  0
 19 22  1  0  0  0  0
 17 23  1  0  0  0  0
 23 24  1  0  0  0  0
 23 25  1  0  0  0  0
 23 26  1  0  0  0  0
M  END
> <VM2 Rank>
37

> <Conf_Id>
846

> <Probability>
0.07

> <Sum Probability>
98.88

> <Delta G>
3.304

> <G>
27.013

> <E>
-6.121

> <-TS>
33.134

> <U+W>
-27.583

> <U>
26.681

> <W>
-54.264

> <W(PB)>
-56.533

> <W(SA)>
2.269

> <Valence>
4.633

> <Coulomb>
21.285

> <VdW>
0.764

> <VdW6>
-8.907

> <VdW12>
9.671

> <Bond>
0.277

> <Angle>
2.161

> <Pdih>
2.195

> <Idih>
0.000

> <Tether>
0.000

$$$$
VeraChem MOL file


 26 25  0  0  0  0  0  0  0  0999 V2000     
   19.3700   18.9547   19.1197 C   0  0  0  0  0  0  0  0  0  0  0  0
   19.6743   19.4063   18.1665 H   0  0  0  0  0  0  0  0  0  0  0  0
   19.3611   17.8648   18.9886 H   0  0  0  0  0  0  0  0  0  0  0  0
   18.3444   19.2816   19.3352 H   0  0  0  0  0  0  0  0  0  0  0  0
   20.3340   19.3695   20.2515 C   0  0  0  0  0  0  0  0  0  0  0  0
   20.3465   20.4652   20.3360 H   0  0  0  0  0  0  0  0  0  0  0  0
   21.3560   19.0599   19.9915 H   0  0  0  0  0  0  0  0  0  0  0  0
   19.9283   18.7468   21.6056 C   0  0  0  0  0  0  0  0  0  0  0  0
   18.9028   19.0493   21.8492 H   0  0  0  0  0  0  0  0  0  0  0  0
   19.9171   17.6519   21.5131 H   0  0  0  0  0  0  0  0  0  0  0  0
   20.8997   19.1560   22.7401 C   0  0  0  0  0  0  0  0  0  0  0  0
   20.9765   20.2502   22.8052 H   0  0  0  0  0  0  0  0  0  0  0  0
   21.9041   18.7978   22.4748 H   0  0  0  0  0  0  0  0  0  0  0  0
   20.5169   18.5654   24.1232 C   0  0  0  0  0  0  0  0  0  0  0  0
   19.9660   17.6240   23.9967 H   0  0  0  0  0  0  0  0  0  0  0  0
   21.4472   18.2992   24.6423 H   0  0  0  0  0  0  0  0  0  0  0  0
   19.7288   19.5263   25.0460 C   0  0  1  0  0  0  0  0  0  0  0  0
   20.3296   20.4299   25.1884 H   0  0  0  0  0  0  0  0  0  0  0  0
   18.3708   19.9425   24.4560 C   0  0  0  0  0  0  0  0  0  0  0  0
   17.7609   19.0660   24.2040 H   0  0  0  0  0  0  0  0  0  0  0  0
   18.5038   20.5476   23.5518 H   0  0  0  0  0  0  0  0  0  0  0  0
   17.8086   20.5540   25.1724 H   0  0  0  0  0  0  0  0  0  0  0  0
   19.5396   18.9268   26.4119 N   0  3  0  0  0  0  0  0  0  0  0  0
   20.4353   18.6861   26.8460 H   0  0  0  0  0  0  0  0  0  0  0  0
   19.0612   19.5762   27.0426 H   0  0  0  0  0  0  0  0  0  0  0  0
   18.9782   18.0720   26.3710 H   0  0  0  0  0  0  0  0  0  0  0  0
  1  2  1  0  0  0  0
  1  3  1  0  0  0  0
  1  4  1  0  0  0  0
  1  5  1  0  0  0  0
  5  6  1  0  0  0  0
  5  7  1  0  0  0  0
  5  8  1  0  0  0  0
  8  9  1  0  0  0  0
  8 10  1  0  0  0  0
  8 11  1  0  0  0  0
 11 12  1  0  0  0  0
 11 13  1  0  0  0  0
 11 14  1  0  0  0  0
 14 15  1  0  0  0  0
 14 16  1  0  0  0  0
 14 17  1  0  0  0  0
 17 18  1  0  0  0  0
 17 19  1  0  0  0  0
 19 20  1  0  0  0  0
 19 21  1  0  0  0  0
 19 22  1  0  0  0  0
 17 23  1  0  0  0  0
 23 24  1  0  0  0  0
 23 25  1  0  0  0  0
 23 26  1  0  0  0  0
M  END
> <VM2 Rank>
38

> <Conf_Id>
172

> <Probability>
0.06

> <Sum Probability>
98.94

> <Delta G>
3.325

> <G>
27.035

> <E>
-5.808

> <-TS>
32.843

> <U+W>
-27.270

> <U>
26.589

> <W>
-53.859

> <W(PB)>
-56.174

> <W(SA)>
2.315

> <Valence>
5.830

> <Coulomb>
19.752

> <VdW>
1.008

> <VdW6>
-7.925

> <VdW12>
8.932

> <Bond>
0.235

> <Angle>
1.652

> <Pdih>
3.943

> <Idih>
0.000

> <Tether>
0.000

$$$$
VeraChem MOL file


 26 25  0  0  0  0  0  0  0  0999 V2000     
   19.5279   18.4523   19.2493 C   0  0  0  0  0  0  0  0  0  0  0  0
   18.5631   17.9972   19.5088 H   0  0  0  0  0  0  0  0  0  0  0  0
   19.3348   19.4503   18.8347 H   0  0  0  0  0  0  0  0  0  0  0  0
   19.9866   17.8426   18.4601 H   0  0  0  0  0  0  0  0  0  0  0  0
   20.4528   18.5331   20.4823 C   0  0  0  0  0  0  0  0  0  0  0  0
   21.4209   18.9598   20.1842 H   0  0  0  0  0  0  0  0  0  0  0  0
   20.6543   17.5185   20.8536 H   0  0  0  0  0  0  0  0  0  0  0  0
   19.8306   19.3869   21.6093 C   0  0  0  0  0  0  0  0  0  0  0  0
   19.6314   20.3988   21.2303 H   0  0  0  0  0  0  0  0  0  0  0  0
   18.8598   18.9609   21.8885 H   0  0  0  0  0  0  0  0  0  0  0  0
   20.7612   19.4740   22.8439 C   0  0  0  0  0  0  0  0  0  0  0  0
   21.7095   19.9267   22.5226 H   0  0  0  0  0  0  0  0  0  0  0  0
   21.0145   18.4671   23.1999 H   0  0  0  0  0  0  0  0  0  0  0  0
   20.1790   20.3341   24.0005 C   0  0  0  0  0  0  0  0  0  0  0  0
   21.0076   20.8708   24.4810 H   0  0  0  0  0  0  0  0  0  0  0  0
   19.5268   21.1174   23.5921 H   0  0  0  0  0  0  0  0  0  0  0  0
   19.4222   19.5618   25.1097 C   0  0  1  0  0  0  0  0  0  0  0  0
   19.0701   20.3035   25.8334 H   0  0  0  0  0  0  0  0  0  0  0  0
   18.1889   18.8109   24.5824 C   0  0  0  0  0  0  0  0  0  0  0  0
   18.4751   17.9669   23.9437 H   0  0  0  0  0  0  0  0  0  0  0  0
   17.5400   19.4817   24.0060 H   0  0  0  0  0  0  0  0  0  0  0  0
   17.5981   18.4125   25.4162 H   0  0  0  0  0  0  0  0  0  0  0  0
   20.3254   18.6349   25.8767 N   0  3  0  0  0  0  0  0  0  0  0  0
   21.1224   19.1354   26.2801 H   0  0  0  0  0  0  0  0  0  0  0  0
   19.8276   18.1814   26.6480 H   0  0  0  0  0  0  0  0  0  0  0  0
   20.6982   17.8959   25.2758 H   0  0  0  0  0  0  0  0  0  0  0  0
  1  2  1  0  0  0  0
  1  3  1  0  0  0  0
  1  4  1  0  0  0  0
  1  5  1  0  0  0  0
  5  6  1  0  0  0  0
  5  7  1  0  0  0  0
  5  8  1  0  0  0  0
  8  9  1  0  0  0  0
  8 10  1  0  0  0  0
  8 11  1  0  0  0  0
 11 12  1  0  0  0  0
 11 13  1  0  0  0  0
 11 14  1  0  0  0  0
 14 15  1  0  0  0  0
 14 16  1  0  0  0  0
 14 17  1  0  0  0  0
 17 18  1  0  0  0  0
 17 19  1  0  0  0  0
 19 20  1  0  0  0  0
 19 21  1  0  0  0  0
 19 22  1  0  0  0  0
 17 23  1  0  0  0  0
 23 24  1  0  0  0  0
 23 25  1  0  0  0  0
 23 26  1  0  0  0  0
M  END
> <VM2 Rank>
39

> <Conf_Id>
808

> <Probability>
0.06

> <Sum Probability>
99.01

> <Delta G>
3.330

> <G>
27.040

> <E>
-5.868

> <-TS>
32.907

> <U+W>
-27.330

> <U>
26.848

> <W>
-54.178

> <W(PB)>
-56.437

> <W(SA)>
2.259

> <Valence>
5.824

> <Coulomb>
20.057

> <VdW>
0.968

> <VdW6>
-8.367

> <VdW12>
9.335

> <Bond>
0.267

> <Angle>
1.799

> <Pdih>
3.758

> <Idih>
0.000

> <Tether>
0.000

$$$$
VeraChem MOL file


 26 25  0  0  0  0  0  0  0  0999 V2000     
   18.9945   18.4489   20.0746 C   0  0  0  0  0  0  0  0  0  0  0  0
   18.3399   18.4877   20.9520 H   0  0  0  0  0  0  0  0  0  0  0  0
   18.7427   19.2989   19.4271 H   0  0  0  0  0  0  0  0  0  0  0  0
   18.7565   17.5297   19.5239 H   0  0  0  0  0  0  0  0  0  0  0  0
   20.4917   18.4743   20.4614 C   0  0  0  0  0  0  0  0  0  0  0  0
   21.0805   18.3974   19.5366 H   0  0  0  0  0  0  0  0  0  0  0  0
   20.7476   17.5869   21.0569 H   0  0  0  0  0  0  0  0  0  0  0  0
   20.9149   19.7654   21.2085 C   0  0  0  0  0  0  0  0  0  0  0  0
   21.9423   20.0125   20.9071 H   0  0  0  0  0  0  0  0  0  0  0  0
   20.2990   20.6140   20.8803 H   0  0  0  0  0  0  0  0  0  0  0  0
   20.8971   19.6584   22.7553 C   0  0  0  0  0  0  0  0  0  0  0  0
   21.2855   20.5995   23.1690 H   0  0  0  0  0  0  0  0  0  0  0  0
   21.5977   18.8724   23.0676 H   0  0  0  0  0  0  0  0  0  0  0  0
   19.4972   19.3849   23.3583 C   0  0  0  0  0  0  0  0  0  0  0  0
   18.7773   20.0904   22.9227 H   0  0  0  0  0  0  0  0  0  0  0  0
   19.1643   18.3759   23.0850 H   0  0  0  0  0  0  0  0  0  0  0  0
   19.4684   19.5281   24.8953 C   0  0  1  0  0  0  0  0  0  0  0  0
   19.8192   20.5323   25.1526 H   0  0  0  0  0  0  0  0  0  0  0  0
   18.0323   19.3696   25.4199 C   0  0  0  0  0  0  0  0  0  0  0  0
   17.6328   18.3742   25.1892 H   0  0  0  0  0  0  0  0  0  0  0  0
   17.3679   20.1173   24.9691 H   0  0  0  0  0  0  0  0  0  0  0  0
   17.9989   19.5078   26.5076 H   0  0  0  0  0  0  0  0  0  0  0  0
   20.3918   18.5582   25.5807 N   0  3  0  0  0  0  0  0  0  0  0  0
   20.3772   18.6821   26.5970 H   0  0  0  0  0  0  0  0  0  0  0  0
   20.1267   17.5892   25.3862 H   0  0  0  0  0  0  0  0  0  0  0  0
   21.3596   18.6815   25.2714 H   0  0  0  0  0  0  0  0  0  0  0  0
  1  2  1  0  0  0  0
  1  3  1  0  0  0  0
  1  4  1  0  0  0  0
  1  5  1  0  0  0  0
  5  6  1  0  0  0  0
  5  7  1  0  0  0  0
  5  8  1  0  0  0  0
  8  9  1  0  0  0  0
  8 10  1  0  0  0  0
  8 11  1  0  0  0  0
 11 12  1  0  0  0  0
 11 13  1  0  0  0  0
 11 14  1  0  0  0  0
 14 15  1  0  0  0  0
 14 16  1  0  0  0  0
 14 17  1  0  0  0  0
 17 18  1  0  0  0  0
 17 19  1  0  0  0  0
 19 20  1  0  0  0  0
 19 21  1  0  0  0  0
 19 22  1  0  0  0  0
 17 23  1  0  0  0  0
 23 24  1  0  0  0  0
 23 25  1  0  0  0  0
 23 26  1  0  0  0  0
M  END
> <VM2 Rank>
40

> <Conf_Id>
288

> <Probability>
0.06

> <Sum Probability>
99.07

> <Delta G>
3.347

> <G>
27.057

> <E>
-5.845

> <-TS>
32.901

> <U+W>
-27.306

> <U>
26.796

> <W>
-54.102

> <W(PB)>
-56.406

> <W(SA)>
2.304

> <Valence>
5.707

> <Coulomb>
20.107

> <VdW>
0.982

> <VdW6>
-8.397

> <VdW12>
9.379

> <Bond>
0.254

> <Angle>
1.644

> <Pdih>
3.808

> <Idih>
0.000

> <Tether>
0.000

$$$$
VeraChem MOL file


 26 25  0  0  0  0  0  0  0  0999 V2000     
   19.4957   20.0154   20.1474 C   0  0  0  0  0  0  0  0  0  0  0  0
   19.6921   20.7139   20.9701 H   0  0  0  0  0  0  0  0  0  0  0  0
   19.5609   20.5851   19.2114 H   0  0  0  0  0  0  0  0  0  0  0  0
   18.4679   19.6420   20.2422 H   0  0  0  0  0  0  0  0  0  0  0  0
   20.5127   18.8532   20.1431 C   0  0  0  0  0  0  0  0  0  0  0  0
   21.5322   19.2615   20.1039 H   0  0  0  0  0  0  0  0  0  0  0  0
   20.3816   18.2740   19.2183 H   0  0  0  0  0  0  0  0  0  0  0  0
   20.3858   17.8883   21.3497 C   0  0  0  0  0  0  0  0  0  0  0  0
   19.4030   17.3971   21.3392 H   0  0  0  0  0  0  0  0  0  0  0  0
   21.1201   17.0833   21.2070 H   0  0  0  0  0  0  0  0  0  0  0  0
   20.6473   18.5419   22.7317 C   0  0  0  0  0  0  0  0  0  0  0  0
   21.3341   19.3925   22.6209 H   0  0  0  0  0  0  0  0  0  0  0  0
   21.1677   17.8090   23.3625 H   0  0  0  0  0  0  0  0  0  0  0  0
   19.3495   18.9861   23.4555 C   0  0  0  0  0  0  0  0  0  0  0  0
   18.7626   19.6365   22.7973 H   0  0  0  0  0  0  0  0  0  0  0  0
   18.7224   18.1077   23.6582 H   0  0  0  0  0  0  0  0  0  0  0  0
   19.6255   19.7396   24.7746 C   0  0  1  0  0  0  0  0  0  0  0  0
   20.2709   20.5949   24.5517 H   0  0  0  0  0  0  0  0  0  0  0  0
   18.3123   20.2696   25.3724 C   0  0  0  0  0  0  0  0  0  0  0  0
   17.8053   20.9400   24.6672 H   0  0  0  0  0  0  0  0  0  0  0  0
   18.5051   20.8377   26.2909 H   0  0  0  0  0  0  0  0  0  0  0  0
   17.6268   19.4483   25.6160 H   0  0  0  0  0  0  0  0  0  0  0  0
   20.3591   18.8939   25.7797 N   0  3  0  0  0  0  0  0  0  0  0  0
   19.8159   18.0662   26.0385 H   0  0  0  0  0  0  0  0  0  0  0  0
   21.2577   18.5707   25.4116 H   0  0  0  0  0  0  0  0  0  0  0  0
   20.5507   19.4160   26.6394 H   0  0  0  0  0  0  0  0  0  0  0  0
  1  2  1  0  0  0  0
  1  3  1  0  0  0  0
  1  4  1  0  0  0  0
  1  5  1  0  0  0  0
  5  6  1  0  0  0  0
  5  7  1  0  0  0  0
  5  8  1  0  0  0  0
  8  9  1  0  0  0  0
  8 10  1  0  0  0  0
  8 11  1  0  0  0  0
 11 12  1  0  0  0  0
 11 13  1  0  0  0  0
 11 14  1  0  0  0  0
 14 15  1  0  0  0  0
 14 16  1  0  0  0  0
 14 17  1  0  0  0  0
 17 18  1  0  0  0  0
 17 19  1  0  0  0  0
 19 20  1  0  0  0  0
 19 21  1  0  0  0  0
 19 22  1  0  0  0  0
 17 23  1  0  0  0  0
 23 24  1  0  0  0  0
 23 25  1  0  0  0  0
 23 26  1  0  0  0  0
M  END
> <VM2 Rank>
41

> <Conf_Id>
696

> <Probability>
0.06

> <Sum Probability>
99.13

> <Delta G>
3.389

> <G>
27.099

> <E>
-5.836

> <-TS>
32.935

> <U+W>
-27.297

> <U>
26.787

> <W>
-54.084

> <W(PB)>
-56.348

> <W(SA)>
2.264

> <Valence>
5.742

> <Coulomb>
20.023

> <VdW>
1.022

> <VdW6>
-8.392

> <VdW12>
9.413

> <Bond>
0.261

> <Angle>
1.577

> <Pdih>
3.904

> <Idih>
0.000

> <Tether>
0.000

$$$$
VeraChem MOL file


 26 25  0  0  0  0  0  0  0  0999 V2000     
   19.5740   17.7155   20.5301 C   0  0  0  0  0  0  0  0  0  0  0  0
   18.5345   18.0679   20.5208 H   0  0  0  0  0  0  0  0  0  0  0  0
   19.6656   16.9195   19.7799 H   0  0  0  0  0  0  0  0  0  0  0  0
   19.7840   17.2675   21.5089 H   0  0  0  0  0  0  0  0  0  0  0  0
   20.5557   18.8659   20.2179 C   0  0  0  0  0  0  0  0  0  0  0  0
   20.4276   19.1624   19.1674 H   0  0  0  0  0  0  0  0  0  0  0  0
   21.5875   18.4981   20.3059 H   0  0  0  0  0  0  0  0  0  0  0  0
   20.3735   20.1219   21.1078 C   0  0  0  0  0  0  0  0  0  0  0  0
   21.0904   20.8787   20.7604 H   0  0  0  0  0  0  0  0  0  0  0  0
   19.3794   20.5597   20.9435 H   0  0  0  0  0  0  0  0  0  0  0  0
   20.6166   19.8863   22.6216 C   0  0  0  0  0  0  0  0  0  0  0  0
   21.0756   20.7912   23.0435 H   0  0  0  0  0  0  0  0  0  0  0  0
   21.3508   19.0812   22.7562 H   0  0  0  0  0  0  0  0  0  0  0  0
   19.3169   19.5921   23.4156 C   0  0  0  0  0  0  0  0  0  0  0  0
   18.6141   20.4211   23.2586 H   0  0  0  0  0  0  0  0  0  0  0  0
   18.8227   18.6926   23.0318 H   0  0  0  0  0  0  0  0  0  0  0  0
   19.5635   19.4335   24.9314 C   0  0  1  0  0  0  0  0  0  0  0  0
   20.0739   20.3320   25.2918 H   0  0  0  0  0  0  0  0  0  0  0  0
   18.2272   19.3045   25.6801 C   0  0  0  0  0  0  0  0  0  0  0  0
   17.5945   20.1831   25.5028 H   0  0  0  0  0  0  0  0  0  0  0  0
   18.3939   19.2277   26.7616 H   0  0  0  0  0  0  0  0  0  0  0  0
   17.6743   18.4142   25.3552 H   0  0  0  0  0  0  0  0  0  0  0  0
   20.4604   18.2683   25.2496 N   0  3  0  0  0  0  0  0  0  0  0  0
   20.0480   17.3844   24.9402 H   0  0  0  0  0  0  0  0  0  0  0  0
   21.3710   18.3614   24.7918 H   0  0  0  0  0  0  0  0  0  0  0  0
   20.6307   18.1915   26.2563 H   0  0  0  0  0  0  0  0  0  0  0  0
  1  2  1  0  0  0  0
  1  3  1  0  0  0  0
  1  4  1  0  0  0  0
  1  5  1  0  0  0  0
  5  6  1  0  0  0  0
  5  7  1  0  0  0  0
  5  8  1  0  0  0  0
  8  9  1  0  0  0  0
  8 10  1  0  0  0  0
  8 11  1  0  0  0  0
 11 12  1  0  0  0  0
 11 13  1  0  0  0  0
 11 14  1  0  0  0  0
 14 15  1  0  0  0  0
 14 16  1  0  0  0  0
 14 17  1  0  0  0  0
 17 18  1  0  0  0  0
 17 19  1  0  0  0  0
 19 20  1  0  0  0  0
 19 21  1  0  0  0  0
 19 22  1  0  0  0  0
 17 23  1  0  0  0  0
 23 24  1  0  0  0  0
 23 25  1  0  0  0  0
 23 26  1  0  0  0  0
M  END
> <VM2 Rank>
42

> <Conf_Id>
952

> <Probability>
0.05

> <Sum Probability>
99.18

> <Delta G>
3.469

> <G>
27.178

> <E>
-5.708

> <-TS>
32.886

> <U+W>
-27.170

> <U>
27.046

> <W>
-54.212

> <W(PB)>
-56.478

> <W(SA)>
2.266

> <Valence>
5.685

> <Coulomb>
20.401

> <VdW>
0.960

> <VdW6>
-8.446

> <VdW12>
9.405

> <Bond>
0.263

> <Angle>
1.662

> <Pdih>
3.760

> <Idih>
0.000

> <Tether>
0.000

$$$$
VeraChem MOL file


 26 25  0  0  0  0  0  0  0  0999 V2000     
   21.2360   19.3283   19.8743 C   0  0  0  0  0  0  0  0  0  0  0  0
   20.6582   19.0723   18.9766 H   0  0  0  0  0  0  0  0  0  0  0  0
   21.8621   20.1976   19.6350 H   0  0  0  0  0  0  0  0  0  0  0  0
   21.9020   18.4863   20.1038 H   0  0  0  0  0  0  0  0  0  0  0  0
   20.3045   19.6388   21.0651 C   0  0  0  0  0  0  0  0  0  0  0  0
   19.6743   20.5035   20.8147 H   0  0  0  0  0  0  0  0  0  0  0  0
   20.9173   19.9341   21.9240 H   0  0  0  0  0  0  0  0  0  0  0  0
   19.4090   18.4264   21.4170 C   0  0  0  0  0  0  0  0  0  0  0  0
   18.8473   18.1477   20.5146 H   0  0  0  0  0  0  0  0  0  0  0  0
   20.0288   17.5546   21.6679 H   0  0  0  0  0  0  0  0  0  0  0  0
   18.3885   18.6997   22.5531 C   0  0  0  0  0  0  0  0  0  0  0  0
   17.5150   18.0562   22.3787 H   0  0  0  0  0  0  0  0  0  0  0  0
   18.0061   19.7268   22.4881 H   0  0  0  0  0  0  0  0  0  0  0  0
   18.9060   18.3879   23.9840 C   0  0  0  0  0  0  0  0  0  0  0  0
   18.0734   18.5004   24.6911 H   0  0  0  0  0  0  0  0  0  0  0  0
   19.1917   17.3285   24.0237 H   0  0  0  0  0  0  0  0  0  0  0  0
   20.0971   19.2401   24.4773 C   0  0  1  0  0  0  0  0  0  0  0  0
   20.9200   19.1282   23.7667 H   0  0  0  0  0  0  0  0  0  0  0  0
   19.7321   20.7317   24.5876 C   0  0  0  0  0  0  0  0  0  0  0  0
   19.4567   21.1504   23.6131 H   0  0  0  0  0  0  0  0  0  0  0  0
   20.5846   21.3113   24.9622 H   0  0  0  0  0  0  0  0  0  0  0  0
   18.8900   20.8832   25.2743 H   0  0  0  0  0  0  0  0  0  0  0  0
   20.6148   18.7351   25.7955 N   0  3  0  0  0  0  0  0  0  0  0  0
   21.4278   19.2727   26.1091 H   0  0  0  0  0  0  0  0  0  0  0  0
   19.9033   18.8035   26.5280 H   0  0  0  0  0  0  0  0  0  0  0  0
   20.9028   17.7542   25.7372 H   0  0  0  0  0  0  0  0  0  0  0  0
  1  2  1  0  0  0  0
  1  3  1  0  0  0  0
  1  4  1  0  0  0  0
  1  5  1  0  0  0  0
  5  6  1  0  0  0  0
  5  7  1  0  0  0  0
  5  8  1  0  0  0  0
  8  9  1  0  0  0  0
  8 10  1  0  0  0  0
  8 11  1  0  0  0  0
 11 12  1  0  0  0  0
 11 13  1  0  0  0  0
 11 14  1  0  0  0  0
 14 15  1  0  0  0  0
 14 16  1  0  0  0  0
 14 17  1  0  0  0  0
 17 18  1  0  0  0  0
 17 19  1  0  0  0  0
 19 20  1  0  0  0  0
 19 21  1  0  0  0  0
 19 22  1  0  0  0  0
 17 23  1  0  0  0  0
 23 24  1  0  0  0  0
 23 25  1  0  0  0  0
 23 26  1  0  0  0  0
M  END
> <VM2 Rank>
43

> <Conf_Id>
1246

> <Probability>
0.05

> <Sum Probability>
99.23

> <Delta G>
3.477

> <G>
27.187

> <E>
-5.999

> <-TS>
33.186

> <U+W>
-27.461

> <U>
26.923

> <W>
-54.385

> <W(PB)>
-56.636

> <W(SA)>
2.251

> <Valence>
5.933

> <Coulomb>
20.334

> <VdW>
0.657

> <VdW6>
-9.078

> <VdW12>
9.735

> <Bond>
0.268

> <Angle>
2.253

> <Pdih>
3.411

> <Idih>
0.000

> <Tether>
0.000

$$$$
VeraChem MOL file


 26 25  0  0  0  0  0  0  0  0999 V2000     
   21.2367   19.1531   19.8068 C   0  0  0  0  0  0  0  0  0  0  0  0
   21.3105   18.0945   19.5257 H   0  0  0  0  0  0  0  0  0  0  0  0
   20.6515   19.6717   19.0362 H   0  0  0  0  0  0  0  0  0  0  0  0
   22.2501   19.5751   19.8002 H   0  0  0  0  0  0  0  0  0  0  0  0
   20.5890   19.3134   21.1985 C   0  0  0  0  0  0  0  0  0  0  0  0
   20.5511   20.3795   21.4624 H   0  0  0  0  0  0  0  0  0  0  0  0
   21.2266   18.8150   21.9399 H   0  0  0  0  0  0  0  0  0  0  0  0
   19.1661   18.7102   21.2375 C   0  0  0  0  0  0  0  0  0  0  0  0
   18.5955   19.0912   20.3792 H   0  0  0  0  0  0  0  0  0  0  0  0
   19.2281   17.6216   21.1016 H   0  0  0  0  0  0  0  0  0  0  0  0
   18.3634   19.0267   22.5261 C   0  0  0  0  0  0  0  0  0  0  0  0
   17.3636   18.5877   22.4039 H   0  0  0  0  0  0  0  0  0  0  0  0
   18.1968   20.1078   22.6056 H   0  0  0  0  0  0  0  0  0  0  0  0
   18.9743   18.4573   23.8362 C   0  0  0  0  0  0  0  0  0  0  0  0
   18.1670   18.3042   24.5646 H   0  0  0  0  0  0  0  0  0  0  0  0
   19.3805   17.4585   23.6289 H   0  0  0  0  0  0  0  0  0  0  0  0
   20.0664   19.3331   24.4978 C   0  0  1  0  0  0  0  0  0  0  0  0
   20.8089   19.6051   23.7447 H   0  0  0  0  0  0  0  0  0  0  0  0
   19.4861   20.6291   25.0928 C   0  0  0  0  0  0  0  0  0  0  0  0
   18.7046   20.4119   25.8316 H   0  0  0  0  0  0  0  0  0  0  0  0
   19.0544   21.2704   24.3165 H   0  0  0  0  0  0  0  0  0  0  0  0
   20.2719   21.2097   25.5917 H   0  0  0  0  0  0  0  0  0  0  0  0
   20.8058   18.5651   25.5582 N   0  3  0  0  0  0  0  0  0  0  0  0
   21.2403   17.7192   25.1783 H   0  0  0  0  0  0  0  0  0  0  0  0
   21.5513   19.1282   25.9773 H   0  0  0  0  0  0  0  0  0  0  0  0
   20.1805   18.2758   26.3150 H   0  0  0  0  0  0  0  0  0  0  0  0
  1  2  1  0  0  0  0
  1  3  1  0  0  0  0
  1  4  1  0  0  0  0
  1  5  1  0  0  0  0
  5  6  1  0  0  0  0
  5  7  1  0  0  0  0
  5  8  1  0  0  0  0
  8  9  1  0  0  0  0
  8 10  1  0  0  0  0
  8 11  1  0  0  0  0
 11 12  1  0  0  0  0
 11 13  1  0  0  0  0
 11 14  1  0  0  0  0
 14 15  1  0  0  0  0
 14 16  1  0  0  0  0
 14 17  1  0  0  0  0
 17 18  1  0  0  0  0
 17 19  1  0  0  0  0
 19 20  1  0  0  0  0
 19 21  1  0  0  0  0
 19 22  1  0  0  0  0
 17 23  1  0  0  0  0
 23 24  1  0  0  0  0
 23 25  1  0  0  0  0
 23 26  1  0  0  0  0
M  END
> <VM2 Rank>
44

> <Conf_Id>
110

> <Probability>
0.05

> <Sum Probability>
99.27

> <Delta G>
3.517

> <G>
27.226

> <E>
-5.561

> <-TS>
32.787

> <U+W>
-27.023

> <U>
27.379

> <W>
-54.402

> <W(PB)>
-56.657

> <W(SA)>
2.255

> <Valence>
5.925

> <Coulomb>
20.577

> <VdW>
0.876

> <VdW6>
-8.774

> <VdW12>
9.650

> <Bond>
0.273

> <Angle>
2.153

> <Pdih>
3.500

> <Idih>
0.000

> <Tether>
0.000

$$$$
VeraChem MOL file


 26 25  0  0  0  0  0  0  0  0999 V2000     
   18.9271   18.9924   19.9664 C   0  0  0  0  0  0  0  0  0  0  0  0
   18.5232   19.6687   19.2020 H   0  0  0  0  0  0  0  0  0  0  0  0
   18.8668   17.9700   19.5712 H   0  0  0  0  0  0  0  0  0  0  0  0
   18.2729   19.0533   20.8430 H   0  0  0  0  0  0  0  0  0  0  0  0
   20.3894   19.3678   20.3026 C   0  0  0  0  0  0  0  0  0  0  0  0
   20.4510   20.4172   20.6229 H   0  0  0  0  0  0  0  0  0  0  0  0
   20.9773   19.3002   19.3765 H   0  0  0  0  0  0  0  0  0  0  0  0
   21.0330   18.4402   21.3654 C   0  0  0  0  0  0  0  0  0  0  0  0
   20.5801   17.4402   21.3212 H   0  0  0  0  0  0  0  0  0  0  0  0
   22.0895   18.2975   21.0990 H   0  0  0  0  0  0  0  0  0  0  0  0
   20.9880   18.9816   22.8179 C   0  0  0  0  0  0  0  0  0  0  0  0
   21.5396   19.9305   22.8699 H   0  0  0  0  0  0  0  0  0  0  0  0
   21.5343   18.2747   23.4558 H   0  0  0  0  0  0  0  0  0  0  0  0
   19.5579   19.1884   23.3767 C   0  0  0  0  0  0  0  0  0  0  0  0
   19.0538   19.9611   22.7836 H   0  0  0  0  0  0  0  0  0  0  0  0
   18.9749   18.2650   23.2624 H   0  0  0  0  0  0  0  0  0  0  0  0
   19.5453   19.6320   24.8559 C   0  0  1  0  0  0  0  0  0  0  0  0
   20.1676   20.5271   24.9510 H   0  0  0  0  0  0  0  0  0  0  0  0
   18.1157   19.9898   25.2932 C   0  0  0  0  0  0  0  0  0  0  0  0
   18.1035   20.3391   26.3331 H   0  0  0  0  0  0  0  0  0  0  0  0
   17.4480   19.1225   25.2160 H   0  0  0  0  0  0  0  0  0  0  0  0
   17.7059   20.7931   24.6683 H   0  0  0  0  0  0  0  0  0  0  0  0
   20.1316   18.5958   25.7759 N   0  3  0  0  0  0  0  0  0  0  0  0
   20.1289   18.9149   26.7487 H   0  0  0  0  0  0  0  0  0  0  0  0
   19.6016   17.7211   25.7390 H   0  0  0  0  0  0  0  0  0  0  0  0
   21.1007   18.3798   25.5280 H   0  0  0  0  0  0  0  0  0  0  0  0
  1  2  1  0  0  0  0
  1  3  1  0  0  0  0
  1  4  1  0  0  0  0
  1  5  1  0  0  0  0
  5  6  1  0  0  0  0
  5  7  1  0  0  0  0
  5  8  1  0  0  0  0
  8  9  1  0  0  0  0
  8 10  1  0  0  0  0
  8 11  1  0  0  0  0
 11 12  1  0  0  0  0
 11 13  1  0  0  0  0
 11 14  1  0  0  0  0
 14 15  1  0  0  0  0
 14 16  1  0  0  0  0
 14 17  1  0  0  0  0
 17 18  1  0  0  0  0
 17 19  1  0  0  0  0
 19 20  1  0  0  0  0
 19 21  1  0  0  0  0
 19 22  1  0  0  0  0
 17 23  1  0  0  0  0
 23 24  1  0  0  0  0
 23 25  1  0  0  0  0
 23 26  1  0  0  0  0
M  END
> <VM2 Rank>
45

> <Conf_Id>
1334

> <Probability>
0.05

> <Sum Probability>
99.32

> <Delta G>
3.529

> <G>
27.239

> <E>
-5.653

> <-TS>
32.892

> <U+W>
-27.114

> <U>
26.879

> <W>
-53.994

> <W(PB)>
-56.259

> <W(SA)>
2.265

> <Valence>
5.789

> <Coulomb>
20.012

> <VdW>
1.078

> <VdW6>
-8.363

> <VdW12>
9.442

> <Bond>
0.261

> <Angle>
1.699

> <Pdih>
3.829

> <Idih>
0.000

> <Tether>
0.000

$$$$
VeraChem MOL file


 26 25  0  0  0  0  0  0  0  0999 V2000     
   19.2988   19.8464   20.2867 C   0  0  0  0  0  0  0  0  0  0  0  0
   19.1342   20.1804   19.2541 H   0  0  0  0  0  0  0  0  0  0  0  0
   18.4168   19.2665   20.5827 H   0  0  0  0  0  0  0  0  0  0  0  0
   19.3652   20.7389   20.9222 H   0  0  0  0  0  0  0  0  0  0  0  0
   20.5842   18.9961   20.3778 C   0  0  0  0  0  0  0  0  0  0  0  0
   21.3888   19.5238   19.8469 H   0  0  0  0  0  0  0  0  0  0  0  0
   20.4359   18.0499   19.8390 H   0  0  0  0  0  0  0  0  0  0  0  0
   21.0662   18.7063   21.8223 C   0  0  0  0  0  0  0  0  0  0  0  0
   22.0191   18.1651   21.7413 H   0  0  0  0  0  0  0  0  0  0  0  0
   21.3118   19.6473   22.3297 H   0  0  0  0  0  0  0  0  0  0  0  0
   20.1036   17.8392   22.6806 C   0  0  0  0  0  0  0  0  0  0  0  0
   20.7041   17.2498   23.3863 H   0  0  0  0  0  0  0  0  0  0  0  0
   19.6083   17.0989   22.0376 H   0  0  0  0  0  0  0  0  0  0  0  0
   19.0297   18.6216   23.4871 C   0  0  0  0  0  0  0  0  0  0  0  0
   18.3335   19.1142   22.8008 H   0  0  0  0  0  0  0  0  0  0  0  0
   18.4260   17.9013   24.0548 H   0  0  0  0  0  0  0  0  0  0  0  0
   19.5994   19.6773   24.4618 C   0  0  1  0  0  0  0  0  0  0  0  0
   20.1700   20.4100   23.8842 H   0  0  0  0  0  0  0  0  0  0  0  0
   18.4567   20.4194   25.1730 C   0  0  0  0  0  0  0  0  0  0  0  0
   17.8510   19.7318   25.7764 H   0  0  0  0  0  0  0  0  0  0  0  0
   17.7966   20.9074   24.4450 H   0  0  0  0  0  0  0  0  0  0  0  0
   18.8531   21.1978   25.8366 H   0  0  0  0  0  0  0  0  0  0  0  0
   20.5493   19.0817   25.4645 N   0  3  0  0  0  0  0  0  0  0  0  0
   20.9358   19.7974   26.0863 H   0  0  0  0  0  0  0  0  0  0  0  0
   20.0835   18.3845   26.0512 H   0  0  0  0  0  0  0  0  0  0  0  0
   21.3362   18.6194   25.0011 H   0  0  0  0  0  0  0  0  0  0  0  0
  1  2  1  0  0  0  0
  1  3  1  0  0  0  0
  1  4  1  0  0  0  0
  1  5  1  0  0  0  0
  5  6  1  0  0  0  0
  5  7  1  0  0  0  0
  5  8  1  0  0  0  0
  8  9  1  0  0  0  0
  8 10  1  0  0  0  0
  8 11  1  0  0  0  0
 11 12  1  0  0  0  0
 11 13  1  0  0  0  0
 11 14  1  0  0  0  0
 14 15  1  0  0  0  0
 14 16  1  0  0  0  0
 14 17  1  0  0  0  0
 17 18  1  0  0  0  0
 17 19  1  0  0  0  0
 19 20  1  0  0  0  0
 19 21  1  0  0  0  0
 19 22  1  0  0  0  0
 17 23  1  0  0  0  0
 23 24  1  0  0  0  0
 23 25  1  0  0  0  0
 23 26  1  0  0  0  0
M  END
> <VM2 Rank>
46

> <Conf_Id>
247

> <Probability>
0.04

> <Sum Probability>
99.36

> <Delta G>
3.595

> <G>
27.305

> <E>
-5.212

> <-TS>
32.517

> <U+W>
-26.674

> <U>
27.544

> <W>
-54.217

> <W(PB)>
-56.451

> <W(SA)>
2.234

> <Valence>
6.186

> <Coulomb>
20.490

> <VdW>
0.868

> <VdW6>
-9.300

> <VdW12>
10.168

> <Bond>
0.324

> <Angle>
2.319

> <Pdih>
3.543

> <Idih>
0.000

> <Tether>
0.000

$$$$
VeraChem MOL file


 26 25  0  0  0  0  0  0  0  0999 V2000     
   20.8813   19.5877   19.6821 C   0  0  0  0  0  0  0  0  0  0  0  0
   21.7961   19.9662   20.1563 H   0  0  0  0  0  0  0  0  0  0  0  0
   21.0917   19.4430   18.6145 H   0  0  0  0  0  0  0  0  0  0  0  0
   20.1064   20.3602   19.7642 H   0  0  0  0  0  0  0  0  0  0  0  0
   20.4282   18.2594   20.3293 C   0  0  0  0  0  0  0  0  0  0  0  0
   21.1849   17.4888   20.1261 H   0  0  0  0  0  0  0  0  0  0  0  0
   19.5013   17.9129   19.8511 H   0  0  0  0  0  0  0  0  0  0  0  0
   20.2212   18.3635   21.8595 C   0  0  0  0  0  0  0  0  0  0  0  0
   19.9892   17.3624   22.2484 H   0  0  0  0  0  0  0  0  0  0  0  0
   21.1670   18.6765   22.3183 H   0  0  0  0  0  0  0  0  0  0  0  0
   19.0882   19.3431   22.2557 C   0  0  0  0  0  0  0  0  0  0  0  0
   18.2154   19.1473   21.6175 H   0  0  0  0  0  0  0  0  0  0  0  0
   19.3972   20.3753   22.0427 H   0  0  0  0  0  0  0  0  0  0  0  0
   18.6299   19.2441   23.7347 C   0  0  0  0  0  0  0  0  0  0  0  0
   17.7454   19.8864   23.8412 H   0  0  0  0  0  0  0  0  0  0  0  0
   18.2880   18.2250   23.9588 H   0  0  0  0  0  0  0  0  0  0  0  0
   19.6872   19.6881   24.7734 C   0  0  1  0  0  0  0  0  0  0  0  0
   20.1948   20.5786   24.3901 H   0  0  0  0  0  0  0  0  0  0  0  0
   19.0082   20.0566   26.1030 C   0  0  0  0  0  0  0  0  0  0  0  0
   18.4694   19.1987   26.5246 H   0  0  0  0  0  0  0  0  0  0  0  0
   18.2913   20.8752   25.9624 H   0  0  0  0  0  0  0  0  0  0  0  0
   19.7501   20.3899   26.8392 H   0  0  0  0  0  0  0  0  0  0  0  0
   20.7439   18.6455   25.0163 N   0  3  0  0  0  0  0  0  0  0  0  0
   21.2248   18.3916   24.1506 H   0  0  0  0  0  0  0  0  0  0  0  0
   21.4522   18.9780   25.6768 H   0  0  0  0  0  0  0  0  0  0  0  0
   20.3395   17.7903   25.4067 H   0  0  0  0  0  0  0  0  0  0  0  0
  1  2  1  0  0  0  0
  1  3  1  0  0  0  0
  1  4  1  0  0  0  0
  1  5  1  0  0  0  0
  5  6  1  0  0  0  0
  5  7  1  0  0  0  0
  5  8  1  0  0  0  0
  8  9  1  0  0  0  0
  8 10  1  0  0  0  0
  8 11  1  0  0  0  0
 11 12  1  0  0  0  0
 11 13  1  0  0  0  0
 11 14  1  0  0  0  0
 14 15  1  0  0  0  0
 14 16  1  0  0  0  0
 14 17  1  0  0  0  0
 17 18  1  0  0  0  0
 17 19  1  0  0  0  0
 19 20  1  0  0  0  0
 19 21  1  0  0  0  0
 19 22  1  0  0  0  0
 17 23  1  0  0  0  0
 23 24  1  0  0  0  0
 23 25  1  0  0  0  0
 23 26  1  0  0  0  0
M  END
> <VM2 Rank>
47

> <Conf_Id>
1073

> <Probability>
0.04

> <Sum Probability>
99.40

> <Delta G>
3.605

> <G>
27.315

> <E>
-5.350

> <-TS>
32.664

> <U+W>
-26.811

> <U>
27.043

> <W>
-53.854

> <W(PB)>
-56.139

> <W(SA)>
2.285

> <Valence>
4.968

> <Coulomb>
21.068

> <VdW>
1.006

> <VdW6>
-8.510

> <VdW12>
9.516

> <Bond>
0.263

> <Angle>
1.758

> <Pdih>
2.947

> <Idih>
0.000

> <Tether>
0.000

$$$$
VeraChem MOL file


 26 25  0  0  0  0  0  0  0  0999 V2000     
   20.2806   19.1190   19.3038 C   0  0  0  0  0  0  0  0  0  0  0  0
   19.3310   18.6339   19.0433 H   0  0  0  0  0  0  0  0  0  0  0  0
   20.0829   20.1798   19.5011 H   0  0  0  0  0  0  0  0  0  0  0  0
   20.9373   19.0642   18.4259 H   0  0  0  0  0  0  0  0  0  0  0  0
   20.9428   18.4289   20.5180 C   0  0  0  0  0  0  0  0  0  0  0  0
   21.8733   18.9526   20.7781 H   0  0  0  0  0  0  0  0  0  0  0  0
   21.2347   17.4095   20.2289 H   0  0  0  0  0  0  0  0  0  0  0  0
   20.0224   18.3481   21.7599 C   0  0  0  0  0  0  0  0  0  0  0  0
   19.1039   17.8056   21.4968 H   0  0  0  0  0  0  0  0  0  0  0  0
   20.5268   17.7391   22.5181 H   0  0  0  0  0  0  0  0  0  0  0  0
   19.6536   19.7371   22.3429 C   0  0  0  0  0  0  0  0  0  0  0  0
   19.0631   20.2816   21.5944 H   0  0  0  0  0  0  0  0  0  0  0  0
   20.5592   20.3364   22.5106 H   0  0  0  0  0  0  0  0  0  0  0  0
   18.8168   19.6646   23.6475 C   0  0  0  0  0  0  0  0  0  0  0  0
   18.1634   20.5469   23.6753 H   0  0  0  0  0  0  0  0  0  0  0  0
   18.1469   18.7949   23.6236 H   0  0  0  0  0  0  0  0  0  0  0  0
   19.6582   19.6632   24.9455 C   0  0  1  0  0  0  0  0  0  0  0  0
   20.2978   20.5511   24.9357 H   0  0  0  0  0  0  0  0  0  0  0  0
   18.7388   19.7491   26.1745 C   0  0  0  0  0  0  0  0  0  0  0  0
   18.1169   20.6520   26.1347 H   0  0  0  0  0  0  0  0  0  0  0  0
   19.3284   19.7926   27.0986 H   0  0  0  0  0  0  0  0  0  0  0  0
   18.0736   18.8785   26.2341 H   0  0  0  0  0  0  0  0  0  0  0  0
   20.5747   18.4781   25.0619 N   0  3  0  0  0  0  0  0  0  0  0  0
   21.1307   18.5182   25.9209 H   0  0  0  0  0  0  0  0  0  0  0  0
   20.0488   17.6004   25.0765 H   0  0  0  0  0  0  0  0  0  0  0  0
   21.2274   18.4383   24.2747 H   0  0  0  0  0  0  0  0  0  0  0  0
  1  2  1  0  0  0  0
  1  3  1  0  0  0  0
  1  4  1  0  0  0  0
  1  5  1  0  0  0  0
  5  6  1  0  0  0  0
  5  7  1  0  0  0  0
  5  8  1  0  0  0  0
  8  9  1  0  0  0  0
  8 10  1  0  0  0  0
  8 11  1  0  0  0  0
 11 12  1  0  0  0  0
 11 13  1  0  0  0  0
 11 14  1  0  0  0  0
 14 15  1  0  0  0  0
 14 16  1  0  0  0  0
 14 17  1  0  0  0  0
 17 18  1  0  0  0  0
 17 19  1  0  0  0  0
 19 20  1  0  0  0  0
 19 21  1  0  0  0  0
 19 22  1  0  0  0  0
 17 23  1  0  0  0  0
 23 24  1  0  0  0  0
 23 25  1  0  0  0  0
 23 26  1  0  0  0  0
M  END
> <VM2 Rank>
48

> <Conf_Id>
1200

> <Probability>
0.04

> <Sum Probability>
99.44

> <Delta G>
3.670

> <G>
27.379

> <E>
-5.272

> <-TS>
32.651

> <U+W>
-26.734

> <U>
27.192

> <W>
-53.926

> <W(PB)>
-56.221

> <W(SA)>
2.295

> <Valence>
5.377

> <Coulomb>
20.710

> <VdW>
1.105

> <VdW6>
-8.250

> <VdW12>
9.355

> <Bond>
0.276

> <Angle>
1.583

> <Pdih>
3.519

> <Idih>
0.000

> <Tether>
0.000

$$$$
VeraChem MOL file


 26 25  0  0  0  0  0  0  0  0999 V2000     
   19.3018   17.9057   20.4583 C   0  0  0  0  0  0  0  0  0  0  0  0
   18.7638   17.5165   19.5842 H   0  0  0  0  0  0  0  0  0  0  0  0
   20.0185   17.1393   20.7803 H   0  0  0  0  0  0  0  0  0  0  0  0
   18.5641   18.0540   21.2564 H   0  0  0  0  0  0  0  0  0  0  0  0
   20.0189   19.2270   20.1055 C   0  0  0  0  0  0  0  0  0  0  0  0
   19.2703   19.9928   19.8586 H   0  0  0  0  0  0  0  0  0  0  0  0
   20.6096   19.0739   19.1914 H   0  0  0  0  0  0  0  0  0  0  0  0
   20.9611   19.7598   21.2151 C   0  0  0  0  0  0  0  0  0  0  0  0
   21.7792   19.0475   21.3890 H   0  0  0  0  0  0  0  0  0  0  0  0
   21.4401   20.6712   20.8311 H   0  0  0  0  0  0  0  0  0  0  0  0
   20.2567   20.1115   22.5517 C   0  0  0  0  0  0  0  0  0  0  0  0
   19.2256   20.4284   22.3495 H   0  0  0  0  0  0  0  0  0  0  0  0
   20.7628   20.9820   22.9918 H   0  0  0  0  0  0  0  0  0  0  0  0
   20.2937   18.9585   23.5895 C   0  0  0  0  0  0  0  0  0  0  0  0
   19.7793   18.0719   23.2024 H   0  0  0  0  0  0  0  0  0  0  0  0
   21.3404   18.6637   23.7411 H   0  0  0  0  0  0  0  0  0  0  0  0
   19.6928   19.3407   24.9613 C   0  0  1  0  0  0  0  0  0  0  0  0
   20.1813   20.2569   25.3072 H   0  0  0  0  0  0  0  0  0  0  0  0
   18.1771   19.5965   24.8780 C   0  0  0  0  0  0  0  0  0  0  0  0
   17.9516   20.4587   24.2402 H   0  0  0  0  0  0  0  0  0  0  0  0
   17.7669   19.8134   25.8720 H   0  0  0  0  0  0  0  0  0  0  0  0
   17.6488   18.7233   24.4754 H   0  0  0  0  0  0  0  0  0  0  0  0
   19.9858   18.2883   25.9946 N   0  3  0  0  0  0  0  0  0  0  0  0
   20.9924   18.1318   26.0990 H   0  0  0  0  0  0  0  0  0  0  0  0
   19.6230   18.5558   26.9140 H   0  0  0  0  0  0  0  0  0  0  0  0
   19.5591   17.3915   25.7474 H   0  0  0  0  0  0  0  0  0  0  0  0
  1  2  1  0  0  0  0
  1  3  1  0  0  0  0
  1  4  1  0  0  0  0
  1  5  1  0  0  0  0
  5  6  1  0  0  0  0
  5  7  1  0  0  0  0
  5  8  1  0  0  0  0
  8  9  1  0  0  0  0
  8 10  1  0  0  0  0
  8 11  1  0  0  0  0
 11 12  1  0  0  0  0
 11 13  1  0  0  0  0
 11 14  1  0  0  0  0
 14 15  1  0  0  0  0
 14 16  1  0  0  0  0
 14 17  1  0  0  0  0
 17 18  1  0  0  0  0
 17 19  1  0  0  0  0
 19 20  1  0  0  0  0
 19 21  1  0  0  0  0
 19 22  1  0  0  0  0
 17 23  1  0  0  0  0
 23 24  1  0  0  0  0
 23 25  1  0  0  0  0
 23 26  1  0  0  0  0
M  END
> <VM2 Rank>
49

> <Conf_Id>
135

> <Probability>
0.04

> <Sum Probability>
99.47

> <Delta G>
3.672

> <G>
27.382

> <E>
-5.486

> <-TS>
32.868

> <U+W>
-26.948

> <U>
27.261

> <W>
-54.209

> <W(PB)>
-56.472

> <W(SA)>
2.263

> <Valence>
6.229

> <Coulomb>
19.945

> <VdW>
1.087

> <VdW6>
-8.618

> <VdW12>
9.704

> <Bond>
0.277

> <Angle>
1.929

> <Pdih>
4.023

> <Idih>
0.000

> <Tether>
0.000

$$$$
VeraChem MOL file


 26 25  0  0  0  0  0  0  0  0999 V2000     
   19.2879   18.4525   19.8553 C   0  0  0  0  0  0  0  0  0  0  0  0
   19.3768   18.2444   18.7812 H   0  0  0  0  0  0  0  0  0  0  0  0
   18.7472   17.6154   20.3157 H   0  0  0  0  0  0  0  0  0  0  0  0
   18.6791   19.3583   19.9666 H   0  0  0  0  0  0  0  0  0  0  0  0
   20.6863   18.6274   20.4898 C   0  0  0  0  0  0  0  0  0  0  0  0
   21.1967   19.4846   20.0288 H   0  0  0  0  0  0  0  0  0  0  0  0
   21.2961   17.7440   20.2541 H   0  0  0  0  0  0  0  0  0  0  0  0
   20.6432   18.8071   22.0263 C   0  0  0  0  0  0  0  0  0  0  0  0
   20.1565   17.9290   22.4677 H   0  0  0  0  0  0  0  0  0  0  0  0
   21.6747   18.8270   22.4040 H   0  0  0  0  0  0  0  0  0  0  0  0
   19.9123   20.0992   22.4694 C   0  0  0  0  0  0  0  0  0  0  0  0
   18.8437   20.0274   22.2296 H   0  0  0  0  0  0  0  0  0  0  0  0
   20.2952   20.9395   21.8742 H   0  0  0  0  0  0  0  0  0  0  0  0
   20.0894   20.4608   23.9712 C   0  0  0  0  0  0  0  0  0  0  0  0
   21.1512   20.6500   24.1763 H   0  0  0  0  0  0  0  0  0  0  0  0
   19.5846   21.4202   24.1450 H   0  0  0  0  0  0  0  0  0  0  0  0
   19.5469   19.4520   25.0158 C   0  0  1  0  0  0  0  0  0  0  0  0
   19.5611   19.9624   25.9838 H   0  0  0  0  0  0  0  0  0  0  0  0
   18.0908   19.0411   24.7357 C   0  0  0  0  0  0  0  0  0  0  0  0
   17.6929   18.4461   25.5669 H   0  0  0  0  0  0  0  0  0  0  0  0
   18.0081   18.4393   23.8228 H   0  0  0  0  0  0  0  0  0  0  0  0
   17.4520   19.9260   24.6240 H   0  0  0  0  0  0  0  0  0  0  0  0
   20.4312   18.2480   25.1906 N   0  3  0  0  0  0  0  0  0  0  0  0
   20.0793   17.6303   25.9276 H   0  0  0  0  0  0  0  0  0  0  0  0
   20.4877   17.7003   24.3297 H   0  0  0  0  0  0  0  0  0  0  0  0
   21.3846   18.5180   25.4484 H   0  0  0  0  0  0  0  0  0  0  0  0
  1  2  1  0  0  0  0
  1  3  1  0  0  0  0
  1  4  1  0  0  0  0
  1  5  1  0  0  0  0
  5  6  1  0  0  0  0
  5  7  1  0  0  0  0
  5  8  1  0  0  0  0
  8  9  1  0  0  0  0
  8 10  1  0  0  0  0
  8 11  1  0  0  0  0
 11 12  1  0  0  0  0
 11 13  1  0  0  0  0
 11 14  1  0  0  0  0
 14 15  1  0  0  0  0
 14 16  1  0  0  0  0
 14 17  1  0  0  0  0
 17 18  1  0  0  0  0
 17 19  1  0  0  0  0
 19 20  1  0  0  0  0
 19 21  1  0  0  0  0
 19 22  1  0  0  0  0
 17 23  1  0  0  0  0
 23 24  1  0  0  0  0
 23 25  1  0  0  0  0
 23 26  1  0  0  0  0
M  END
> <VM2 Rank>
50

> <Conf_Id>
1337

> <Probability>
0.03

> <Sum Probability>
99.50

> <Delta G>
3.770

> <G>
27.480

> <E>
-5.789

> <-TS>
33.269

> <U+W>
-27.250

> <U>
27.148

> <W>
-54.398

> <W(PB)>
-56.624

> <W(SA)>
2.226

> <Valence>
5.072

> <Coulomb>
21.224

> <VdW>
0.852

> <VdW6>
-9.599

> <VdW12>
10.452

> <Bond>
0.312

> <Angle>
2.307

> <Pdih>
2.453

> <Idih>
0.000

> <Tether>
0.000

$$$$
VeraChem MOL file


 26 25  0  0  0  0  0  0  0  0999 V2000     
   21.0077   19.7119   19.8277 C   0  0  0  0  0  0  0  0  0  0  0  0
   20.7470   19.0362   19.0026 H   0  0  0  0  0  0  0  0  0  0  0  0
   20.4023   20.6223   19.7283 H   0  0  0  0  0  0  0  0  0  0  0  0
   22.0621   19.9941   19.7111 H   0  0  0  0  0  0  0  0  0  0  0  0
   20.7723   19.0362   21.1952 C   0  0  0  0  0  0  0  0  0  0  0  0
   21.0882   19.7259   21.9856 H   0  0  0  0  0  0  0  0  0  0  0  0
   21.4139   18.1475   21.2727 H   0  0  0  0  0  0  0  0  0  0  0  0
   19.2905   18.6277   21.3782 C   0  0  0  0  0  0  0  0  0  0  0  0
   18.6402   19.5105   21.3072 H   0  0  0  0  0  0  0  0  0  0  0  0
   19.0121   17.9797   20.5354 H   0  0  0  0  0  0  0  0  0  0  0  0
   19.0001   17.8561   22.6923 C   0  0  0  0  0  0  0  0  0  0  0  0
   19.8360   17.1877   22.9378 H   0  0  0  0  0  0  0  0  0  0  0  0
   18.1441   17.1924   22.5074 H   0  0  0  0  0  0  0  0  0  0  0  0
   18.6308   18.7499   23.9073 C   0  0  0  0  0  0  0  0  0  0  0  0
   17.7465   19.3476   23.6489 H   0  0  0  0  0  0  0  0  0  0  0  0
   18.3243   18.1017   24.7391 H   0  0  0  0  0  0  0  0  0  0  0  0
   19.7489   19.6947   24.3971 C   0  0  1  0  0  0  0  0  0  0  0  0
   20.0214   20.3615   23.5750 H   0  0  0  0  0  0  0  0  0  0  0  0
   19.2439   20.5618   25.5613 C   0  0  0  0  0  0  0  0  0  0  0  0
   18.3700   21.1514   25.2575 H   0  0  0  0  0  0  0  0  0  0  0  0
   20.0211   21.2635   25.8882 H   0  0  0  0  0  0  0  0  0  0  0  0
   18.9572   19.9444   26.4218 H   0  0  0  0  0  0  0  0  0  0  0  0
   20.9938   18.9496   24.7949 N   0  3  0  0  0  0  0  0  0  0  0  0
   21.7370   19.5901   25.0882 H   0  0  0  0  0  0  0  0  0  0  0  0
   20.8124   18.3130   25.5754 H   0  0  0  0  0  0  0  0  0  0  0  0
   21.3551   18.3902   24.0179 H   0  0  0  0  0  0  0  0  0  0  0  0
  1  2  1  0  0  0  0
  1  3  1  0  0  0  0
  1  4  1  0  0  0  0
  1  5  1  0  0  0  0
  5  6  1  0  0  0  0
  5  7  1  0  0  0  0
  5  8  1  0  0  0  0
  8  9  1  0  0  0  0
  8 10  1  0  0  0  0
  8 11  1  0  0  0  0
 11 12  1  0  0  0  0
 11 13  1  0  0  0  0
 11 14  1  0  0  0  0
 14 15  1  0  0  0  0
 14 16  1  0  0  0  0
 14 17  1  0  0  0  0
 17 18  1  0  0  0  0
 17 19  1  0  0  0  0
 19 20  1  0  0  0  0
 19 21  1  0  0  0  0
 19 22  1  0  0  0  0
 17 23  1  0  0  0  0
 23 24  1  0  0  0  0
 23 25  1  0  0  0  0
 23 26  1  0  0  0  0
M  END
> <VM2 Rank>
51

> <Conf_Id>
1205

> <Probability>
0.03

> <Sum Probability>
99.53

> <Delta G>
3.782

> <G>
27.492

> <E>
-5.513

> <-TS>
33.005

> <U+W>
-26.975

> <U>
27.042

> <W>
-54.016

> <W(PB)>
-56.286

> <W(SA)>
2.270

> <Valence>
5.411

> <Coulomb>
21.047

> <VdW>
0.584

> <VdW6>
-8.849

> <VdW12>
9.433

> <Bond>
0.257

> <Angle>
1.922

> <Pdih>
3.231

> <Idih>
0.000

> <Tether>
0.000

$$$$
VeraChem MOL file


 26 25  0  0  0  0  0  0  0  0999 V2000     
   20.4281   17.6844   20.3102 C   0  0  0  0  0  0  0  0  0  0  0  0
   21.4320   17.8500   19.8982 H   0  0  0  0  0  0  0  0  0  0  0  0
   20.5408   17.2793   21.3215 H   0  0  0  0  0  0  0  0  0  0  0  0
   19.9402   16.9150   19.6978 H   0  0  0  0  0  0  0  0  0  0  0  0
   19.6019   18.9917   20.2936 C   0  0  0  0  0  0  0  0  0  0  0  0
   18.5811   18.8029   20.6538 H   0  0  0  0  0  0  0  0  0  0  0  0
   19.4986   19.3119   19.2473 H   0  0  0  0  0  0  0  0  0  0  0  0
   20.2530   20.1456   21.0991 C   0  0  0  0  0  0  0  0  0  0  0  0
   21.3478   20.0567   21.0741 H   0  0  0  0  0  0  0  0  0  0  0  0
   20.0220   21.0904   20.5877 H   0  0  0  0  0  0  0  0  0  0  0  0
   19.7597   20.2770   22.5633 C   0  0  0  0  0  0  0  0  0  0  0  0
   18.6773   20.4621   22.5587 H   0  0  0  0  0  0  0  0  0  0  0  0
   20.2235   21.1705   23.0038 H   0  0  0  0  0  0  0  0  0  0  0  0
   20.0814   19.0526   23.4558 C   0  0  0  0  0  0  0  0  0  0  0  0
   19.4799   18.1924   23.1364 H   0  0  0  0  0  0  0  0  0  0  0  0
   21.1345   18.7786   23.3099 H   0  0  0  0  0  0  0  0  0  0  0  0
   19.8438   19.3056   24.9619 C   0  0  1  0  0  0  0  0  0  0  0  0
   20.4211   20.1874   25.2567 H   0  0  0  0  0  0  0  0  0  0  0  0
   18.3601   19.5674   25.2774 C   0  0  0  0  0  0  0  0  0  0  0  0
   17.7305   18.7321   24.9463 H   0  0  0  0  0  0  0  0  0  0  0  0
   18.0040   20.4814   24.7881 H   0  0  0  0  0  0  0  0  0  0  0  0
   18.2118   19.6983   26.3564 H   0  0  0  0  0  0  0  0  0  0  0  0
   20.3600   18.1637   25.7928 N   0  3  0  0  0  0  0  0  0  0  0  0
   21.3577   17.9999   25.6306 H   0  0  0  0  0  0  0  0  0  0  0  0
   20.2407   18.3455   26.7934 H   0  0  0  0  0  0  0  0  0  0  0  0
   19.8666   17.2926   25.5801 H   0  0  0  0  0  0  0  0  0  0  0  0
  1  2  1  0  0  0  0
  1  3  1  0  0  0  0
  1  4  1  0  0  0  0
  1  5  1  0  0  0  0
  5  6  1  0  0  0  0
  5  7  1  0  0  0  0
  5  8  1  0  0  0  0
  8  9  1  0  0  0  0
  8 10  1  0  0  0  0
  8 11  1  0  0  0  0
 11 12  1  0  0  0  0
 11 13  1  0  0  0  0
 11 14  1  0  0  0  0
 14 15  1  0  0  0  0
 14 16  1  0  0  0  0
 14 17  1  0  0  0  0
 17 18  1  0  0  0  0
 17 19  1  0  0  0  0
 19 20  1  0  0  0  0
 19 21  1  0  0  0  0
 19 22  1  0  0  0  0
 17 23  1  0  0  0  0
 23 24  1  0  0  0  0
 23 25  1  0  0  0  0
 23 26  1  0  0  0  0
M  END
> <VM2 Rank>
52

> <Conf_Id>
148

> <Probability>
0.03

> <Sum Probability>
99.56

> <Delta G>
3.786

> <G>
27.495

> <E>
-5.431

> <-TS>
32.927

> <U+W>
-26.893

> <U>
27.268

> <W>
-54.161

> <W(PB)>
-56.431

> <W(SA)>
2.270

> <Valence>
6.201

> <Coulomb>
19.968

> <VdW>
1.099

> <VdW6>
-8.560

> <VdW12>
9.659

> <Bond>
0.266

> <Angle>
1.902

> <Pdih>
4.034

> <Idih>
0.000

> <Tether>
0.000

$$$$
VeraChem MOL file


 26 25  0  0  0  0  0  0  0  0999 V2000     
   21.1398   19.2459   19.7805 C   0  0  0  0  0  0  0  0  0  0  0  0
   21.2855   19.2295   18.6926 H   0  0  0  0  0  0  0  0  0  0  0  0
   21.6190   20.1536   20.1697 H   0  0  0  0  0  0  0  0  0  0  0  0
   21.6623   18.3755   20.1963 H   0  0  0  0  0  0  0  0  0  0  0  0
   19.6333   19.2212   20.1248 C   0  0  0  0  0  0  0  0  0  0  0  0
   19.1833   18.2923   19.7474 H   0  0  0  0  0  0  0  0  0  0  0  0
   19.1343   20.0428   19.5922 H   0  0  0  0  0  0  0  0  0  0  0  0
   19.3477   19.3643   21.6391 C   0  0  0  0  0  0  0  0  0  0  0  0
   19.7784   20.3092   21.9957 H   0  0  0  0  0  0  0  0  0  0  0  0
   18.2610   19.4375   21.7832 H   0  0  0  0  0  0  0  0  0  0  0  0
   19.8928   18.1837   22.4800 C   0  0  0  0  0  0  0  0  0  0  0  0
   20.9904   18.1778   22.4454 H   0  0  0  0  0  0  0  0  0  0  0  0
   19.5646   17.2391   22.0249 H   0  0  0  0  0  0  0  0  0  0  0  0
   19.4368   18.1984   23.9613 C   0  0  0  0  0  0  0  0  0  0  0  0
   18.3427   18.1244   24.0215 H   0  0  0  0  0  0  0  0  0  0  0  0
   19.8207   17.2825   24.4297 H   0  0  0  0  0  0  0  0  0  0  0  0
   19.9418   19.4251   24.7594 C   0  0  1  0  0  0  0  0  0  0  0  0
   20.8024   19.8461   24.2304 H   0  0  0  0  0  0  0  0  0  0  0  0
   18.8573   20.5111   24.8832 C   0  0  0  0  0  0  0  0  0  0  0  0
   17.9921   20.1425   25.4484 H   0  0  0  0  0  0  0  0  0  0  0  0
   18.5019   20.8407   23.9010 H   0  0  0  0  0  0  0  0  0  0  0  0
   19.2514   21.3923   25.4043 H   0  0  0  0  0  0  0  0  0  0  0  0
   20.4385   19.0383   26.1257 N   0  3  0  0  0  0  0  0  0  0  0  0
   21.1958   18.3511   26.0707 H   0  0  0  0  0  0  0  0  0  0  0  0
   20.8002   19.8492   26.6356 H   0  0  0  0  0  0  0  0  0  0  0  0
   19.6917   18.6290   26.6935 H   0  0  0  0  0  0  0  0  0  0  0  0
  1  2  1  0  0  0  0
  1  3  1  0  0  0  0
  1  4  1  0  0  0  0
  1  5  1  0  0  0  0
  5  6  1  0  0  0  0
  5  7  1  0  0  0  0
  5  8  1  0  0  0  0
  8  9  1  0  0  0  0
  8 10  1  0  0  0  0
  8 11  1  0  0  0  0
 11 12  1  0  0  0  0
 11 13  1  0  0  0  0
 11 14  1  0  0  0  0
 14 15  1  0  0  0  0
 14 16  1  0  0  0  0
 14 17  1  0  0  0  0
 17 18  1  0  0  0  0
 17 19  1  0  0  0  0
 19 20  1  0  0  0  0
 19 21  1  0  0  0  0
 19 22  1  0  0  0  0
 17 23  1  0  0  0  0
 23 24  1  0  0  0  0
 23 25  1  0  0  0  0
 23 26  1  0  0  0  0
M  END
> <VM2 Rank>
53

> <Conf_Id>
169

> <Probability>
0.03

> <Sum Probability>
99.59

> <Delta G>
3.790

> <G>
27.500

> <E>
-5.331

> <-TS>
32.831

> <U+W>
-26.793

> <U>
27.317

> <W>
-54.110

> <W(PB)>
-56.370

> <W(SA)>
2.261

> <Valence>
6.336

> <Coulomb>
19.872

> <VdW>
1.109

> <VdW6>
-8.501

> <VdW12>
9.610

> <Bond>
0.243

> <Angle>
1.598

> <Pdih>
4.495

> <Idih>
0.000

> <Tether>
0.000

$$$$
VeraChem MOL file


 26 25  0  0  0  0  0  0  0  0999 V2000     
   20.0267   18.6010   19.3449 C   0  0  0  0  0  0  0  0  0  0  0  0
   19.1871   19.3066   19.3555 H   0  0  0  0  0  0  0  0  0  0  0  0
   20.4996   18.6686   18.3565 H   0  0  0  0  0  0  0  0  0  0  0  0
   19.6245   17.5855   19.4549 H   0  0  0  0  0  0  0  0  0  0  0  0
   21.0533   18.9161   20.4569 C   0  0  0  0  0  0  0  0  0  0  0  0
   21.4157   19.9478   20.3465 H   0  0  0  0  0  0  0  0  0  0  0  0
   21.9293   18.2670   20.3184 H   0  0  0  0  0  0  0  0  0  0  0  0
   20.5020   18.7031   21.8878 C   0  0  0  0  0  0  0  0  0  0  0  0
   20.1141   17.6793   21.9813 H   0  0  0  0  0  0  0  0  0  0  0  0
   21.3464   18.7916   22.5815 H   0  0  0  0  0  0  0  0  0  0  0  0
   19.4055   19.7239   22.2839 C   0  0  0  0  0  0  0  0  0  0  0  0
   18.6190   19.7271   21.5189 H   0  0  0  0  0  0  0  0  0  0  0  0
   19.8327   20.7362   22.2854 H   0  0  0  0  0  0  0  0  0  0  0  0
   18.7230   19.4503   23.6504 C   0  0  0  0  0  0  0  0  0  0  0  0
   17.9078   20.1790   23.7531 H   0  0  0  0  0  0  0  0  0  0  0  0
   18.2414   18.4635   23.6422 H   0  0  0  0  0  0  0  0  0  0  0  0
   19.6537   19.5734   24.8804 C   0  0  1  0  0  0  0  0  0  0  0  0
   20.3422   20.4069   24.7108 H   0  0  0  0  0  0  0  0  0  0  0  0
   18.8332   19.8771   26.1451 C   0  0  0  0  0  0  0  0  0  0  0  0
   18.2788   20.8175   26.0351 H   0  0  0  0  0  0  0  0  0  0  0  0
   19.4890   19.9806   27.0185 H   0  0  0  0  0  0  0  0  0  0  0  0
   18.1117   19.0767   26.3519 H   0  0  0  0  0  0  0  0  0  0  0  0
   20.4906   18.3432   25.1046 N   0  3  0  0  0  0  0  0  0  0  0  0
   19.9058   17.5281   25.3074 H   0  0  0  0  0  0  0  0  0  0  0  0
   21.0560   18.1189   24.2829 H   0  0  0  0  0  0  0  0  0  0  0  0
   21.1296   18.4649   25.8954 H   0  0  0  0  0  0  0  0  0  0  0  0
  1  2  1  0  0  0  0
  1  3  1  0  0  0  0
  1  4  1  0  0  0  0
  1  5  1  0  0  0  0
  5  6  1  0  0  0  0
  5  7  1  0  0  0  0
  5  8  1  0  0  0  0
  8  9  1  0  0  0  0
  8 10  1  0  0  0  0
  8 11  1  0  0  0  0
 11 12  1  0  0  0  0
 11 13  1  0  0  0  0
 11 14  1  0  0  0  0
 14 15  1  0  0  0  0
 14 16  1  0  0  0  0
 14 17  1  0  0  0  0
 17 18  1  0  0  0  0
 17 19  1  0  0  0  0
 19 20  1  0  0  0  0
 19 21  1  0  0  0  0
 19 22  1  0  0  0  0
 17 23  1  0  0  0  0
 23 24  1  0  0  0  0
 23 25  1  0  0  0  0
 23 26  1  0  0  0  0
M  END
> <VM2 Rank>
54

> <Conf_Id>
947

> <Probability>
0.03

> <Sum Probability>
99.62

> <Delta G>
3.795

> <G>
27.504

> <E>
-5.078

> <-TS>
32.582

> <U+W>
-26.540

> <U>
27.399

> <W>
-53.939

> <W(PB)>
-56.242

> <W(SA)>
2.303

> <Valence>
5.205

> <Coulomb>
21.096

> <VdW>
1.098

> <VdW6>
-8.389

> <VdW12>
9.487

> <Bond>
0.270

> <Angle>
1.912

> <Pdih>
3.023

> <Idih>
0.000

> <Tether>
0.000

$$$$
VeraChem MOL file


 26 25  0  0  0  0  0  0  0  0999 V2000     
   19.8851   20.0811   19.7709 C   0  0  0  0  0  0  0  0  0  0  0  0
   20.6843   20.6472   20.2648 H   0  0  0  0  0  0  0  0  0  0  0  0
   20.0016   20.2231   18.6886 H   0  0  0  0  0  0  0  0  0  0  0  0
   18.9217   20.5174   20.0646 H   0  0  0  0  0  0  0  0  0  0  0  0
   19.9472   18.5786   20.1283 C   0  0  0  0  0  0  0  0  0  0  0  0
   20.9302   18.1721   19.8525 H   0  0  0  0  0  0  0  0  0  0  0  0
   19.2094   18.0397   19.5175 H   0  0  0  0  0  0  0  0  0  0  0  0
   19.6599   18.2909   21.6215 C   0  0  0  0  0  0  0  0  0  0  0  0
   18.6717   18.6888   21.8814 H   0  0  0  0  0  0  0  0  0  0  0  0
   19.5946   17.2026   21.7578 H   0  0  0  0  0  0  0  0  0  0  0  0
   20.7469   18.8505   22.5758 C   0  0  0  0  0  0  0  0  0  0  0  0
   20.8506   19.9371   22.4600 H   0  0  0  0  0  0  0  0  0  0  0  0
   21.7137   18.4204   22.2800 H   0  0  0  0  0  0  0  0  0  0  0  0
   20.4918   18.5064   24.0676 C   0  0  0  0  0  0  0  0  0  0  0  0
   19.9187   17.5736   24.1519 H   0  0  0  0  0  0  0  0  0  0  0  0
   21.4643   18.3023   24.5348 H   0  0  0  0  0  0  0  0  0  0  0  0
   19.8095   19.6286   24.8868 C   0  0  1  0  0  0  0  0  0  0  0  0
   20.4365   20.5234   24.8255 H   0  0  0  0  0  0  0  0  0  0  0  0
   18.4102   19.9881   24.3593 C   0  0  0  0  0  0  0  0  0  0  0  0
   17.7650   19.1024   24.3067 H   0  0  0  0  0  0  0  0  0  0  0  0
   18.4700   20.4371   23.3612 H   0  0  0  0  0  0  0  0  0  0  0  0
   17.9267   20.7233   25.0142 H   0  0  0  0  0  0  0  0  0  0  0  0
   19.7375   19.2638   26.3438 N   0  3  0  0  0  0  0  0  0  0  0  0
   19.1597   18.4324   26.4932 H   0  0  0  0  0  0  0  0  0  0  0  0
   20.6653   19.0672   26.7300 H   0  0  0  0  0  0  0  0  0  0  0  0
   19.3313   20.0217   26.8996 H   0  0  0  0  0  0  0  0  0  0  0  0
  1  2  1  0  0  0  0
  1  3  1  0  0  0  0
  1  4  1  0  0  0  0
  1  5  1  0  0  0  0
  5  6  1  0  0  0  0
  5  7  1  0  0  0  0
  5  8  1  0  0  0  0
  8  9  1  0  0  0  0
  8 10  1  0  0  0  0
  8 11  1  0  0  0  0
 11 12  1  0  0  0  0
 11 13  1  0  0  0  0
 11 14  1  0  0  0  0
 14 15  1  0  0  0  0
 14 16  1  0  0  0  0
 14 17  1  0  0  0  0
 17 18  1  0  0  0  0
 17 19  1  0  0  0  0
 19 20  1  0  0  0  0
 19 21  1  0  0  0  0
 19 22  1  0  0  0  0
 17 23  1  0  0  0  0
 23 24  1  0  0  0  0
 23 25  1  0  0  0  0
 23 26  1  0  0  0  0
M  END
> <VM2 Rank>
55

> <Conf_Id>
1063

> <Probability>
0.03

> <Sum Probability>
99.65

> <Delta G>
3.823

> <G>
27.532

> <E>
-5.392

> <-TS>
32.924

> <U+W>
-26.854

> <U>
27.193

> <W>
-54.047

> <W(PB)>
-56.289

> <W(SA)>
2.242

> <Valence>
6.324

> <Coulomb>
19.778

> <VdW>
1.091

> <VdW6>
-8.627

> <VdW12>
9.718

> <Bond>
0.275

> <Angle>
1.905

> <Pdih>
4.144

> <Idih>
0.000

> <Tether>
0.000

$$$$
VeraChem MOL file


 26 25  0  0  0  0  0  0  0  0999 V2000     
   20.0416   17.6613   20.2048 C   0  0  0  0  0  0  0  0  0  0  0  0
   20.2344   17.2701   19.1975 H   0  0  0  0  0  0  0  0  0  0  0  0
   20.8332   17.2816   20.8622 H   0  0  0  0  0  0  0  0  0  0  0  0
   19.0829   17.2501   20.5465 H   0  0  0  0  0  0  0  0  0  0  0  0
   20.0090   19.2065   20.1870 C   0  0  0  0  0  0  0  0  0  0  0  0
   19.2892   19.5358   19.4245 H   0  0  0  0  0  0  0  0  0  0  0  0
   20.9881   19.5943   19.8728 H   0  0  0  0  0  0  0  0  0  0  0  0
   19.6096   19.8278   21.5470 C   0  0  0  0  0  0  0  0  0  0  0  0
   19.4886   20.9112   21.4100 H   0  0  0  0  0  0  0  0  0  0  0  0
   18.6246   19.4461   21.8399 H   0  0  0  0  0  0  0  0  0  0  0  0
   20.6523   19.5765   22.6672 C   0  0  0  0  0  0  0  0  0  0  0  0
   21.6214   19.9602   22.3198 H   0  0  0  0  0  0  0  0  0  0  0  0
   20.7949   18.5016   22.8297 H   0  0  0  0  0  0  0  0  0  0  0  0
   20.3025   20.2811   24.0081 C   0  0  0  0  0  0  0  0  0  0  0  0
   21.2385   20.6111   24.4777 H   0  0  0  0  0  0  0  0  0  0  0  0
   19.7389   21.2025   23.8112 H   0  0  0  0  0  0  0  0  0  0  0  0
   19.5389   19.4247   25.0489 C   0  0  1  0  0  0  0  0  0  0  0  0
   19.3572   20.0640   25.9184 H   0  0  0  0  0  0  0  0  0  0  0  0
   18.1721   18.9398   24.5394 C   0  0  0  0  0  0  0  0  0  0  0  0
   18.2818   18.1907   23.7463 H   0  0  0  0  0  0  0  0  0  0  0  0
   17.5804   19.7776   24.1503 H   0  0  0  0  0  0  0  0  0  0  0  0
   17.6009   18.4800   25.3552 H   0  0  0  0  0  0  0  0  0  0  0  0
   20.3621   18.2702   25.5517 N   0  3  0  0  0  0  0  0  0  0  0  0
   19.8710   17.7531   26.2864 H   0  0  0  0  0  0  0  0  0  0  0  0
   20.5746   17.6091   24.8008 H   0  0  0  0  0  0  0  0  0  0  0  0
   21.2529   18.5871   25.9448 H   0  0  0  0  0  0  0  0  0  0  0  0
  1  2  1  0  0  0  0
  1  3  1  0  0  0  0
  1  4  1  0  0  0  0
  1  5  1  0  0  0  0
  5  6  1  0  0  0  0
  5  7  1  0  0  0  0
  5  8  1  0  0  0  0
  8  9  1  0  0  0  0
  8 10  1  0  0  0  0
  8 11  1  0  0  0  0
 11 12  1  0  0  0  0
 11 13  1  0  0  0  0
 11 14  1  0  0  0  0
 14 15  1  0  0  0  0
 14 16  1  0  0  0  0
 14 17  1  0  0  0  0
 17 18  1  0  0  0  0
 17 19  1  0  0  0  0
 19 20  1  0  0  0  0
 19 21  1  0  0  0  0
 19 22  1  0  0  0  0
 17 23  1  0  0  0  0
 23 24  1  0  0  0  0
 23 25  1  0  0  0  0
 23 26  1  0  0  0  0
M  END
> <VM2 Rank>
56

> <Conf_Id>
1080

> <Probability>
0.03

> <Sum Probability>
99.68

> <Delta G>
3.837

> <G>
27.546

> <E>
-5.435

> <-TS>
32.981

> <U+W>
-26.896

> <U>
27.552

> <W>
-54.449

> <W(PB)>
-56.689

> <W(SA)>
2.240

> <Valence>
6.310

> <Coulomb>
20.199

> <VdW>
1.044

> <VdW6>
-9.081

> <VdW12>
10.124

> <Bond>
0.308

> <Angle>
2.043

> <Pdih>
3.959

> <Idih>
0.000

> <Tether>
0.000

$$$$
VeraChem MOL file


 26 25  0  0  0  0  0  0  0  0999 V2000     
   21.3202   18.3491   20.5398 C   0  0  0  0  0  0  0  0  0  0  0  0
   22.0905   18.2868   19.7603 H   0  0  0  0  0  0  0  0  0  0  0  0
   21.7958   18.7620   21.4381 H   0  0  0  0  0  0  0  0  0  0  0  0
   20.9822   17.3283   20.7599 H   0  0  0  0  0  0  0  0  0  0  0  0
   20.1465   19.2351   20.0684 C   0  0  0  0  0  0  0  0  0  0  0  0
   19.8038   18.8739   19.0886 H   0  0  0  0  0  0  0  0  0  0  0  0
   20.5069   20.2604   19.9051 H   0  0  0  0  0  0  0  0  0  0  0  0
   18.9351   19.2587   21.0353 C   0  0  0  0  0  0  0  0  0  0  0  0
   18.1528   19.8740   20.5696 H   0  0  0  0  0  0  0  0  0  0  0  0
   18.5043   18.2521   21.1267 H   0  0  0  0  0  0  0  0  0  0  0  0
   19.2395   19.8443   22.4390 C   0  0  0  0  0  0  0  0  0  0  0  0
   18.3588   20.4114   22.7681 H   0  0  0  0  0  0  0  0  0  0  0  0
   20.0633   20.5684   22.3737 H   0  0  0  0  0  0  0  0  0  0  0  0
   19.5564   18.7584   23.5006 C   0  0  0  0  0  0  0  0  0  0  0  0
   18.6687   18.1321   23.6600 H   0  0  0  0  0  0  0  0  0  0  0  0
   20.3353   18.0899   23.1174 H   0  0  0  0  0  0  0  0  0  0  0  0
   20.0335   19.3337   24.8538 C   0  0  1  0  0  0  0  0  0  0  0  0
   20.8954   19.9813   24.6659 H   0  0  0  0  0  0  0  0  0  0  0  0
   18.9414   20.1669   25.5487 C   0  0  0  0  0  0  0  0  0  0  0  0
   18.0292   19.5769   25.7019 H   0  0  0  0  0  0  0  0  0  0  0  0
   18.6824   21.0548   24.9605 H   0  0  0  0  0  0  0  0  0  0  0  0
   19.2880   20.5176   26.5286 H   0  0  0  0  0  0  0  0  0  0  0  0
   20.5154   18.2417   25.7683 N   0  3  0  0  0  0  0  0  0  0  0  0
   20.8695   18.6219   26.6506 H   0  0  0  0  0  0  0  0  0  0  0  0
   19.7631   17.5870   25.9984 H   0  0  0  0  0  0  0  0  0  0  0  0
   21.2746   17.7013   25.3438 H   0  0  0  0  0  0  0  0  0  0  0  0
  1  2  1  0  0  0  0
  1  3  1  0  0  0  0
  1  4  1  0  0  0  0
  1  5  1  0  0  0  0
  5  6  1  0  0  0  0
  5  7  1  0  0  0  0
  5  8  1  0  0  0  0
  8  9  1  0  0  0  0
  8 10  1  0  0  0  0
  8 11  1  0  0  0  0
 11 12  1  0  0  0  0
 11 13  1  0  0  0  0
 11 14  1  0  0  0  0
 14 15  1  0  0  0  0
 14 16  1  0  0  0  0
 14 17  1  0  0  0  0
 17 18  1  0  0  0  0
 17 19  1  0  0  0  0
 19 20  1  0  0  0  0
 19 21  1  0  0  0  0
 19 22  1  0  0  0  0
 17 23  1  0  0  0  0
 23 24  1  0  0  0  0
 23 25  1  0  0  0  0
 23 26  1  0  0  0  0
M  END
> <VM2 Rank>
57

> <Conf_Id>
532

> <Probability>
0.03

> <Sum Probability>
99.70

> <Delta G>
3.880

> <G>
27.590

> <E>
-5.382

> <-TS>
32.972

> <U+W>
-26.844

> <U>
27.458

> <W>
-54.302

> <W(PB)>
-56.573

> <W(SA)>
2.271

> <Valence>
6.292

> <Coulomb>
20.019

> <VdW>
1.147

> <VdW6>
-8.552

> <VdW12>
9.698

> <Bond>
0.273

> <Angle>
1.838

> <Pdih>
4.181

> <Idih>
0.000

> <Tether>
0.000

$$$$
VeraChem MOL file


 26 25  0  0  0  0  0  0  0  0999 V2000     
   19.1311   19.7160   20.1966 C   0  0  0  0  0  0  0  0  0  0  0  0
   19.6899   20.6592   20.2491 H   0  0  0  0  0  0  0  0  0  0  0  0
   18.5558   19.7181   19.2618 H   0  0  0  0  0  0  0  0  0  0  0  0
   18.4112   19.6885   21.0238 H   0  0  0  0  0  0  0  0  0  0  0  0
   20.0832   18.5009   20.2411 C   0  0  0  0  0  0  0  0  0  0  0  0
   20.6709   18.4795   19.3127 H   0  0  0  0  0  0  0  0  0  0  0  0
   19.4913   17.5750   20.2475 H   0  0  0  0  0  0  0  0  0  0  0  0
   21.0622   18.4997   21.4430 C   0  0  0  0  0  0  0  0  0  0  0  0
   21.7098   17.6179   21.3403 H   0  0  0  0  0  0  0  0  0  0  0  0
   21.7334   19.3676   21.3839 H   0  0  0  0  0  0  0  0  0  0  0  0
   20.3791   18.4388   22.8342 C   0  0  0  0  0  0  0  0  0  0  0  0
   21.0047   17.8244   23.4950 H   0  0  0  0  0  0  0  0  0  0  0  0
   19.4189   17.9142   22.7478 H   0  0  0  0  0  0  0  0  0  0  0  0
   20.1945   19.8373   23.4864 C   0  0  0  0  0  0  0  0  0  0  0  0
   21.1784   20.3124   23.5938 H   0  0  0  0  0  0  0  0  0  0  0  0
   19.6207   20.4931   22.8222 H   0  0  0  0  0  0  0  0  0  0  0  0
   19.5081   19.8231   24.8727 C   0  0  1  0  0  0  0  0  0  0  0  0
   19.4945   20.8545   25.2383 H   0  0  0  0  0  0  0  0  0  0  0  0
   18.0490   19.3417   24.7892 C   0  0  0  0  0  0  0  0  0  0  0  0
   17.9854   18.2805   24.5215 H   0  0  0  0  0  0  0  0  0  0  0  0
   17.4899   19.9189   24.0423 H   0  0  0  0  0  0  0  0  0  0  0  0
   17.5463   19.4734   25.7551 H   0  0  0  0  0  0  0  0  0  0  0  0
   20.2808   19.0305   25.8910 N   0  3  0  0  0  0  0  0  0  0  0  0
   20.3307   18.0421   25.6324 H   0  0  0  0  0  0  0  0  0  0  0  0
   21.2409   19.3740   25.9845 H   0  0  0  0  0  0  0  0  0  0  0  0
   19.8453   19.0844   26.8161 H   0  0  0  0  0  0  0  0  0  0  0  0
  1  2  1  0  0  0  0
  1  3  1  0  0  0  0
  1  4  1  0  0  0  0
  1  5  1  0  0  0  0
  5  6  1  0  0  0  0
  5  7  1  0  0  0  0
  5  8  1  0  0  0  0
  8  9  1  0  0  0  0
  8 10  1  0  0  0  0
  8 11  1  0  0  0  0
 11 12  1  0  0  0  0
 11 13  1  0  0  0  0
 11 14  1  0  0  0  0
 14 15  1  0  0  0  0
 14 16  1  0  0  0  0
 14 17  1  0  0  0  0
 17 18  1  0  0  0  0
 17 19  1  0  0  0  0
 19 20  1  0  0  0  0
 19 21  1  0  0  0  0
 19 22  1  0  0  0  0
 17 23  1  0  0  0  0
 23 24  1  0  0  0  0
 23 25  1  0  0  0  0
 23 26  1  0  0  0  0
M  END
> <VM2 Rank>
58

> <Conf_Id>
570

> <Probability>
0.03

> <Sum Probability>
99.73

> <Delta G>
3.880

> <G>
27.590

> <E>
-5.459

> <-TS>
33.049

> <U+W>
-26.921

> <U>
27.276

> <W>
-54.197

> <W(PB)>
-56.420

> <W(SA)>
2.223

> <Valence>
6.240

> <Coulomb>
19.962

> <VdW>
1.074

> <VdW6>
-9.126

> <VdW12>
10.201

> <Bond>
0.305

> <Angle>
1.933

> <Pdih>
4.002

> <Idih>
0.000

> <Tether>
0.000

$$$$
VeraChem MOL file


 26 25  0  0  0  0  0  0  0  0999 V2000     
   19.8010   20.4160   20.7480 C   0  0  0  0  0  0  0  0  0  0  0  0
   20.7041   20.9870   20.9998 H   0  0  0  0  0  0  0  0  0  0  0  0
   19.3789   20.8499   19.8323 H   0  0  0  0  0  0  0  0  0  0  0  0
   19.0679   20.5661   21.5469 H   0  0  0  0  0  0  0  0  0  0  0  0
   20.1316   18.9211   20.5304 C   0  0  0  0  0  0  0  0  0  0  0  0
   20.7842   18.8481   19.6491 H   0  0  0  0  0  0  0  0  0  0  0  0
   19.2202   18.3619   20.2773 H   0  0  0  0  0  0  0  0  0  0  0  0
   20.8577   18.2549   21.7280 C   0  0  0  0  0  0  0  0  0  0  0  0
   21.5175   17.4741   21.3249 H   0  0  0  0  0  0  0  0  0  0  0  0
   21.5277   18.9746   22.2168 H   0  0  0  0  0  0  0  0  0  0  0  0
   19.9251   17.5729   22.7654 C   0  0  0  0  0  0  0  0  0  0  0  0
   20.5460   17.0260   23.4876 H   0  0  0  0  0  0  0  0  0  0  0  0
   19.3265   16.8052   22.2560 H   0  0  0  0  0  0  0  0  0  0  0  0
   18.9682   18.5179   23.5366 C   0  0  0  0  0  0  0  0  0  0  0  0
   18.2205   18.9170   22.8405 H   0  0  0  0  0  0  0  0  0  0  0  0
   18.4036   17.9287   24.2714 H   0  0  0  0  0  0  0  0  0  0  0  0
   19.6808   19.6825   24.2594 C   0  0  1  0  0  0  0  0  0  0  0  0
   20.2467   20.2531   23.5172 H   0  0  0  0  0  0  0  0  0  0  0  0
   18.6508   20.6232   24.9044 C   0  0  0  0  0  0  0  0  0  0  0  0
   17.9634   21.0249   24.1496 H   0  0  0  0  0  0  0  0  0  0  0  0
   19.1496   21.4731   25.3862 H   0  0  0  0  0  0  0  0  0  0  0  0
   18.0563   20.1002   25.6639 H   0  0  0  0  0  0  0  0  0  0  0  0
   20.6727   19.1995   25.2817 N   0  3  0  0  0  0  0  0  0  0  0  0
   21.3829   18.5987   24.8548 H   0  0  0  0  0  0  0  0  0  0  0  0
   21.1592   19.9805   25.7309 H   0  0  0  0  0  0  0  0  0  0  0  0
   20.2142   18.6587   26.0195 H   0  0  0  0  0  0  0  0  0  0  0  0
  1  2  1  0  0  0  0
  1  3  1  0  0  0  0
  1  4  1  0  0  0  0
  1  5  1  0  0  0  0
  5  6  1  0  0  0  0
  5  7  1  0  0  0  0
  5  8  1  0  0  0  0
  8  9  1  0  0  0  0
  8 10  1  0  0  0  0
  8 11  1  0  0  0  0
 11 12  1  0  0  0  0
 11 13  1  0  0  0  0
 11 14  1  0  0  0  0
 14 15  1  0  0  0  0
 14 16  1  0  0  0  0
 14 17  1  0  0  0  0
 17 18  1  0  0  0  0
 17 19  1  0  0  0  0
 19 20  1  0  0  0  0
 19 21  1  0  0  0  0
 19 22  1  0  0  0  0
 17 23  1  0  0  0  0
 23 24  1  0  0  0  0
 23 25  1  0  0  0  0
 23 26  1  0  0  0  0
M  END
> <VM2 Rank>
59

> <Conf_Id>
1280

> <Probability>
0.02

> <Sum Probability>
99.75

> <Delta G>
3.940

> <G>
27.650

> <E>
-5.738

> <-TS>
33.388

> <U+W>
-27.200

> <U>
26.996

> <W>
-54.196

> <W(PB)>
-56.396

> <W(SA)>
2.199

> <Valence>
6.014

> <Coulomb>
20.608

> <VdW>
0.374

> <VdW6>
-10.069

> <VdW12>
10.443

> <Bond>
0.292

> <Angle>
2.200

> <Pdih>
3.522

> <Idih>
0.000

> <Tether>
0.000

$$$$
VeraChem MOL file


 26 25  0  0  0  0  0  0  0  0999 V2000     
   20.6246   19.9521   19.9724 C   0  0  0  0  0  0  0  0  0  0  0  0
   20.2537   20.6060   19.1726 H   0  0  0  0  0  0  0  0  0  0  0  0
   20.8598   20.5848   20.8351 H   0  0  0  0  0  0  0  0  0  0  0  0
   21.5600   19.4965   19.6225 H   0  0  0  0  0  0  0  0  0  0  0  0
   19.5764   18.8672   20.3131 C   0  0  0  0  0  0  0  0  0  0  0  0
   19.3708   18.2968   19.3964 H   0  0  0  0  0  0  0  0  0  0  0  0
   18.6230   19.3332   20.5987 H   0  0  0  0  0  0  0  0  0  0  0  0
   20.0451   17.8799   21.4130 C   0  0  0  0  0  0  0  0  0  0  0  0
   19.6425   16.8861   21.1728 H   0  0  0  0  0  0  0  0  0  0  0  0
   21.1379   17.7700   21.3851 H   0  0  0  0  0  0  0  0  0  0  0  0
   19.5802   18.2354   22.8489 C   0  0  0  0  0  0  0  0  0  0  0  0
   19.8996   17.4253   23.5172 H   0  0  0  0  0  0  0  0  0  0  0  0
   18.4824   18.2416   22.8761 H   0  0  0  0  0  0  0  0  0  0  0  0
   20.1265   19.5885   23.3764 C   0  0  0  0  0  0  0  0  0  0  0  0
   21.2103   19.6333   23.2077 H   0  0  0  0  0  0  0  0  0  0  0  0
   19.6883   20.4084   22.7942 H   0  0  0  0  0  0  0  0  0  0  0  0
   19.8504   19.8613   24.8740 C   0  0  1  0  0  0  0  0  0  0  0  0
   20.2807   20.8394   25.1107 H   0  0  0  0  0  0  0  0  0  0  0  0
   18.3440   19.9286   25.1804 C   0  0  0  0  0  0  0  0  0  0  0  0
   17.8443   20.6501   24.5222 H   0  0  0  0  0  0  0  0  0  0  0  0
   18.1769   20.2513   26.2153 H   0  0  0  0  0  0  0  0  0  0  0  0
   17.8605   18.9529   25.0513 H   0  0  0  0  0  0  0  0  0  0  0  0
   20.5407   18.8750   25.7758 N   0  3  0  0  0  0  0  0  0  0  0  0
   20.4000   19.1083   26.7627 H   0  0  0  0  0  0  0  0  0  0  0  0
   20.1855   17.9267   25.6314 H   0  0  0  0  0  0  0  0  0  0  0  0
   21.5505   18.8550   25.6075 H   0  0  0  0  0  0  0  0  0  0  0  0
  1  2  1  0  0  0  0
  1  3  1  0  0  0  0
  1  4  1  0  0  0  0
  1  5  1  0  0  0  0
  5  6  1  0  0  0  0
  5  7  1  0  0  0  0
  5  8  1  0  0  0  0
  8  9  1  0  0  0  0
  8 10  1  0  0  0  0
  8 11  1  0  0  0  0
 11 12  1  0  0  0  0
 11 13  1  0  0  0  0
 11 14  1  0  0  0  0
 14 15  1  0  0  0  0
 14 16  1  0  0  0  0
 14 17  1  0  0  0  0
 17 18  1  0  0  0  0
 17 19  1  0  0  0  0
 19 20  1  0  0  0  0
 19 21  1  0  0  0  0
 19 22  1  0  0  0  0
 17 23  1  0  0  0  0
 23 24  1  0  0  0  0
 23 25  1  0  0  0  0
 23 26  1  0  0  0  0
M  END
> <VM2 Rank>
60

> <Conf_Id>
1078

> <Probability>
0.02

> <Sum Probability>
99.77

> <Delta G>
3.955

> <G>
27.665

> <E>
-5.395

> <-TS>
33.060

> <U+W>
-26.857

> <U>
27.312

> <W>
-54.170

> <W(PB)>
-56.414

> <W(SA)>
2.245

> <Valence>
6.229

> <Coulomb>
19.943

> <VdW>
1.140

> <VdW6>
-9.000

> <VdW12>
10.140

> <Bond>
0.294

> <Angle>
1.969

> <Pdih>
3.967

> <Idih>
0.000

> <Tether>
0.000

$$$$
VeraChem MOL file


 26 25  0  0  0  0  0  0  0  0999 V2000     
   20.6575   18.8943   19.3745 C   0  0  0  0  0  0  0  0  0  0  0  0
   20.7175   19.3626   18.3836 H   0  0  0  0  0  0  0  0  0  0  0  0
   21.6404   19.0019   19.8498 H   0  0  0  0  0  0  0  0  0  0  0  0
   20.4605   17.8243   19.2287 H   0  0  0  0  0  0  0  0  0  0  0  0
   19.5436   19.5546   20.2182 C   0  0  0  0  0  0  0  0  0  0  0  0
   18.6049   19.5293   19.6473 H   0  0  0  0  0  0  0  0  0  0  0  0
   19.7794   20.6165   20.3748 H   0  0  0  0  0  0  0  0  0  0  0  0
   19.3133   18.8635   21.5838 C   0  0  0  0  0  0  0  0  0  0  0  0
   18.4376   19.3219   22.0588 H   0  0  0  0  0  0  0  0  0  0  0  0
   19.0510   17.8094   21.4189 H   0  0  0  0  0  0  0  0  0  0  0  0
   20.5378   18.9494   22.5311 C   0  0  0  0  0  0  0  0  0  0  0  0
   20.8989   19.9848   22.6001 H   0  0  0  0  0  0  0  0  0  0  0  0
   21.3598   18.3696   22.0908 H   0  0  0  0  0  0  0  0  0  0  0  0
   20.2568   18.3874   23.9501 C   0  0  0  0  0  0  0  0  0  0  0  0
   19.4641   17.6285   23.9095 H   0  0  0  0  0  0  0  0  0  0  0  0
   21.1589   17.8590   24.2857 H   0  0  0  0  0  0  0  0  0  0  0  0
   19.9203   19.4570   25.0171 C   0  0  1  0  0  0  0  0  0  0  0  0
   20.7516   20.1674   25.0598 H   0  0  0  0  0  0  0  0  0  0  0  0
   18.6369   20.2407   24.6939 C   0  0  0  0  0  0  0  0  0  0  0  0
   17.7828   19.5660   24.5564 H   0  0  0  0  0  0  0  0  0  0  0  0
   18.7597   20.8387   23.7834 H   0  0  0  0  0  0  0  0  0  0  0  0
   18.3937   20.9366   25.5062 H   0  0  0  0  0  0  0  0  0  0  0  0
   19.8219   18.8411   26.3853 N   0  3  0  0  0  0  0  0  0  0  0  0
   20.6851   18.3544   26.6432 H   0  0  0  0  0  0  0  0  0  0  0  0
   19.6467   19.5501   27.1030 H   0  0  0  0  0  0  0  0  0  0  0  0
   19.0586   18.1611   26.4357 H   0  0  0  0  0  0  0  0  0  0  0  0
  1  2  1  0  0  0  0
  1  3  1  0  0  0  0
  1  4  1  0  0  0  0
  1  5  1  0  0  0  0
  5  6  1  0  0  0  0
  5  7  1  0  0  0  0
  5  8  1  0  0  0  0
  8  9  1  0  0  0  0
  8 10  1  0  0  0  0
  8 11  1  0  0  0  0
 11 12  1  0  0  0  0
 11 13  1  0  0  0  0
 11 14  1  0  0  0  0
 14 15  1  0  0  0  0
 14 16  1  0  0  0  0
 14 17  1  0  0  0  0
 17 18  1  0  0  0  0
 17 19  1  0  0  0  0
 19 20  1  0  0  0  0
 19 21  1  0  0  0  0
 19 22  1  0  0  0  0
 17 23  1  0  0  0  0
 23 24  1  0  0  0  0
 23 25  1  0  0  0  0
 23 26  1  0  0  0  0
M  END
> <VM2 Rank>
61

> <Conf_Id>
242

> <Probability>
0.02

> <Sum Probability>
99.79

> <Delta G>
4.005

> <G>
27.715

> <E>
-5.269

> <-TS>
32.984

> <U+W>
-26.731

> <U>
27.221

> <W>
-53.952

> <W(PB)>
-56.214

> <W(SA)>
2.261

> <Valence>
6.368

> <Coulomb>
19.698

> <VdW>
1.155

> <VdW6>
-8.532

> <VdW12>
9.688

> <Bond>
0.272

> <Angle>
1.847

> <Pdih>
4.248

> <Idih>
0.000

> <Tether>
0.000

$$$$
VeraChem MOL file


 26 25  0  0  0  0  0  0  0  0999 V2000     
   20.0274   18.5896   19.3315 C   0  0  0  0  0  0  0  0  0  0  0  0
   18.9352   18.5618   19.2257 H   0  0  0  0  0  0  0  0  0  0  0  0
   20.4564   18.7624   18.3360 H   0  0  0  0  0  0  0  0  0  0  0  0
   20.3660   17.6021   19.6681 H   0  0  0  0  0  0  0  0  0  0  0  0
   20.4633   19.7055   20.3083 C   0  0  0  0  0  0  0  0  0  0  0  0
   20.2151   20.6792   19.8631 H   0  0  0  0  0  0  0  0  0  0  0  0
   21.5560   19.6905   20.4243 H   0  0  0  0  0  0  0  0  0  0  0  0
   19.7871   19.6102   21.6975 C   0  0  0  0  0  0  0  0  0  0  0  0
   20.0488   20.5145   22.2619 H   0  0  0  0  0  0  0  0  0  0  0  0
   18.6953   19.6203   21.5751 H   0  0  0  0  0  0  0  0  0  0  0  0
   20.2134   18.3599   22.5068 C   0  0  0  0  0  0  0  0  0  0  0  0
   21.3026   18.3715   22.6505 H   0  0  0  0  0  0  0  0  0  0  0  0
   19.9888   17.4542   21.9290 H   0  0  0  0  0  0  0  0  0  0  0  0
   19.5154   18.2313   23.8847 C   0  0  0  0  0  0  0  0  0  0  0  0
   18.4302   18.1315   23.7485 H   0  0  0  0  0  0  0  0  0  0  0  0
   19.8444   17.2841   24.3324 H   0  0  0  0  0  0  0  0  0  0  0  0
   19.8346   19.3919   24.8583 C   0  0  1  0  0  0  0  0  0  0  0  0
   20.7302   19.9054   24.4952 H   0  0  0  0  0  0  0  0  0  0  0  0
   18.6784   20.4062   24.9290 C   0  0  0  0  0  0  0  0  0  0  0  0
   18.4321   20.8050   23.9386 H   0  0  0  0  0  0  0  0  0  0  0  0
   18.9473   21.2544   25.5705 H   0  0  0  0  0  0  0  0  0  0  0  0
   17.7724   19.9439   25.3406 H   0  0  0  0  0  0  0  0  0  0  0  0
   20.1685   18.8935   26.2377 N   0  3  0  0  0  0  0  0  0  0  0  0
   20.4095   19.6652   26.8662 H   0  0  0  0  0  0  0  0  0  0  0  0
   19.3795   18.3938   26.6566 H   0  0  0  0  0  0  0  0  0  0  0  0
   20.9670   18.2524   26.2235 H   0  0  0  0  0  0  0  0  0  0  0  0
  1  2  1  0  0  0  0
  1  3  1  0  0  0  0
  1  4  1  0  0  0  0
  1  5  1  0  0  0  0
  5  6  1  0  0  0  0
  5  7  1  0  0  0  0
  5  8  1  0  0  0  0
  8  9  1  0  0  0  0
  8 10  1  0  0  0  0
  8 11  1  0  0  0  0
 11 12  1  0  0  0  0
 11 13  1  0  0  0  0
 11 14  1  0  0  0  0
 14 15  1  0  0  0  0
 14 16  1  0  0  0  0
 14 17  1  0  0  0  0
 17 18  1  0  0  0  0
 17 19  1  0  0  0  0
 19 20  1  0  0  0  0
 19 21  1  0  0  0  0
 19 22  1  0  0  0  0
 17 23  1  0  0  0  0
 23 24  1  0  0  0  0
 23 25  1  0  0  0  0
 23 26  1  0  0  0  0
M  END
> <VM2 Rank>
62

> <Conf_Id>
474

> <Probability>
0.02

> <Sum Probability>
99.81

> <Delta G>
4.009

> <G>
27.719

> <E>
-5.019

> <-TS>
32.738

> <U+W>
-26.481

> <U>
27.496

> <W>
-53.975

> <W(PB)>
-56.265

> <W(SA)>
2.290

> <Valence>
6.471

> <Coulomb>
19.839

> <VdW>
1.185

> <VdW6>
-8.405

> <VdW12>
9.590

> <Bond>
0.248

> <Angle>
1.619

> <Pdih>
4.604

> <Idih>
0.000

> <Tether>
0.000

$$$$
VeraChem MOL file


 26 25  0  0  0  0  0  0  0  0999 V2000     
   20.4580   17.6857   20.2553 C   0  0  0  0  0  0  0  0  0  0  0  0
   19.5729   17.3961   19.6740 H   0  0  0  0  0  0  0  0  0  0  0  0
   21.3377   17.2591   19.7563 H   0  0  0  0  0  0  0  0  0  0  0  0
   20.3780   17.2202   21.2439 H   0  0  0  0  0  0  0  0  0  0  0  0
   20.5794   19.2250   20.3438 C   0  0  0  0  0  0  0  0  0  0  0  0
   20.6669   19.6169   19.3207 H   0  0  0  0  0  0  0  0  0  0  0  0
   21.5104   19.5067   20.8551 H   0  0  0  0  0  0  0  0  0  0  0  0
   19.3620   19.8979   21.0287 C   0  0  0  0  0  0  0  0  0  0  0  0
   19.1617   20.8473   20.5130 H   0  0  0  0  0  0  0  0  0  0  0  0
   18.4595   19.2880   20.8842 H   0  0  0  0  0  0  0  0  0  0  0  0
   19.5530   20.2170   22.5344 C   0  0  0  0  0  0  0  0  0  0  0  0
   18.6577   20.7513   22.8760 H   0  0  0  0  0  0  0  0  0  0  0  0
   20.3921   20.9160   22.6549 H   0  0  0  0  0  0  0  0  0  0  0  0
   19.7911   18.9709   23.4246 C   0  0  0  0  0  0  0  0  0  0  0  0
   18.9842   18.2423   23.2707 H   0  0  0  0  0  0  0  0  0  0  0  0
   20.7216   18.4870   23.1045 H   0  0  0  0  0  0  0  0  0  0  0  0
   19.9214   19.2950   24.9309 C   0  0  1  0  0  0  0  0  0  0  0  0
   20.6741   20.0804   25.0494 H   0  0  0  0  0  0  0  0  0  0  0  0
   18.5963   19.7916   25.5376 C   0  0  0  0  0  0  0  0  0  0  0  0
   17.7911   19.0626   25.3830 H   0  0  0  0  0  0  0  0  0  0  0  0
   18.2857   20.7456   25.0969 H   0  0  0  0  0  0  0  0  0  0  0  0
   18.7036   19.9550   26.6170 H   0  0  0  0  0  0  0  0  0  0  0  0
   20.4269   18.1050   25.6988 N   0  3  0  0  0  0  0  0  0  0  0  0
   19.7752   17.3179   25.6411 H   0  0  0  0  0  0  0  0  0  0  0  0
   21.3314   17.7826   25.3433 H   0  0  0  0  0  0  0  0  0  0  0  0
   20.5516   18.3258   26.6909 H   0  0  0  0  0  0  0  0  0  0  0  0
  1  2  1  0  0  0  0
  1  3  1  0  0  0  0
  1  4  1  0  0  0  0
  1  5  1  0  0  0  0
  5  6  1  0  0  0  0
  5  7  1  0  0  0  0
  5  8  1  0  0  0  0
  8  9  1  0  0  0  0
  8 10  1  0  0  0  0
  8 11  1  0  0  0  0
 11 12  1  0  0  0  0
 11 13  1  0  0  0  0
 11 14  1  0  0  0  0
 14 15  1  0  0  0  0
 14 16  1  0  0  0  0
 14 17  1  0  0  0  0
 17 18  1  0  0  0  0
 17 19  1  0  0  0  0
 19 20  1  0  0  0  0
 19 21  1  0  0  0  0
 19 22  1  0  0  0  0
 17 23  1  0  0  0  0
 23 24  1  0  0  0  0
 23 25  1  0  0  0  0
 23 26  1  0  0  0  0
M  END
> <VM2 Rank>
63

> <Conf_Id>
1318

> <Probability>
0.02

> <Sum Probability>
99.83

> <Delta G>
4.023

> <G>
27.733

> <E>
-5.117

> <-TS>
32.850

> <U+W>
-26.579

> <U>
27.653

> <W>
-54.232

> <W(PB)>
-56.523

> <W(SA)>
2.290

> <Valence>
6.436

> <Coulomb>
19.986

> <VdW>
1.232

> <VdW6>
-8.460

> <VdW12>
9.692

> <Bond>
0.276

> <Angle>
2.011

> <Pdih>
4.149

> <Idih>
0.000

> <Tether>
0.000

$$$$
VeraChem MOL file


 26 25  0  0  0  0  0  0  0  0999 V2000     
   19.6184   18.0422   19.5420 C   0  0  0  0  0  0  0  0  0  0  0  0
   19.3790   17.0682   19.9885 H   0  0  0  0  0  0  0  0  0  0  0  0
   18.6751   18.5630   19.3314 H   0  0  0  0  0  0  0  0  0  0  0  0
   20.1230   17.8589   18.5845 H   0  0  0  0  0  0  0  0  0  0  0  0
   20.5157   18.8774   20.4797 C   0  0  0  0  0  0  0  0  0  0  0  0
   20.7665   19.8291   19.9904 H   0  0  0  0  0  0  0  0  0  0  0  0
   21.4638   18.3467   20.6455 H   0  0  0  0  0  0  0  0  0  0  0  0
   19.8271   19.1518   21.8350 C   0  0  0  0  0  0  0  0  0  0  0  0
   18.8844   19.6896   21.6638 H   0  0  0  0  0  0  0  0  0  0  0  0
   19.5752   18.1912   22.2999 H   0  0  0  0  0  0  0  0  0  0  0  0
   20.7315   19.9747   22.7819 C   0  0  0  0  0  0  0  0  0  0  0  0
   21.1028   20.8521   22.2346 H   0  0  0  0  0  0  0  0  0  0  0  0
   21.6239   19.3894   23.0411 H   0  0  0  0  0  0  0  0  0  0  0  0
   20.0354   20.4872   24.0749 C   0  0  0  0  0  0  0  0  0  0  0  0
   20.7684   21.0969   24.6192 H   0  0  0  0  0  0  0  0  0  0  0  0
   19.2272   21.1807   23.8076 H   0  0  0  0  0  0  0  0  0  0  0  0
   19.4985   19.4235   25.0677 C   0  0  1  0  0  0  0  0  0  0  0  0
   19.4720   19.9008   26.0522 H   0  0  0  0  0  0  0  0  0  0  0  0
   18.0521   18.9958   24.7562 C   0  0  0  0  0  0  0  0  0  0  0  0
   17.6685   18.3438   25.5505 H   0  0  0  0  0  0  0  0  0  0  0  0
   17.9697   18.4503   23.8117 H   0  0  0  0  0  0  0  0  0  0  0  0
   17.3917   19.8700   24.7025 H   0  0  0  0  0  0  0  0  0  0  0  0
   20.4093   18.2355   25.2165 N   0  3  0  0  0  0  0  0  0  0  0  0
   20.5022   17.7293   24.3326 H   0  0  0  0  0  0  0  0  0  0  0  0
   21.3483   18.5198   25.5096 H   0  0  0  0  0  0  0  0  0  0  0  0
   20.0559   17.5771   25.9165 H   0  0  0  0  0  0  0  0  0  0  0  0
  1  2  1  0  0  0  0
  1  3  1  0  0  0  0
  1  4  1  0  0  0  0
  1  5  1  0  0  0  0
  5  6  1  0  0  0  0
  5  7  1  0  0  0  0
  5  8  1  0  0  0  0
  8  9  1  0  0  0  0
  8 10  1  0  0  0  0
  8 11  1  0  0  0  0
 11 12  1  0  0  0  0
 11 13  1  0  0  0  0
 11 14  1  0  0  0  0
 14 15  1  0  0  0  0
 14 16  1  0  0  0  0
 14 17  1  0  0  0  0
 17 18  1  0  0  0  0
 17 19  1  0  0  0  0
 19 20  1  0  0  0  0
 19 21  1  0  0  0  0
 19 22  1  0  0  0  0
 17 23  1  0  0  0  0
 23 24  1  0  0  0  0
 23 25  1  0  0  0  0
 23 26  1  0  0  0  0
M  END
> <VM2 Rank>
64

> <Conf_Id>
856

> <Probability>
0.02

> <Sum Probability>
99.85

> <Delta G>
4.050

> <G>
27.760

> <E>
-5.288

> <-TS>
33.048

> <U+W>
-26.750

> <U>
27.376

> <W>
-54.126

> <W(PB)>
-56.399

> <W(SA)>
2.273

> <Valence>
5.849

> <Coulomb>
20.574

> <VdW>
0.953

> <VdW6>
-8.734

> <VdW12>
9.687

> <Bond>
0.283

> <Angle>
2.366

> <Pdih>
3.200

> <Idih>
0.000

> <Tether>
0.000

$$$$
VeraChem MOL file


 26 25  0  0  0  0  0  0  0  0999 V2000     
   20.7589   18.6697   19.5613 C   0  0  0  0  0  0  0  0  0  0  0  0
   20.8140   17.9792   18.7097 H   0  0  0  0  0  0  0  0  0  0  0  0
   20.6976   19.6905   19.1622 H   0  0  0  0  0  0  0  0  0  0  0  0
   21.6963   18.5751   20.1232 H   0  0  0  0  0  0  0  0  0  0  0  0
   19.5325   18.3432   20.4435 C   0  0  0  0  0  0  0  0  0  0  0  0
   19.6331   17.3293   20.8551 H   0  0  0  0  0  0  0  0  0  0  0  0
   18.6345   18.3298   19.8100 H   0  0  0  0  0  0  0  0  0  0  0  0
   19.3134   19.3553   21.5938 C   0  0  0  0  0  0  0  0  0  0  0  0
   19.1869   20.3626   21.1735 H   0  0  0  0  0  0  0  0  0  0  0  0
   18.3657   19.1123   22.0887 H   0  0  0  0  0  0  0  0  0  0  0  0
   20.4661   19.3677   22.6306 C   0  0  0  0  0  0  0  0  0  0  0  0
   21.3759   19.7283   22.1329 H   0  0  0  0  0  0  0  0  0  0  0  0
   20.6881   18.3453   22.9624 H   0  0  0  0  0  0  0  0  0  0  0  0
   20.1895   20.2921   23.8493 C   0  0  0  0  0  0  0  0  0  0  0  0
   21.1342   20.7693   24.1417 H   0  0  0  0  0  0  0  0  0  0  0  0
   19.5301   21.1176   23.5502 H   0  0  0  0  0  0  0  0  0  0  0  0
   19.6100   19.6008   25.1086 C   0  0  1  0  0  0  0  0  0  0  0  0
   19.4648   20.3791   25.8642 H   0  0  0  0  0  0  0  0  0  0  0  0
   18.2437   18.9433   24.8549 C   0  0  0  0  0  0  0  0  0  0  0  0
   17.5427   19.6600   24.4097 H   0  0  0  0  0  0  0  0  0  0  0  0
   17.8062   18.5931   25.7978 H   0  0  0  0  0  0  0  0  0  0  0  0
   18.3315   18.0789   24.1861 H   0  0  0  0  0  0  0  0  0  0  0  0
   20.5738   18.6158   25.7121 N   0  3  0  0  0  0  0  0  0  0  0  0
   21.4703   19.0568   25.9365 H   0  0  0  0  0  0  0  0  0  0  0  0
   20.2051   18.2154   26.5794 H   0  0  0  0  0  0  0  0  0  0  0  0
   20.7637   17.8405   25.0727 H   0  0  0  0  0  0  0  0  0  0  0  0
  1  2  1  0  0  0  0
  1  3  1  0  0  0  0
  1  4  1  0  0  0  0
  1  5  1  0  0  0  0
  5  6  1  0  0  0  0
  5  7  1  0  0  0  0
  5  8  1  0  0  0  0
  8  9  1  0  0  0  0
  8 10  1  0  0  0  0
  8 11  1  0  0  0  0
 11 12  1  0  0  0  0
 11 13  1  0  0  0  0
 11 14  1  0  0  0  0
 14 15  1  0  0  0  0
 14 16  1  0  0  0  0
 14 17  1  0  0  0  0
 17 18  1  0  0  0  0
 17 19  1  0  0  0  0
 19 20  1  0  0  0  0
 19 21  1  0  0  0  0
 19 22  1  0  0  0  0
 17 23  1  0  0  0  0
 23 24  1  0  0  0  0
 23 25  1  0  0  0  0
 23 26  1  0  0  0  0
M  END
> <VM2 Rank>
65

> <Conf_Id>
428

> <Probability>
0.02

> <Sum Probability>
99.87

> <Delta G>
4.052

> <G>
27.762

> <E>
-5.292

> <-TS>
33.054

> <U+W>
-26.754

> <U>
27.509

> <W>
-54.263

> <W(PB)>
-56.496

> <W(SA)>
2.232

> <Valence>
6.375

> <Coulomb>
20.014

> <VdW>
1.120

> <VdW6>
-8.976

> <VdW12>
10.096

> <Bond>
0.304

> <Angle>
1.985

> <Pdih>
4.086

> <Idih>
0.000

> <Tether>
0.000

$$$$
VeraChem MOL file


 26 25  0  0  0  0  0  0  0  0999 V2000     
   20.6432   19.9242   19.9617 C   0  0  0  0  0  0  0  0  0  0  0  0
   20.6668   20.6499   20.7820 H   0  0  0  0  0  0  0  0  0  0  0  0
   21.5665   20.0484   19.3811 H   0  0  0  0  0  0  0  0  0  0  0  0
   19.8011   20.1828   19.3066 H   0  0  0  0  0  0  0  0  0  0  0  0
   20.5174   18.4701   20.4730 C   0  0  0  0  0  0  0  0  0  0  0  0
   21.4009   18.1954   21.0658 H   0  0  0  0  0  0  0  0  0  0  0  0
   20.5210   17.8031   19.5995 H   0  0  0  0  0  0  0  0  0  0  0  0
   19.2215   18.2136   21.2848 C   0  0  0  0  0  0  0  0  0  0  0  0
   18.4214   18.8866   20.9469 H   0  0  0  0  0  0  0  0  0  0  0  0
   18.8698   17.1984   21.0542 H   0  0  0  0  0  0  0  0  0  0  0  0
   19.3858   18.3110   22.8237 C   0  0  0  0  0  0  0  0  0  0  0  0
   20.1122   17.5568   23.1542 H   0  0  0  0  0  0  0  0  0  0  0  0
   18.4264   18.0346   23.2791 H   0  0  0  0  0  0  0  0  0  0  0  0
   19.8183   19.7135   23.3282 C   0  0  0  0  0  0  0  0  0  0  0  0
   20.8213   19.9398   22.9468 H   0  0  0  0  0  0  0  0  0  0  0  0
   19.1487   20.4759   22.9089 H   0  0  0  0  0  0  0  0  0  0  0  0
   19.8532   19.8709   24.8671 C   0  0  1  0  0  0  0  0  0  0  0  0
   20.2455   20.8699   25.0813 H   0  0  0  0  0  0  0  0  0  0  0  0
   18.4500   19.7824   25.4927 C   0  0  0  0  0  0  0  0  0  0  0  0
   18.0292   18.7735   25.4094 H   0  0  0  0  0  0  0  0  0  0  0  0
   17.7609   20.4840   25.0064 H   0  0  0  0  0  0  0  0  0  0  0  0
   18.4892   20.0405   26.5581 H   0  0  0  0  0  0  0  0  0  0  0  0
   20.7987   18.9023   25.5228 N   0  3  0  0  0  0  0  0  0  0  0  0
   20.4970   17.9353   25.3805 H   0  0  0  0  0  0  0  0  0  0  0  0
   21.7466   18.9887   25.1452 H   0  0  0  0  0  0  0  0  0  0  0  0
   20.8560   19.0608   26.5327 H   0  0  0  0  0  0  0  0  0  0  0  0
  1  2  1  0  0  0  0
  1  3  1  0  0  0  0
  1  4  1  0  0  0  0
  1  5  1  0  0  0  0
  5  6  1  0  0  0  0
  5  7  1  0  0  0  0
  5  8  1  0  0  0  0
  8  9  1  0  0  0  0
  8 10  1  0  0  0  0
  8 11  1  0  0  0  0
 11 12  1  0  0  0  0
 11 13  1  0  0  0  0
 11 14  1  0  0  0  0
 14 15  1  0  0  0  0
 14 16  1  0  0  0  0
 14 17  1  0  0  0  0
 17 18  1  0  0  0  0
 17 19  1  0  0  0  0
 19 20  1  0  0  0  0
 19 21  1  0  0  0  0
 19 22  1  0  0  0  0
 17 23  1  0  0  0  0
 23 24  1  0  0  0  0
 23 25  1  0  0  0  0
 23 26  1  0  0  0  0
M  END
> <VM2 Rank>
66

> <Conf_Id>
476

> <Probability>
0.02

> <Sum Probability>
99.89

> <Delta G>
4.063

> <G>
27.773

> <E>
-5.249

> <-TS>
33.022

> <U+W>
-26.711

> <U>
27.573

> <W>
-54.284

> <W(PB)>
-56.537

> <W(SA)>
2.253

> <Valence>
6.363

> <Coulomb>
20.026

> <VdW>
1.184

> <VdW6>
-8.939

> <VdW12>
10.123

> <Bond>
0.298

> <Angle>
2.018

> <Pdih>
4.047

> <Idih>
0.000

> <Tether>
0.000

$$$$
VeraChem MOL file


 26 25  0  0  0  0  0  0  0  0999 V2000     
   20.4398   19.0355   19.4806 C   0  0  0  0  0  0  0  0  0  0  0  0
   20.2417   18.6106   18.4881 H   0  0  0  0  0  0  0  0  0  0  0  0
   19.9817   20.0317   19.5082 H   0  0  0  0  0  0  0  0  0  0  0  0
   21.5263   19.1529   19.5840 H   0  0  0  0  0  0  0  0  0  0  0  0
   19.8724   18.1147   20.5850 C   0  0  0  0  0  0  0  0  0  0  0  0
   20.2640   17.0995   20.4299 H   0  0  0  0  0  0  0  0  0  0  0  0
   18.7807   18.0413   20.4825 H   0  0  0  0  0  0  0  0  0  0  0  0
   20.2357   18.5705   22.0192 C   0  0  0  0  0  0  0  0  0  0  0  0
   19.9250   17.7750   22.7063 H   0  0  0  0  0  0  0  0  0  0  0  0
   21.3269   18.6626   22.1086 H   0  0  0  0  0  0  0  0  0  0  0  0
   19.5574   19.9006   22.4336 C   0  0  0  0  0  0  0  0  0  0  0  0
   18.4660   19.7832   22.4041 H   0  0  0  0  0  0  0  0  0  0  0  0
   19.7924   20.6715   21.6891 H   0  0  0  0  0  0  0  0  0  0  0  0
   19.9978   20.4505   23.8200 C   0  0  0  0  0  0  0  0  0  0  0  0
   21.0718   20.6770   23.7954 H   0  0  0  0  0  0  0  0  0  0  0  0
   19.5007   21.4185   23.9661 H   0  0  0  0  0  0  0  0  0  0  0  0
   19.6955   19.5806   25.0671 C   0  0  1  0  0  0  0  0  0  0  0  0
   19.8543   20.2193   25.9415 H   0  0  0  0  0  0  0  0  0  0  0  0
   18.2342   19.1007   25.1110 C   0  0  0  0  0  0  0  0  0  0  0  0
   17.5442   19.9468   25.0031 H   0  0  0  0  0  0  0  0  0  0  0  0
   18.0180   18.6151   26.0704 H   0  0  0  0  0  0  0  0  0  0  0  0
   18.0207   18.3786   24.3139 H   0  0  0  0  0  0  0  0  0  0  0  0
   20.6552   18.4349   25.2375 N   0  3  0  0  0  0  0  0  0  0  0  0
   20.4692   17.9177   26.1015 H   0  0  0  0  0  0  0  0  0  0  0  0
   20.5878   17.7733   24.4618 H   0  0  0  0  0  0  0  0  0  0  0  0
   21.6245   18.7619   25.2809 H   0  0  0  0  0  0  0  0  0  0  0  0
  1  2  1  0  0  0  0
  1  3  1  0  0  0  0
  1  4  1  0  0  0  0
  1  5  1  0  0  0  0
  5  6  1  0  0  0  0
  5  7  1  0  0  0  0
  5  8  1  0  0  0  0
  8  9  1  0  0  0  0
  8 10  1  0  0  0  0
  8 11  1  0  0  0  0
 11 12  1  0  0  0  0
 11 13  1  0  0  0  0
 11 14  1  0  0  0  0
 14 15  1  0  0  0  0
 14 16  1  0  0  0  0
 14 17  1  0  0  0  0
 17 18  1  0  0  0  0
 17 19  1  0  0  0  0
 19 20  1  0  0  0  0
 19 21  1  0  0  0  0
 19 22  1  0  0  0  0
 17 23  1  0  0  0  0
 23 24  1  0  0  0  0
 23 25  1  0  0  0  0
 23 26  1  0  0  0  0
M  END
> <VM2 Rank>
67

> <Conf_Id>
545

> <Probability>
0.02

> <Sum Probability>
99.91

> <Delta G>
4.161

> <G>
27.870

> <E>
-5.300

> <-TS>
33.170

> <U+W>
-26.761

> <U>
27.482

> <W>
-54.244

> <W(PB)>
-56.495

> <W(SA)>
2.251

> <Valence>
5.284

> <Coulomb>
21.247

> <VdW>
0.951

> <VdW6>
-9.416

> <VdW12>
10.366

> <Bond>
0.323

> <Angle>
2.522

> <Pdih>
2.439

> <Idih>
0.000

> <Tether>
0.000

$$$$
VeraChem MOL file


 26 25  0  0  0  0  0  0  0  0999 V2000     
   21.5436   19.2830   21.0331 C   0  0  0  0  0  0  0  0  0  0  0  0
   22.2244   20.1148   20.8105 H   0  0  0  0  0  0  0  0  0  0  0  0
   21.7725   18.9302   22.0448 H   0  0  0  0  0  0  0  0  0  0  0  0
   21.7666   18.4703   20.3297 H   0  0  0  0  0  0  0  0  0  0  0  0
   20.0724   19.7383   20.9026 C   0  0  0  0  0  0  0  0  0  0  0  0
   19.9255   20.1570   19.8972 H   0  0  0  0  0  0  0  0  0  0  0  0
   19.8645   20.5620   21.5971 H   0  0  0  0  0  0  0  0  0  0  0  0
   19.0524   18.5910   21.1066 C   0  0  0  0  0  0  0  0  0  0  0  0
   18.0420   18.9829   20.9259 H   0  0  0  0  0  0  0  0  0  0  0  0
   19.2192   17.8329   20.3290 H   0  0  0  0  0  0  0  0  0  0  0  0
   19.0772   17.8892   22.4915 C   0  0  0  0  0  0  0  0  0  0  0  0
   20.0415   17.3919   22.6533 H   0  0  0  0  0  0  0  0  0  0  0  0
   18.3377   17.0774   22.4560 H   0  0  0  0  0  0  0  0  0  0  0  0
   18.7125   18.8071   23.6901 C   0  0  0  0  0  0  0  0  0  0  0  0
   17.9287   19.5099   23.3779 H   0  0  0  0  0  0  0  0  0  0  0  0
   18.2656   18.1932   24.4834 H   0  0  0  0  0  0  0  0  0  0  0  0
   19.9052   19.5845   24.2920 C   0  0  1  0  0  0  0  0  0  0  0  0
   20.4223   20.1155   23.4895 H   0  0  0  0  0  0  0  0  0  0  0  0
   19.4067   20.6232   25.3091 C   0  0  0  0  0  0  0  0  0  0  0  0
   18.8800   20.1420   26.1427 H   0  0  0  0  0  0  0  0  0  0  0  0
   18.7187   21.3340   24.8347 H   0  0  0  0  0  0  0  0  0  0  0  0
   20.2458   21.1976   25.7207 H   0  0  0  0  0  0  0  0  0  0  0  0
   20.9178   18.6717   24.9291 N   0  3  0  0  0  0  0  0  0  0  0  0
   21.7154   19.1971   25.2984 H   0  0  0  0  0  0  0  0  0  0  0  0
   20.5091   18.1496   25.7086 H   0  0  0  0  0  0  0  0  0  0  0  0
   21.2817   17.9893   24.2593 H   0  0  0  0  0  0  0  0  0  0  0  0
  1  2  1  0  0  0  0
  1  3  1  0  0  0  0
  1  4  1  0  0  0  0
  1  5  1  0  0  0  0
  5  6  1  0  0  0  0
  5  7  1  0  0  0  0
  5  8  1  0  0  0  0
  8  9  1  0  0  0  0
  8 10  1  0  0  0  0
  8 11  1  0  0  0  0
 11 12  1  0  0  0  0
 11 13  1  0  0  0  0
 11 14  1  0  0  0  0
 14 15  1  0  0  0  0
 14 16  1  0  0  0  0
 14 17  1  0  0  0  0
 17 18  1  0  0  0  0
 17 19  1  0  0  0  0
 19 20  1  0  0  0  0
 19 21  1  0  0  0  0
 19 22  1  0  0  0  0
 17 23  1  0  0  0  0
 23 24  1  0  0  0  0
 23 25  1  0  0  0  0
 23 26  1  0  0  0  0
M  END
> <VM2 Rank>
68

> <Conf_Id>
830

> <Probability>
0.01

> <Sum Probability>
99.92

> <Delta G>
4.247

> <G>
27.956

> <E>
-5.587

> <-TS>
33.543

> <U+W>
-27.049

> <U>
27.275

> <W>
-54.323

> <W(PB)>
-56.529

> <W(SA)>
2.205

> <Valence>
5.855

> <Coulomb>
21.052

> <VdW>
0.369

> <VdW6>
-9.999

> <VdW12>
10.368

> <Bond>
0.292

> <Angle>
2.257

> <Pdih>
3.306

> <Idih>
0.000

> <Tether>
0.000

$$$$
VeraChem MOL file


 26 25  0  0  0  0  0  0  0  0999 V2000     
   21.4563   19.0953   20.5657 C   0  0  0  0  0  0  0  0  0  0  0  0
   21.8087   18.8183   21.5668 H   0  0  0  0  0  0  0  0  0  0  0  0
   22.2061   18.7435   19.8454 H   0  0  0  0  0  0  0  0  0  0  0  0
   21.4147   20.1901   20.4991 H   0  0  0  0  0  0  0  0  0  0  0  0
   20.0793   18.4660   20.2614 C   0  0  0  0  0  0  0  0  0  0  0  0
   20.1406   17.3762   20.3896 H   0  0  0  0  0  0  0  0  0  0  0  0
   19.8415   18.6343   19.2018 H   0  0  0  0  0  0  0  0  0  0  0  0
   18.9170   19.0253   21.1212 C   0  0  0  0  0  0  0  0  0  0  0  0
   18.7806   20.0969   20.9209 H   0  0  0  0  0  0  0  0  0  0  0  0
   17.9915   18.5407   20.7804 H   0  0  0  0  0  0  0  0  0  0  0  0
   19.0611   18.7752   22.6451 C   0  0  0  0  0  0  0  0  0  0  0  0
   19.6432   17.8604   22.8161 H   0  0  0  0  0  0  0  0  0  0  0  0
   18.0603   18.5811   23.0528 H   0  0  0  0  0  0  0  0  0  0  0  0
   19.6811   19.9795   23.4065 C   0  0  0  0  0  0  0  0  0  0  0  0
   20.6312   20.2690   22.9440 H   0  0  0  0  0  0  0  0  0  0  0  0
   19.0216   20.8505   23.2969 H   0  0  0  0  0  0  0  0  0  0  0  0
   19.9316   19.7359   24.9134 C   0  0  1  0  0  0  0  0  0  0  0  0
   20.3739   20.6502   25.3213 H   0  0  0  0  0  0  0  0  0  0  0  0
   18.6262   19.4679   25.6827 C   0  0  0  0  0  0  0  0  0  0  0  0
   18.8172   19.4351   26.7623 H   0  0  0  0  0  0  0  0  0  0  0  0
   18.1741   18.5116   25.3937 H   0  0  0  0  0  0  0  0  0  0  0  0
   17.8946   20.2644   25.4986 H   0  0  0  0  0  0  0  0  0  0  0  0
   20.9355   18.6429   25.1580 N   0  3  0  0  0  0  0  0  0  0  0  0
   21.1340   18.5345   26.1566 H   0  0  0  0  0  0  0  0  0  0  0  0
   20.5952   17.7420   24.8133 H   0  0  0  0  0  0  0  0  0  0  0  0
   21.8245   18.8376   24.6890 H   0  0  0  0  0  0  0  0  0  0  0  0
  1  2  1  0  0  0  0
  1  3  1  0  0  0  0
  1  4  1  0  0  0  0
  1  5  1  0  0  0  0
  5  6  1  0  0  0  0
  5  7  1  0  0  0  0
  5  8  1  0  0  0  0
  8  9  1  0  0  0  0
  8 10  1  0  0  0  0
  8 11  1  0  0  0  0
 11 12  1  0  0  0  0
 11 13  1  0  0  0  0
 11 14  1  0  0  0  0
 14 15  1  0  0  0  0
 14 16  1  0  0  0  0
 14 17  1  0  0  0  0
 17 18  1  0  0  0  0
 17 19  1  0  0  0  0
 19 20  1  0  0  0  0
 19 21  1  0  0  0  0
 19 22  1  0  0  0  0
 17 23  1  0  0  0  0
 23 24  1  0  0  0  0
 23 25  1  0  0  0  0
 23 26  1  0  0  0  0
M  END
> <VM2 Rank>
69

> <Conf_Id>
98

> <Probability>
0.01

> <Sum Probability>
99.93

> <Delta G>
4.262

> <G>
27.972

> <E>
-5.114

> <-TS>
33.086

> <U+W>
-26.576

> <U>
27.751

> <W>
-54.327

> <W(PB)>
-56.572

> <W(SA)>
2.245

> <Valence>
6.249

> <Coulomb>
20.444

> <VdW>
1.057

> <VdW6>
-9.100

> <VdW12>
10.157

> <Bond>
0.302

> <Angle>
1.930

> <Pdih>
4.017

> <Idih>
0.000

> <Tether>
0.000

$$$$
VeraChem MOL file


 26 25  0  0  0  0  0  0  0  0999 V2000     
   21.5625   18.8569   21.1161 C   0  0  0  0  0  0  0  0  0  0  0  0
   21.9805   19.8540   21.3056 H   0  0  0  0  0  0  0  0  0  0  0  0
   21.5830   18.2930   22.0538 H   0  0  0  0  0  0  0  0  0  0  0  0
   22.2321   18.3445   20.4132 H   0  0  0  0  0  0  0  0  0  0  0  0
   20.1373   18.9548   20.5242 C   0  0  0  0  0  0  0  0  0  0  0  0
   19.7294   17.9504   20.3445 H   0  0  0  0  0  0  0  0  0  0  0  0
   20.2180   19.4283   19.5357 H   0  0  0  0  0  0  0  0  0  0  0  0
   19.1525   19.7907   21.3825 C   0  0  0  0  0  0  0  0  0  0  0  0
   19.6767   20.6297   21.8590 H   0  0  0  0  0  0  0  0  0  0  0  0
   18.4272   20.2542   20.6994 H   0  0  0  0  0  0  0  0  0  0  0  0
   18.3394   18.9811   22.4287 C   0  0  0  0  0  0  0  0  0  0  0  0
   17.7754   18.1936   21.9103 H   0  0  0  0  0  0  0  0  0  0  0  0
   17.5788   19.6408   22.8670 H   0  0  0  0  0  0  0  0  0  0  0  0
   19.1637   18.3323   23.5708 C   0  0  0  0  0  0  0  0  0  0  0  0
   18.4729   17.8533   24.2771 H   0  0  0  0  0  0  0  0  0  0  0  0
   19.7663   17.5178   23.1514 H   0  0  0  0  0  0  0  0  0  0  0  0
   20.0836   19.3064   24.3438 C   0  0  1  0  0  0  0  0  0  0  0  0
   20.7514   19.7918   23.6261 H   0  0  0  0  0  0  0  0  0  0  0  0
   19.2825   20.3973   25.0764 C   0  0  0  0  0  0  0  0  0  0  0  0
   18.5615   19.9573   25.7765 H   0  0  0  0  0  0  0  0  0  0  0  0
   18.7326   21.0293   24.3693 H   0  0  0  0  0  0  0  0  0  0  0  0
   19.9530   21.0530   25.6454 H   0  0  0  0  0  0  0  0  0  0  0  0
   20.9666   18.5684   25.3116 N   0  3  0  0  0  0  0  0  0  0  0  0
   21.5396   17.8635   24.8394 H   0  0  0  0  0  0  0  0  0  0  0  0
   21.6050   19.2057   25.7961 H   0  0  0  0  0  0  0  0  0  0  0  0
   20.4156   18.0872   26.0274 H   0  0  0  0  0  0  0  0  0  0  0  0
  1  2  1  0  0  0  0
  1  3  1  0  0  0  0
  1  4  1  0  0  0  0
  1  5  1  0  0  0  0
  5  6  1  0  0  0  0
  5  7  1  0  0  0  0
  5  8  1  0  0  0  0
  8  9  1  0  0  0  0
  8 10  1  0  0  0  0
  8 11  1  0  0  0  0
 11 12  1  0  0  0  0
 11 13  1  0  0  0  0
 11 14  1  0  0  0  0
 14 15  1  0  0  0  0
 14 16  1  0  0  0  0
 14 17  1  0  0  0  0
 17 18  1  0  0  0  0
 17 19  1  0  0  0  0
 19 20  1  0  0  0  0
 19 21  1  0  0  0  0
 19 22  1  0  0  0  0
 17 23  1  0  0  0  0
 23 24  1  0  0  0  0
 23 25  1  0  0  0  0
 23 26  1  0  0  0  0
M  END
> <VM2 Rank>
70

> <Conf_Id>
174

> <Probability>
0.01

> <Sum Probability>
99.94

> <Delta G>
4.473

> <G>
28.183

> <E>
-5.280

> <-TS>
33.463

> <U+W>
-26.742

> <U>
27.819

> <W>
-54.561

> <W(PB)>
-56.769

> <W(SA)>
2.208

> <Valence>
6.496

> <Coulomb>
20.856

> <VdW>
0.467

> <VdW6>
-10.243

> <VdW12>
10.710

> <Bond>
0.303

> <Angle>
2.526

> <Pdih>
3.667

> <Idih>
0.000

> <Tether>
0.000

$$$$
VeraChem MOL file


 26 25  0  0  0  0  0  0  0  0999 V2000     
   20.0172   20.2054   20.1609 C   0  0  0  0  0  0  0  0  0  0  0  0
   19.1350   20.6187   20.6637 H   0  0  0  0  0  0  0  0  0  0  0  0
   20.6289   21.0512   19.8214 H   0  0  0  0  0  0  0  0  0  0  0  0
   19.6792   19.6590   19.2708 H   0  0  0  0  0  0  0  0  0  0  0  0
   20.8369   19.2881   21.0972 C   0  0  0  0  0  0  0  0  0  0  0  0
   21.1657   19.8558   21.9747 H   0  0  0  0  0  0  0  0  0  0  0  0
   21.7560   18.9920   20.5724 H   0  0  0  0  0  0  0  0  0  0  0  0
   20.0797   18.0010   21.5158 C   0  0  0  0  0  0  0  0  0  0  0  0
   19.7621   17.4840   20.5997 H   0  0  0  0  0  0  0  0  0  0  0  0
   20.7770   17.3125   22.0126 H   0  0  0  0  0  0  0  0  0  0  0  0
   18.8326   18.2112   22.4184 C   0  0  0  0  0  0  0  0  0  0  0  0
   18.1434   17.3769   22.2285 H   0  0  0  0  0  0  0  0  0  0  0  0
   18.2764   19.1092   22.1256 H   0  0  0  0  0  0  0  0  0  0  0  0
   19.1272   18.2168   23.9434 C   0  0  0  0  0  0  0  0  0  0  0  0
   18.1728   18.2477   24.4857 H   0  0  0  0  0  0  0  0  0  0  0  0
   19.5912   17.2576   24.2083 H   0  0  0  0  0  0  0  0  0  0  0  0
   20.0295   19.3613   24.4571 C   0  0  1  0  0  0  0  0  0  0  0  0
   20.9735   19.3307   23.9072 H   0  0  0  0  0  0  0  0  0  0  0  0
   19.3797   20.7422   24.2566 C   0  0  0  0  0  0  0  0  0  0  0  0
   20.0272   21.5350   24.6509 H   0  0  0  0  0  0  0  0  0  0  0  0
   18.4136   20.8038   24.7728 H   0  0  0  0  0  0  0  0  0  0  0  0
   19.2134   20.9558   23.1951 H   0  0  0  0  0  0  0  0  0  0  0  0
   20.3851   19.1621   25.9044 N   0  3  0  0  0  0  0  0  0  0  0  0
   20.8563   18.2659   26.0576 H   0  0  0  0  0  0  0  0  0  0  0  0
   21.0135   19.8975   26.2402 H   0  0  0  0  0  0  0  0  0  0  0  0
   19.5527   19.1773   26.4998 H   0  0  0  0  0  0  0  0  0  0  0  0
  1  2  1  0  0  0  0
  1  3  1  0  0  0  0
  1  4  1  0  0  0  0
  1  5  1  0  0  0  0
  5  6  1  0  0  0  0
  5  7  1  0  0  0  0
  5  8  1  0  0  0  0
  8  9  1  0  0  0  0
  8 10  1  0  0  0  0
  8 11  1  0  0  0  0
 11 12  1  0  0  0  0
 11 13  1  0  0  0  0
 11 14  1  0  0  0  0
 14 15  1  0  0  0  0
 14 16  1  0  0  0  0
 14 17  1  0  0  0  0
 17 18  1  0  0  0  0
 17 19  1  0  0  0  0
 19 20  1  0  0  0  0
 19 21  1  0  0  0  0
 19 22  1  0  0  0  0
 17 23  1  0  0  0  0
 23 24  1  0  0  0  0
 23 25  1  0  0  0  0
 23 26  1  0  0  0  0
M  END
> <VM2 Rank>
71

> <Conf_Id>
241

> <Probability>
0.01

> <Sum Probability>
99.95

> <Delta G>
4.508

> <G>
28.217

> <E>
-5.379

> <-TS>
33.596

> <U+W>
-26.841

> <U>
27.574

> <W>
-54.415

> <W(PB)>
-56.626

> <W(SA)>
2.212

> <Valence>
6.650

> <Coulomb>
20.286

> <VdW>
0.638

> <VdW6>
-9.864

> <VdW12>
10.501

> <Bond>
0.322

> <Angle>
2.716

> <Pdih>
3.613

> <Idih>
0.000

> <Tether>
0.000

$$$$
VeraChem MOL file


 26 25  0  0  0  0  0  0  0  0999 V2000     
   20.7325   18.4119   19.8755 C   0  0  0  0  0  0  0  0  0  0  0  0
   20.7744   17.5060   19.2571 H   0  0  0  0  0  0  0  0  0  0  0  0
   20.8251   19.2789   19.2086 H   0  0  0  0  0  0  0  0  0  0  0  0
   21.6027   18.3955   20.5434 H   0  0  0  0  0  0  0  0  0  0  0  0
   19.4094   18.4625   20.6723 C   0  0  0  0  0  0  0  0  0  0  0  0
   19.3529   17.6010   21.3501 H   0  0  0  0  0  0  0  0  0  0  0  0
   18.5716   18.3430   19.9711 H   0  0  0  0  0  0  0  0  0  0  0  0
   19.2056   19.7845   21.4573 C   0  0  0  0  0  0  0  0  0  0  0  0
   19.1087   20.6047   20.7327 H   0  0  0  0  0  0  0  0  0  0  0  0
   18.2406   19.7375   21.9745 H   0  0  0  0  0  0  0  0  0  0  0  0
   20.3353   20.1551   22.4596 C   0  0  0  0  0  0  0  0  0  0  0  0
   20.1241   21.1409   22.8962 H   0  0  0  0  0  0  0  0  0  0  0  0
   21.2676   20.2894   21.8955 H   0  0  0  0  0  0  0  0  0  0  0  0
   20.5911   19.1316   23.6015 C   0  0  0  0  0  0  0  0  0  0  0  0
   20.3923   18.1078   23.2659 H   0  0  0  0  0  0  0  0  0  0  0  0
   21.6644   19.1595   23.8313 H   0  0  0  0  0  0  0  0  0  0  0  0
   19.8341   19.4138   24.9218 C   0  0  1  0  0  0  0  0  0  0  0  0
   20.1063   20.4173   25.2632 H   0  0  0  0  0  0  0  0  0  0  0  0
   18.3058   19.3609   24.7614 C   0  0  0  0  0  0  0  0  0  0  0  0
   17.9474   20.1993   24.1540 H   0  0  0  0  0  0  0  0  0  0  0  0
   17.8106   19.4389   25.7371 H   0  0  0  0  0  0  0  0  0  0  0  0
   17.9864   18.4230   24.2904 H   0  0  0  0  0  0  0  0  0  0  0  0
   20.2742   18.4676   26.0046 N   0  3  0  0  0  0  0  0  0  0  0  0
   21.2844   18.5196   26.1637 H   0  0  0  0  0  0  0  0  0  0  0  0
   19.8151   18.6788   26.8951 H   0  0  0  0  0  0  0  0  0  0  0  0
   20.0494   17.4977   25.7679 H   0  0  0  0  0  0  0  0  0  0  0  0
  1  2  1  0  0  0  0
  1  3  1  0  0  0  0
  1  4  1  0  0  0  0
  1  5  1  0  0  0  0
  5  6  1  0  0  0  0
  5  7  1  0  0  0  0
  5  8  1  0  0  0  0
  8  9  1  0  0  0  0
  8 10  1  0  0  0  0
  8 11  1  0  0  0  0
 11 12  1  0  0  0  0
 11 13  1  0  0  0  0
 11 14  1  0  0  0  0
 14 15  1  0  0  0  0
 14 16  1  0  0  0  0
 14 17  1  0  0  0  0
 17 18  1  0  0  0  0
 17 19  1  0  0  0  0
 19 20  1  0  0  0  0
 19 21  1  0  0  0  0
 19 22  1  0  0  0  0
 17 23  1  0  0  0  0
 23 24  1  0  0  0  0
 23 25  1  0  0  0  0
 23 26  1  0  0  0  0
M  END
> <VM2 Rank>
72

> <Conf_Id>
136

> <Probability>
0.01

> <Sum Probability>
99.96

> <Delta G>
4.615

> <G>
28.325

> <E>
-4.565

> <-TS>
32.890

> <U+W>
-26.026

> <U>
28.262

> <W>
-54.288

> <W(PB)>
-56.488

> <W(SA)>
2.200

> <Valence>
7.096

> <Coulomb>
19.990

> <VdW>
1.175

> <VdW6>
-9.404

> <VdW12>
10.580

> <Bond>
0.360

> <Angle>
2.785

> <Pdih>
3.951

> <Idih>
0.000

> <Tether>
0.000

$$$$
VeraChem MOL file


 26 25  0  0  0  0  0  0  0  0999 V2000     
   19.7577   18.2351   19.8788 C   0  0  0  0  0  0  0  0  0  0  0  0
   18.9434   17.8296   19.2644 H   0  0  0  0  0  0  0  0  0  0  0  0
   20.5369   18.6070   19.2009 H   0  0  0  0  0  0  0  0  0  0  0  0
   20.1758   17.4053   20.4620 H   0  0  0  0  0  0  0  0  0  0  0  0
   19.2337   19.3633   20.7956 C   0  0  0  0  0  0  0  0  0  0  0  0
   18.4715   18.9589   21.4738 H   0  0  0  0  0  0  0  0  0  0  0  0
   18.7201   20.1117   20.1762 H   0  0  0  0  0  0  0  0  0  0  0  0
   20.3543   20.0728   21.5988 C   0  0  0  0  0  0  0  0  0  0  0  0
   21.0559   20.5311   20.8882 H   0  0  0  0  0  0  0  0  0  0  0  0
   19.9265   20.9106   22.1637 H   0  0  0  0  0  0  0  0  0  0  0  0
   21.1582   19.1567   22.5582 C   0  0  0  0  0  0  0  0  0  0  0  0
   21.9421   19.7565   23.0408 H   0  0  0  0  0  0  0  0  0  0  0  0
   21.6939   18.4026   21.9666 H   0  0  0  0  0  0  0  0  0  0  0  0
   20.3358   18.4346   23.6590 C   0  0  0  0  0  0  0  0  0  0  0  0
   19.5542   17.8048   23.2155 H   0  0  0  0  0  0  0  0  0  0  0  0
   21.0210   17.7359   24.1569 H   0  0  0  0  0  0  0  0  0  0  0  0
   19.7378   19.3824   24.7282 C   0  0  1  0  0  0  0  0  0  0  0  0
   20.3356   20.2987   24.7470 H   0  0  0  0  0  0  0  0  0  0  0  0
   18.2738   19.7520   24.4274 C   0  0  0  0  0  0  0  0  0  0  0  0
   18.1760   20.2737   23.4705 H   0  0  0  0  0  0  0  0  0  0  0  0
   17.8781   20.4194   25.2028 H   0  0  0  0  0  0  0  0  0  0  0  0
   17.6384   18.8583   24.3943 H   0  0  0  0  0  0  0  0  0  0  0  0
   19.8367   18.7911   26.1081 N   0  3  0  0  0  0  0  0  0  0  0  0
   20.8069   18.5805   26.3592 H   0  0  0  0  0  0  0  0  0  0  0  0
   19.4719   19.4335   26.8171 H   0  0  0  0  0  0  0  0  0  0  0  0
   19.3033   17.9206   26.1814 H   0  0  0  0  0  0  0  0  0  0  0  0
  1  2  1  0  0  0  0
  1  3  1  0  0  0  0
  1  4  1  0  0  0  0
  1  5  1  0  0  0  0
  5  6  1  0  0  0  0
  5  7  1  0  0  0  0
  5  8  1  0  0  0  0
  8  9  1  0  0  0  0
  8 10  1  0  0  0  0
  8 11  1  0  0  0  0
 11 12  1  0  0  0  0
 11 13  1  0  0  0  0
 11 14  1  0  0  0  0
 14 15  1  0  0  0  0
 14 16  1  0  0  0  0
 14 17  1  0  0  0  0
 17 18  1  0  0  0  0
 17 19  1  0  0  0  0
 19 20  1  0  0  0  0
 19 21  1  0  0  0  0
 19 22  1  0  0  0  0
 17 23  1  0  0  0  0
 23 24  1  0  0  0  0
 23 25  1  0  0  0  0
 23 26  1  0  0  0  0
M  END
> <VM2 Rank>
73

> <Conf_Id>
1098

> <Probability>
0.01

> <Sum Probability>
99.97

> <Delta G>
4.619

> <G>
28.329

> <E>
-5.038

> <-TS>
33.367

> <U+W>
-26.500

> <U>
27.871

> <W>
-54.371

> <W(PB)>
-56.584

> <W(SA)>
2.213

> <Valence>
6.984

> <Coulomb>
20.043

> <VdW>
0.844

> <VdW6>
-9.755

> <VdW12>
10.599

> <Bond>
0.302

> <Angle>
2.441

> <Pdih>
4.240

> <Idih>
0.000

> <Tether>
0.000

$$$$
VeraChem MOL file


 26 25  0  0  0  0  0  0  0  0999 V2000     
   20.8187   17.9927   20.0805 C   0  0  0  0  0  0  0  0  0  0  0  0
   20.9440   17.7821   19.0106 H   0  0  0  0  0  0  0  0  0  0  0  0
   21.7566   18.4323   20.4422 H   0  0  0  0  0  0  0  0  0  0  0  0
   20.6658   17.0352   20.5951 H   0  0  0  0  0  0  0  0  0  0  0  0
   19.6218   18.9437   20.3077 C   0  0  0  0  0  0  0  0  0  0  0  0
   18.7302   18.5124   19.8315 H   0  0  0  0  0  0  0  0  0  0  0  0
   19.8085   19.9004   19.8001 H   0  0  0  0  0  0  0  0  0  0  0  0
   19.3147   19.1952   21.8035 C   0  0  0  0  0  0  0  0  0  0  0  0
   18.3997   19.7989   21.8762 H   0  0  0  0  0  0  0  0  0  0  0  0
   19.1003   18.2328   22.2836 H   0  0  0  0  0  0  0  0  0  0  0  0
   20.4630   19.9179   22.5496 C   0  0  0  0  0  0  0  0  0  0  0  0
   20.7899   20.7725   21.9413 H   0  0  0  0  0  0  0  0  0  0  0  0
   21.3359   19.2567   22.6249 H   0  0  0  0  0  0  0  0  0  0  0  0
   20.0900   20.4573   23.9598 C   0  0  0  0  0  0  0  0  0  0  0  0
   20.9655   20.9968   24.3440 H   0  0  0  0  0  0  0  0  0  0  0  0
   19.3025   21.2168   23.8676 H   0  0  0  0  0  0  0  0  0  0  0  0
   19.6847   19.4176   25.0369 C   0  0  1  0  0  0  0  0  0  0  0  0
   19.8902   19.8781   26.0082 H   0  0  0  0  0  0  0  0  0  0  0  0
   18.1783   19.0986   25.0198 C   0  0  0  0  0  0  0  0  0  0  0  0
   17.9130   18.4686   25.8777 H   0  0  0  0  0  0  0  0  0  0  0  0
   17.8722   18.5685   24.1133 H   0  0  0  0  0  0  0  0  0  0  0  0
   17.5852   20.0185   25.0930 H   0  0  0  0  0  0  0  0  0  0  0  0
   20.5168   18.1651   24.9961 N   0  3  0  0  0  0  0  0  0  0  0  0
   20.2614   17.5202   25.7493 H   0  0  0  0  0  0  0  0  0  0  0  0
   20.3947   17.6711   24.1087 H   0  0  0  0  0  0  0  0  0  0  0  0
   21.5136   18.3759   25.0976 H   0  0  0  0  0  0  0  0  0  0  0  0
  1  2  1  0  0  0  0
  1  3  1  0  0  0  0
  1  4  1  0  0  0  0
  1  5  1  0  0  0  0
  5  6  1  0  0  0  0
  5  7  1  0  0  0  0
  5  8  1  0  0  0  0
  8  9  1  0  0  0  0
  8 10  1  0  0  0  0
  8 11  1  0  0  0  0
 11 12  1  0  0  0  0
 11 13  1  0  0  0  0
 11 14  1  0  0  0  0
 14 15  1  0  0  0  0
 14 16  1  0  0  0  0
 14 17  1  0  0  0  0
 17 18  1  0  0  0  0
 17 19  1  0  0  0  0
 19 20  1  0  0  0  0
 19 21  1  0  0  0  0
 19 22  1  0  0  0  0
 17 23  1  0  0  0  0
 23 24  1  0  0  0  0
 23 25  1  0  0  0  0
 23 26  1  0  0  0  0
M  END
> <VM2 Rank>
74

> <Conf_Id>
506

> <Probability>
0.01

> <Sum Probability>
99.97

> <Delta G>
4.723

> <G>
28.433

> <E>
-4.751

> <-TS>
33.184

> <U+W>
-26.213

> <U>
27.935

> <W>
-54.148

> <W(PB)>
-56.369

> <W(SA)>
2.221

> <Valence>
6.278

> <Coulomb>
20.605

> <VdW>
1.052

> <VdW6>
-9.401

> <VdW12>
10.453

> <Bond>
0.315

> <Angle>
2.523

> <Pdih>
3.440

> <Idih>
0.000

> <Tether>
0.000

$$$$
VeraChem MOL file


 26 25  0  0  0  0  0  0  0  0999 V2000     
   19.6520   18.2678   19.9643 C   0  0  0  0  0  0  0  0  0  0  0  0
   18.6651   18.6284   20.2800 H   0  0  0  0  0  0  0  0  0  0  0  0
   20.0228   18.9304   19.1717 H   0  0  0  0  0  0  0  0  0  0  0  0
   19.5161   17.2686   19.5307 H   0  0  0  0  0  0  0  0  0  0  0  0
   20.6407   18.2135   21.1506 C   0  0  0  0  0  0  0  0  0  0  0  0
   21.5755   17.7471   20.8094 H   0  0  0  0  0  0  0  0  0  0  0  0
   20.2405   17.5525   21.9297 H   0  0  0  0  0  0  0  0  0  0  0  0
   20.9697   19.6107   21.7362 C   0  0  0  0  0  0  0  0  0  0  0  0
   21.7351   19.5136   22.5153 H   0  0  0  0  0  0  0  0  0  0  0  0
   21.4419   20.2146   20.9489 H   0  0  0  0  0  0  0  0  0  0  0  0
   19.7531   20.4007   22.2889 C   0  0  0  0  0  0  0  0  0  0  0  0
   19.0993   20.6703   21.4487 H   0  0  0  0  0  0  0  0  0  0  0  0
   20.1110   21.3568   22.6952 H   0  0  0  0  0  0  0  0  0  0  0  0
   18.8930   19.6891   23.3695 C   0  0  0  0  0  0  0  0  0  0  0  0
   18.0179   20.3273   23.5502 H   0  0  0  0  0  0  0  0  0  0  0  0
   18.4911   18.7424   22.9873 H   0  0  0  0  0  0  0  0  0  0  0  0
   19.6122   19.4597   24.7200 C   0  0  1  0  0  0  0  0  0  0  0  0
   20.1887   20.3588   24.9585 H   0  0  0  0  0  0  0  0  0  0  0  0
   18.5852   19.2351   25.8421 C   0  0  0  0  0  0  0  0  0  0  0  0
   17.9196   20.1015   25.9423 H   0  0  0  0  0  0  0  0  0  0  0  0
   19.0882   19.0914   26.8063 H   0  0  0  0  0  0  0  0  0  0  0  0
   17.9673   18.3504   25.6431 H   0  0  0  0  0  0  0  0  0  0  0  0
   20.5821   18.3115   24.6825 N   0  3  0  0  0  0  0  0  0  0  0  0
   20.0992   17.4236   24.5233 H   0  0  0  0  0  0  0  0  0  0  0  0
   21.2673   18.4297   23.9327 H   0  0  0  0  0  0  0  0  0  0  0  0
   21.0962   18.2271   25.5641 H   0  0  0  0  0  0  0  0  0  0  0  0
  1  2  1  0  0  0  0
  1  3  1  0  0  0  0
  1  4  1  0  0  0  0
  1  5  1  0  0  0  0
  5  6  1  0  0  0  0
  5  7  1  0  0  0  0
  5  8  1  0  0  0  0
  8  9  1  0  0  0  0
  8 10  1  0  0  0  0
  8 11  1  0  0  0  0
 11 12  1  0  0  0  0
 11 13  1  0  0  0  0
 11 14  1  0  0  0  0
 14 15  1  0  0  0  0
 14 16  1  0  0  0  0
 14 17  1  0  0  0  0
 17 18  1  0  0  0  0
 17 19  1  0  0  0  0
 19 20  1  0  0  0  0
 19 21  1  0  0  0  0
 19 22  1  0  0  0  0
 17 23  1  0  0  0  0
 23 24  1  0  0  0  0
 23 25  1  0  0  0  0
 23 26  1  0  0  0  0
M  END
> <VM2 Rank>
75

> <Conf_Id>
667

> <Probability>
0.01

> <Sum Probability>
99.98

> <Delta G>
4.740

> <G>
28.449

> <E>
-4.949

> <-TS>
33.399

> <U+W>
-26.411

> <U>
27.565

> <W>
-53.976

> <W(PB)>
-56.204

> <W(SA)>
2.228

> <Valence>
5.431

> <Coulomb>
21.472

> <VdW>
0.662

> <VdW6>
-9.933

> <VdW12>
10.595

> <Bond>
0.322

> <Angle>
2.461

> <Pdih>
2.648

> <Idih>
0.000

> <Tether>
0.000

$$$$
VeraChem MOL file


 26 25  0  0  0  0  0  0  0  0999 V2000     
   20.9564   17.7826   20.0836 C   0  0  0  0  0  0  0  0  0  0  0  0
   20.5618   16.8570   19.6448 H   0  0  0  0  0  0  0  0  0  0  0  0
   21.2849   18.4311   19.2609 H   0  0  0  0  0  0  0  0  0  0  0  0
   21.8368   17.5215   20.6851 H   0  0  0  0  0  0  0  0  0  0  0  0
   19.8807   18.4793   20.9433 C   0  0  0  0  0  0  0  0  0  0  0  0
   19.5444   17.7861   21.7244 H   0  0  0  0  0  0  0  0  0  0  0  0
   19.0027   18.6985   20.3198 H   0  0  0  0  0  0  0  0  0  0  0  0
   20.4125   19.7916   21.5670 C   0  0  0  0  0  0  0  0  0  0  0  0
   21.3082   19.5973   22.1692 H   0  0  0  0  0  0  0  0  0  0  0  0
   20.7464   20.4533   20.7556 H   0  0  0  0  0  0  0  0  0  0  0  0
   19.3564   20.5558   22.4058 C   0  0  0  0  0  0  0  0  0  0  0  0
   18.5399   20.8645   21.7385 H   0  0  0  0  0  0  0  0  0  0  0  0
   19.8083   21.4884   22.7714 H   0  0  0  0  0  0  0  0  0  0  0  0
   18.7405   19.7947   23.6124 C   0  0  0  0  0  0  0  0  0  0  0  0
   17.9819   20.4562   24.0518 H   0  0  0  0  0  0  0  0  0  0  0  0
   18.1924   18.9064   23.2741 H   0  0  0  0  0  0  0  0  0  0  0  0
   19.7526   19.4085   24.7171 C   0  0  1  0  0  0  0  0  0  0  0  0
   20.4573   20.2365   24.8415 H   0  0  0  0  0  0  0  0  0  0  0  0
   19.0288   19.1871   26.0556 C   0  0  0  0  0  0  0  0  0  0  0  0
   18.5017   20.0965   26.3702 H   0  0  0  0  0  0  0  0  0  0  0  0
   19.7441   18.9294   26.8463 H   0  0  0  0  0  0  0  0  0  0  0  0
   18.2947   18.3751   25.9802 H   0  0  0  0  0  0  0  0  0  0  0  0
   20.5601   18.1882   24.3691 N   0  3  0  0  0  0  0  0  0  0  0  0
   21.0251   18.2971   23.4642 H   0  0  0  0  0  0  0  0  0  0  0  0
   21.2817   18.0037   25.0720 H   0  0  0  0  0  0  0  0  0  0  0  0
   19.9676   17.3557   24.3133 H   0  0  0  0  0  0  0  0  0  0  0  0
  1  2  1  0  0  0  0
  1  3  1  0  0  0  0
  1  4  1  0  0  0  0
  1  5  1  0  0  0  0
  5  6  1  0  0  0  0
  5  7  1  0  0  0  0
  5  8  1  0  0  0  0
  8  9  1  0  0  0  0
  8 10  1  0  0  0  0
  8 11  1  0  0  0  0
 11 12  1  0  0  0  0
 11 13  1  0  0  0  0
 11 14  1  0  0  0  0
 14 15  1  0  0  0  0
 14 16  1  0  0  0  0
 14 17  1  0  0  0  0
 17 18  1  0  0  0  0
 17 19  1  0  0  0  0
 19 20  1  0  0  0  0
 19 21  1  0  0  0  0
 19 22  1  0  0  0  0
 17 23  1  0  0  0  0
 23 24  1  0  0  0  0
 23 25  1  0  0  0  0
 23 26  1  0  0  0  0
M  END
> <VM2 Rank>
76

> <Conf_Id>
425

> <Probability>
0.01

> <Sum Probability>
99.98

> <Delta G>
4.844

> <G>
28.553

> <E>
-4.669

> <-TS>
33.223

> <U+W>
-26.131

> <U>
27.025

> <W>
-53.156

> <W(PB)>
-55.402

> <W(SA)>
2.245

> <Valence>
5.027

> <Coulomb>
21.327

> <VdW>
0.671

> <VdW6>
-9.248

> <VdW12>
9.919

> <Bond>
0.272

> <Angle>
2.161

> <Pdih>
2.594

> <Idih>
0.000

> <Tether>
0.000

$$$$
VeraChem MOL file


 26 25  0  0  0  0  0  0  0  0999 V2000     
   20.6617   17.7452   20.0997 C   0  0  0  0  0  0  0  0  0  0  0  0
   20.4320   16.8243   20.6511 H   0  0  0  0  0  0  0  0  0  0  0  0
   19.9358   17.8440   19.2821 H   0  0  0  0  0  0  0  0  0  0  0  0
   21.6578   17.6305   19.6528 H   0  0  0  0  0  0  0  0  0  0  0  0
   20.6207   18.9762   21.0296 C   0  0  0  0  0  0  0  0  0  0  0  0
   20.8857   19.8749   20.4552 H   0  0  0  0  0  0  0  0  0  0  0  0
   21.3880   18.8633   21.8055 H   0  0  0  0  0  0  0  0  0  0  0  0
   19.2230   19.1627   21.6661 C   0  0  0  0  0  0  0  0  0  0  0  0
   18.4834   19.2668   20.8601 H   0  0  0  0  0  0  0  0  0  0  0  0
   18.9290   18.2616   22.2170 H   0  0  0  0  0  0  0  0  0  0  0  0
   19.1182   20.4101   22.5802 C   0  0  0  0  0  0  0  0  0  0  0  0
   18.0801   20.5112   22.9237 H   0  0  0  0  0  0  0  0  0  0  0  0
   19.3070   21.3031   21.9686 H   0  0  0  0  0  0  0  0  0  0  0  0
   20.0745   20.4519   23.8084 C   0  0  0  0  0  0  0  0  0  0  0  0
   21.1161   20.5075   23.4681 H   0  0  0  0  0  0  0  0  0  0  0  0
   19.8963   21.4003   24.3322 H   0  0  0  0  0  0  0  0  0  0  0  0
   19.9404   19.3146   24.8537 C   0  0  1  0  0  0  0  0  0  0  0  0
   20.5161   19.6222   25.7321 H   0  0  0  0  0  0  0  0  0  0  0  0
   18.4862   19.1058   25.3113 C   0  0  0  0  0  0  0  0  0  0  0  0
   18.4453   18.4010   26.1507 H   0  0  0  0  0  0  0  0  0  0  0  0
   17.8612   18.7036   24.5052 H   0  0  0  0  0  0  0  0  0  0  0  0
   18.0457   20.0518   25.6495 H   0  0  0  0  0  0  0  0  0  0  0  0
   20.5632   18.0215   24.4051 N   0  3  0  0  0  0  0  0  0  0  0  0
   21.5628   18.1347   24.2153 H   0  0  0  0  0  0  0  0  0  0  0  0
   20.4684   17.2936   25.1191 H   0  0  0  0  0  0  0  0  0  0  0  0
   20.1237   17.6781   23.5481 H   0  0  0  0  0  0  0  0  0  0  0  0
  1  2  1  0  0  0  0
  1  3  1  0  0  0  0
  1  4  1  0  0  0  0
  1  5  1  0  0  0  0
  5  6  1  0  0  0  0
  5  7  1  0  0  0  0
  5  8  1  0  0  0  0
  8  9  1  0  0  0  0
  8 10  1  0  0  0  0
  8 11  1  0  0  0  0
 11 12  1  0  0  0  0
 11 13  1  0  0  0  0
 11 14  1  0  0  0  0
 14 15  1  0  0  0  0
 14 16  1  0  0  0  0
 14 17  1  0  0  0  0
 17 18  1  0  0  0  0
 17 19  1  0  0  0  0
 19 20  1  0  0  0  0
 19 21  1  0  0  0  0
 19 22  1  0  0  0  0
 17 23  1  0  0  0  0
 23 24  1  0  0  0  0
 23 25  1  0  0  0  0
 23 26  1  0  0  0  0
M  END
> <VM2 Rank>
77

> <Conf_Id>
834

> <Probability>
0.00

> <Sum Probability>
99.99

> <Delta G>
4.904

> <G>
28.613

> <E>
-5.029

> <-TS>
33.642

> <U+W>
-26.491

> <U>
27.281

> <W>
-53.771

> <W(PB)>
-55.968

> <W(SA)>
2.197

> <Valence>
5.160

> <Coulomb>
21.563

> <VdW>
0.558

> <VdW6>
-10.215

> <VdW12>
10.772

> <Bond>
0.332

> <Angle>
2.658

> <Pdih>
2.170

> <Idih>
0.000

> <Tether>
0.000

$$$$
VeraChem MOL file


 26 25  0  0  0  0  0  0  0  0999 V2000     
   20.1994   19.0779   19.4450 C   0  0  0  0  0  0  0  0  0  0  0  0
   20.8984   19.9022   19.6320 H   0  0  0  0  0  0  0  0  0  0  0  0
   20.5185   18.5804   18.5201 H   0  0  0  0  0  0  0  0  0  0  0  0
   19.2032   19.5042   19.2695 H   0  0  0  0  0  0  0  0  0  0  0  0
   20.1747   18.0717   20.6182 C   0  0  0  0  0  0  0  0  0  0  0  0
   21.1879   17.6856   20.7976 H   0  0  0  0  0  0  0  0  0  0  0  0
   19.5644   17.2063   20.3243 H   0  0  0  0  0  0  0  0  0  0  0  0
   19.5970   18.6609   21.9281 C   0  0  0  0  0  0  0  0  0  0  0  0
   18.5945   19.0676   21.7368 H   0  0  0  0  0  0  0  0  0  0  0  0
   19.4736   17.8332   22.6360 H   0  0  0  0  0  0  0  0  0  0  0  0
   20.4961   19.7501   22.5642 C   0  0  0  0  0  0  0  0  0  0  0  0
   20.7074   20.5234   21.8151 H   0  0  0  0  0  0  0  0  0  0  0  0
   21.4710   19.3171   22.8247 H   0  0  0  0  0  0  0  0  0  0  0  0
   19.8831   20.4668   23.8013 C   0  0  0  0  0  0  0  0  0  0  0  0
   20.5948   21.2425   24.1127 H   0  0  0  0  0  0  0  0  0  0  0  0
   18.9789   21.0117   23.4997 H   0  0  0  0  0  0  0  0  0  0  0  0
   19.5752   19.6023   25.0517 C   0  0  1  0  0  0  0  0  0  0  0  0
   19.6163   20.2752   25.9138 H   0  0  0  0  0  0  0  0  0  0  0  0
   18.1515   19.0149   25.0312 C   0  0  0  0  0  0  0  0  0  0  0  0
   18.0094   18.2850   24.2291 H   0  0  0  0  0  0  0  0  0  0  0  0
   17.4062   19.8094   24.9025 H   0  0  0  0  0  0  0  0  0  0  0  0
   17.9331   18.5119   25.9812 H   0  0  0  0  0  0  0  0  0  0  0  0
   20.6109   18.5434   25.3143 N   0  3  0  0  0  0  0  0  0  0  0  0
   20.6520   17.8693   24.5461 H   0  0  0  0  0  0  0  0  0  0  0  0
   21.5443   18.9519   25.4163 H   0  0  0  0  0  0  0  0  0  0  0  0
   20.4079   18.0244   26.1733 H   0  0  0  0  0  0  0  0  0  0  0  0
  1  2  1  0  0  0  0
  1  3  1  0  0  0  0
  1  4  1  0  0  0  0
  1  5  1  0  0  0  0
  5  6  1  0  0  0  0
  5  7  1  0  0  0  0
  5  8  1  0  0  0  0
  8  9  1  0  0  0  0
  8 10  1  0  0  0  0
  8 11  1  0  0  0  0
 11 12  1  0  0  0  0
 11 13  1  0  0  0  0
 11 14  1  0  0  0  0
 14 15  1  0  0  0  0
 14 16  1  0  0  0  0
 14 17  1  0  0  0  0
 17 18  1  0  0  0  0
 17 19  1  0  0  0  0
 19 20  1  0  0  0  0
 19 21  1  0  0  0  0
 19 22  1  0  0  0  0
 17 23  1  0  0  0  0
 23 24  1  0  0  0  0
 23 25  1  0  0  0  0
 23 26  1  0  0  0  0
M  END
> <VM2 Rank>
78

> <Conf_Id>
751

> <Probability>
0.00

> <Sum Probability>
99.99

> <Delta G>
4.932

> <G>
28.642

> <E>
-4.460

> <-TS>
33.102

> <U+W>
-25.922

> <U>
28.238

> <W>
-54.160

> <W(PB)>
-56.416

> <W(SA)>
2.256

> <Valence>
6.520

> <Coulomb>
20.564

> <VdW>
1.154

> <VdW6>
-9.254

> <VdW12>
10.408

> <Bond>
0.327

> <Angle>
2.699

> <Pdih>
3.494

> <Idih>
0.000

> <Tether>
0.000

$$$$
VeraChem MOL file


 26 25  0  0  0  0  0  0  0  0999 V2000     
   20.7936   19.1846   19.9616 C   0  0  0  0  0  0  0  0  0  0  0  0
   20.0157   18.9741   19.2163 H   0  0  0  0  0  0  0  0  0  0  0  0
   20.7233   20.2427   20.2429 H   0  0  0  0  0  0  0  0  0  0  0  0
   21.7689   19.0344   19.4809 H   0  0  0  0  0  0  0  0  0  0  0  0
   20.6486   18.2612   21.1921 C   0  0  0  0  0  0  0  0  0  0  0  0
   21.4288   18.5047   21.9239 H   0  0  0  0  0  0  0  0  0  0  0  0
   20.8393   17.2251   20.8794 H   0  0  0  0  0  0  0  0  0  0  0  0
   19.2450   18.3297   21.8469 C   0  0  0  0  0  0  0  0  0  0  0  0
   18.4994   18.0135   21.1044 H   0  0  0  0  0  0  0  0  0  0  0  0
   19.1778   17.5887   22.6524 H   0  0  0  0  0  0  0  0  0  0  0  0
   18.8345   19.7266   22.3843 C   0  0  0  0  0  0  0  0  0  0  0  0
   17.8195   19.6622   22.7978 H   0  0  0  0  0  0  0  0  0  0  0  0
   18.7472   20.4177   21.5356 H   0  0  0  0  0  0  0  0  0  0  0  0
   19.7842   20.3671   23.4387 C   0  0  0  0  0  0  0  0  0  0  0  0
   20.7737   20.5347   22.9952 H   0  0  0  0  0  0  0  0  0  0  0  0
   19.3989   21.3705   23.6623 H   0  0  0  0  0  0  0  0  0  0  0  0
   19.9494   19.6255   24.7904 C   0  0  1  0  0  0  0  0  0  0  0  0
   20.4684   20.3121   25.4663 H   0  0  0  0  0  0  0  0  0  0  0  0
   18.5982   19.2795   25.4400 C   0  0  0  0  0  0  0  0  0  0  0  0
   18.7479   18.8966   26.4568 H   0  0  0  0  0  0  0  0  0  0  0  0
   18.0593   18.5135   24.8696 H   0  0  0  0  0  0  0  0  0  0  0  0
   17.9609   20.1697   25.5101 H   0  0  0  0  0  0  0  0  0  0  0  0
   20.8345   18.4138   24.7000 N   0  3  0  0  0  0  0  0  0  0  0  0
   21.7709   18.6593   24.3671 H   0  0  0  0  0  0  0  0  0  0  0  0
   20.9431   17.9619   25.6124 H   0  0  0  0  0  0  0  0  0  0  0  0
   20.4476   17.7223   24.0542 H   0  0  0  0  0  0  0  0  0  0  0  0
  1  2  1  0  0  0  0
  1  3  1  0  0  0  0
  1  4  1  0  0  0  0
  1  5  1  0  0  0  0
  5  6  1  0  0  0  0
  5  7  1  0  0  0  0
  5  8  1  0  0  0  0
  8  9  1  0  0  0  0
  8 10  1  0  0  0  0
  8 11  1  0  0  0  0
 11 12  1  0  0  0  0
 11 13  1  0  0  0  0
 11 14  1  0  0  0  0
 14 15  1  0  0  0  0
 14 16  1  0  0  0  0
 14 17  1  0  0  0  0
 17 18  1  0  0  0  0
 17 19  1  0  0  0  0
 19 20  1  0  0  0  0
 19 21  1  0  0  0  0
 19 22  1  0  0  0  0
 17 23  1  0  0  0  0
 23 24  1  0  0  0  0
 23 25  1  0  0  0  0
 23 26  1  0  0  0  0
M  END
> <VM2 Rank>
79

> <Conf_Id>
160

> <Probability>
0.00

> <Sum Probability>
99.99

> <Delta G>
5.060

> <G>
28.770

> <E>
-5.031

> <-TS>
33.801

> <U+W>
-26.493

> <U>
27.883

> <W>
-54.375

> <W(PB)>
-56.572

> <W(SA)>
2.197

> <Valence>
5.604

> <Coulomb>
21.671

> <VdW>
0.608

> <VdW6>
-10.842

> <VdW12>
11.450

> <Bond>
0.377

> <Angle>
2.942

> <Pdih>
2.285

> <Idih>
0.000

> <Tether>
0.000

$$$$
VeraChem MOL file


 26 25  0  0  0  0  0  0  0  0999 V2000     
   19.8368   19.4877   19.8365 C   0  0  0  0  0  0  0  0  0  0  0  0
   19.0586   19.7668   19.1145 H   0  0  0  0  0  0  0  0  0  0  0  0
   20.2737   20.4153   20.2266 H   0  0  0  0  0  0  0  0  0  0  0  0
   20.6184   18.9408   19.2934 H   0  0  0  0  0  0  0  0  0  0  0  0
   19.2393   18.6234   20.9696 C   0  0  0  0  0  0  0  0  0  0  0  0
   18.7165   17.7666   20.5222 H   0  0  0  0  0  0  0  0  0  0  0  0
   18.4726   19.1986   21.5038 H   0  0  0  0  0  0  0  0  0  0  0  0
   20.3045   18.0890   21.9609 C   0  0  0  0  0  0  0  0  0  0  0  0
   19.8279   17.4187   22.6857 H   0  0  0  0  0  0  0  0  0  0  0  0
   21.0094   17.4552   21.4054 H   0  0  0  0  0  0  0  0  0  0  0  0
   21.1153   19.1791   22.7095 C   0  0  0  0  0  0  0  0  0  0  0  0
   21.7226   19.7247   21.9751 H   0  0  0  0  0  0  0  0  0  0  0  0
   21.8464   18.6889   23.3657 H   0  0  0  0  0  0  0  0  0  0  0  0
   20.2964   20.2207   23.5281 C   0  0  0  0  0  0  0  0  0  0  0  0
   21.0097   20.9692   23.8970 H   0  0  0  0  0  0  0  0  0  0  0  0
   19.6219   20.7781   22.8661 H   0  0  0  0  0  0  0  0  0  0  0  0
   19.5122   19.7035   24.7629 C   0  0  1  0  0  0  0  0  0  0  0  0
   19.3687   20.5655   25.4219 H   0  0  0  0  0  0  0  0  0  0  0  0
   18.1045   19.1893   24.4128 C   0  0  0  0  0  0  0  0  0  0  0  0
   17.5365   18.9844   25.3285 H   0  0  0  0  0  0  0  0  0  0  0  0
   18.1318   18.2648   23.8288 H   0  0  0  0  0  0  0  0  0  0  0  0
   17.5455   19.9408   23.8418 H   0  0  0  0  0  0  0  0  0  0  0  0
   20.2790   18.6953   25.5738 N   0  3  0  0  0  0  0  0  0  0  0  0
   20.4614   17.8482   25.0302 H   0  0  0  0  0  0  0  0  0  0  0  0
   21.1829   19.0688   25.8767 H   0  0  0  0  0  0  0  0  0  0  0  0
   19.7635   18.4197   26.4143 H   0  0  0  0  0  0  0  0  0  0  0  0
  1  2  1  0  0  0  0
  1  3  1  0  0  0  0
  1  4  1  0  0  0  0
  1  5  1  0  0  0  0
  5  6  1  0  0  0  0
  5  7  1  0  0  0  0
  5  8  1  0  0  0  0
  8  9  1  0  0  0  0
  8 10  1  0  0  0  0
  8 11  1  0  0  0  0
 11 12  1  0  0  0  0
 11 13  1  0  0  0  0
 11 14  1  0  0  0  0
 14 15  1  0  0  0  0
 14 16  1  0  0  0  0
 14 17  1  0  0  0  0
 17 18  1  0  0  0  0
 17 19  1  0  0  0  0
 19 20  1  0  0  0  0
 19 21  1  0  0  0  0
 19 22  1  0  0  0  0
 17 23  1  0  0  0  0
 23 24  1  0  0  0  0
 23 25  1  0  0  0  0
 23 26  1  0  0  0  0
M  END
> <VM2 Rank>
80

> <Conf_Id>
220

> <Probability>
0.00

> <Sum Probability>
100.00

> <Delta G>
5.265

> <G>
28.975

> <E>
-4.848

> <-TS>
33.822

> <U+W>
-26.309

> <U>
28.161

> <W>
-54.471

> <W(PB)>
-56.648

> <W(SA)>
2.177

> <Valence>
6.892

> <Coulomb>
20.537

> <VdW>
0.732

> <VdW6>
-10.681

> <VdW12>
11.413

> <Bond>
0.380

> <Angle>
3.328

> <Pdih>
3.184

> <Idih>
0.000

> <Tether>
0.000

$$$$
VeraChem MOL file


 26 25  0  0  0  0  0  0  0  0999 V2000     
   20.2276   20.1768   19.8145 C   0  0  0  0  0  0  0  0  0  0  0  0
   20.0293   19.5230   18.9552 H   0  0  0  0  0  0  0  0  0  0  0  0
   19.3394   20.7998   19.9823 H   0  0  0  0  0  0  0  0  0  0  0  0
   21.0595   20.8413   19.5470 H   0  0  0  0  0  0  0  0  0  0  0  0
   20.5719   19.3517   21.0723 C   0  0  0  0  0  0  0  0  0  0  0  0
   20.8077   20.0371   21.8943 H   0  0  0  0  0  0  0  0  0  0  0  0
   21.4829   18.7669   20.8830 H   0  0  0  0  0  0  0  0  0  0  0  0
   19.4161   18.3982   21.4611 C   0  0  0  0  0  0  0  0  0  0  0  0
   18.4791   18.9557   21.5927 H   0  0  0  0  0  0  0  0  0  0  0  0
   19.2425   17.7176   20.6160 H   0  0  0  0  0  0  0  0  0  0  0  0
   19.7097   17.5420   22.7197 C   0  0  0  0  0  0  0  0  0  0  0  0
   20.7786   17.2921   22.7673 H   0  0  0  0  0  0  0  0  0  0  0  0
   19.1891   16.5816   22.6005 H   0  0  0  0  0  0  0  0  0  0  0  0
   19.2449   18.1529   24.0692 C   0  0  0  0  0  0  0  0  0  0  0  0
   18.1608   18.3274   24.0490 H   0  0  0  0  0  0  0  0  0  0  0  0
   19.4014   17.3862   24.8395 H   0  0  0  0  0  0  0  0  0  0  0  0
   19.9904   19.4416   24.4905 C   0  0  1  0  0  0  0  0  0  0  0  0
   20.9330   19.4880   23.9376 H   0  0  0  0  0  0  0  0  0  0  0  0
   19.1630   20.7025   24.1793 C   0  0  0  0  0  0  0  0  0  0  0  0
   18.2359   20.7209   24.7656 H   0  0  0  0  0  0  0  0  0  0  0  0
   18.8905   20.7543   23.1195 H   0  0  0  0  0  0  0  0  0  0  0  0
   19.7337   21.6080   24.4193 H   0  0  0  0  0  0  0  0  0  0  0  0
   20.3645   19.4223   25.9475 N   0  3  0  0  0  0  0  0  0  0  0  0
   20.9552   18.6171   26.1744 H   0  0  0  0  0  0  0  0  0  0  0  0
   20.8837   20.2644   26.2116 H   0  0  0  0  0  0  0  0  0  0  0  0
   19.5357   19.3748   26.5462 H   0  0  0  0  0  0  0  0  0  0  0  0
  1  2  1  0  0  0  0
  1  3  1  0  0  0  0
  1  4  1  0  0  0  0
  1  5  1  0  0  0  0
  5  6  1  0  0  0  0
  5  7  1  0  0  0  0
  5  8  1  0  0  0  0
  8  9  1  0  0  0  0
  8 10  1  0  0  0  0
  8 11  1  0  0  0  0
 11 12  1  0  0  0  0
 11 13  1  0  0  0  0
 11 14  1  0  0  0  0
 14 15  1  0  0  0  0
 14 16  1  0  0  0  0
 14 17  1  0  0  0  0
 17 18  1  0  0  0  0
 17 19  1  0  0  0  0
 19 20  1  0  0  0  0
 19 21  1  0  0  0  0
 19 22  1  0  0  0  0
 17 23  1  0  0  0  0
 23 24  1  0  0  0  0
 23 25  1  0  0  0  0
 23 26  1  0  0  0  0
M  END
> <VM2 Rank>
81

> <Conf_Id>
861

> <Probability>
0.00

> <Sum Probability>
100.00

> <Delta G>
5.957

> <G>
29.667

> <E>
-3.530

> <-TS>
33.196

> <U+W>
-24.991

> <U>
29.319

> <W>
-54.311

> <W(PB)>
-56.565

> <W(SA)>
2.254

> <Valence>
8.263

> <Coulomb>
20.281

> <VdW>
0.775

> <VdW6>
-9.226

> <VdW12>
10.001

> <Bond>
0.262

> <Angle>
2.116

> <Pdih>
5.886

> <Idih>
0.000

> <Tether>
0.000

$$$$
VeraChem MOL file


 26 25  0  0  0  0  0  0  0  0999 V2000     
   20.0039   20.4644   20.8048 C   0  0  0  0  0  0  0  0  0  0  0  0
   19.3928   20.3995   19.8952 H   0  0  0  0  0  0  0  0  0  0  0  0
   19.3335   20.6960   21.6394 H   0  0  0  0  0  0  0  0  0  0  0  0
   20.6936   21.3096   20.6824 H   0  0  0  0  0  0  0  0  0  0  0  0
   20.7888   19.1512   21.0319 C   0  0  0  0  0  0  0  0  0  0  0  0
   21.5008   19.2598   21.8609 H   0  0  0  0  0  0  0  0  0  0  0  0
   21.4009   18.9668   20.1378 H   0  0  0  0  0  0  0  0  0  0  0  0
   19.8694   17.9254   21.2619 C   0  0  0  0  0  0  0  0  0  0  0  0
   18.9047   18.0763   20.7581 H   0  0  0  0  0  0  0  0  0  0  0  0
   20.3277   17.0617   20.7603 H   0  0  0  0  0  0  0  0  0  0  0  0
   19.6371   17.5273   22.7445 C   0  0  0  0  0  0  0  0  0  0  0  0
   20.5917   17.2512   23.2101 H   0  0  0  0  0  0  0  0  0  0  0  0
   19.0394   16.6053   22.7426 H   0  0  0  0  0  0  0  0  0  0  0  0
   18.8846   18.5734   23.6101 C   0  0  0  0  0  0  0  0  0  0  0  0
   18.0862   19.0287   23.0094 H   0  0  0  0  0  0  0  0  0  0  0  0
   18.3789   18.0506   24.4328 H   0  0  0  0  0  0  0  0  0  0  0  0
   19.7839   19.6748   24.2175 C   0  0  1  0  0  0  0  0  0  0  0  0
   20.3470   20.1527   23.4126 H   0  0  0  0  0  0  0  0  0  0  0  0
   18.9227   20.7489   24.9008 C   0  0  0  0  0  0  0  0  0  0  0  0
   18.3384   20.3236   25.7264 H   0  0  0  0  0  0  0  0  0  0  0  0
   18.2244   21.2019   24.1861 H   0  0  0  0  0  0  0  0  0  0  0  0
   19.5516   21.5516   25.3051 H   0  0  0  0  0  0  0  0  0  0  0  0
   20.7976   19.1226   25.1826 N   0  3  0  0  0  0  0  0  0  0  0  0
   21.3956   19.8623   25.5615 H   0  0  0  0  0  0  0  0  0  0  0  0
   20.3444   18.6600   25.9750 H   0  0  0  0  0  0  0  0  0  0  0  0
   21.4079   18.4355   24.7328 H   0  0  0  0  0  0  0  0  0  0  0  0
  1  2  1  0  0  0  0
  1  3  1  0  0  0  0
  1  4  1  0  0  0  0
  1  5  1  0  0  0  0
  5  6  1  0  0  0  0
  5  7  1  0  0  0  0
  5  8  1  0  0  0  0
  8  9  1  0  0  0  0
  8 10  1  0  0  0  0
  8 11  1  0  0  0  0
 11 12  1  0  0  0  0
 11 13  1  0  0  0  0
 11 14  1  0  0  0  0
 14 15  1  0  0  0  0
 14 16  1  0  0  0  0
 14 17  1  0  0  0  0
 17 18  1  0  0  0  0
 17 19  1  0  0  0  0
 19 20  1  0  0  0  0
 19 21  1  0  0  0  0
 19 22  1  0  0  0  0
 17 23  1  0  0  0  0
 23 24  1  0  0  0  0
 23 25  1  0  0  0  0
 23 26  1  0  0  0  0
M  END
> <VM2 Rank>
82

> <Conf_Id>
693

> <Probability>
0.00

> <Sum Probability>
100.00

> <Delta G>
5.961

> <G>
29.671

> <E>
-3.805

> <-TS>
33.475

> <U+W>
-25.266

> <U>
29.018

> <W>
-54.285

> <W(PB)>
-56.492

> <W(SA)>
2.207

> <Valence>
7.756

> <Coulomb>
20.779

> <VdW>
0.484

> <VdW6>
-10.173

> <VdW12>
10.657

> <Bond>
0.300

> <Angle>
2.386

> <Pdih>
5.069

> <Idih>
0.000

> <Tether>
0.000

$$$$
VeraChem MOL file


 26 25  0  0  0  0  0  0  0  0999 V2000     
   20.1678   19.9958   20.0630 C   0  0  0  0  0  0  0  0  0  0  0  0
   21.0487   20.3166   20.6330 H   0  0  0  0  0  0  0  0  0  0  0  0
   20.3721   20.1927   19.0027 H   0  0  0  0  0  0  0  0  0  0  0  0
   19.3139   20.6176   20.3611 H   0  0  0  0  0  0  0  0  0  0  0  0
   19.8691   18.4969   20.2860 C   0  0  0  0  0  0  0  0  0  0  0  0
   20.7493   17.9031   20.0026 H   0  0  0  0  0  0  0  0  0  0  0  0
   19.0640   18.1924   19.6026 H   0  0  0  0  0  0  0  0  0  0  0  0
   19.4476   18.1427   21.7349 C   0  0  0  0  0  0  0  0  0  0  0  0
   18.5191   18.6691   21.9884 H   0  0  0  0  0  0  0  0  0  0  0  0
   19.1986   17.0728   21.7561 H   0  0  0  0  0  0  0  0  0  0  0  0
   20.5434   18.4061   22.8035 C   0  0  0  0  0  0  0  0  0  0  0  0
   21.5303   18.2927   22.3342 H   0  0  0  0  0  0  0  0  0  0  0  0
   20.4978   17.6184   23.5663 H   0  0  0  0  0  0  0  0  0  0  0  0
   20.4599   19.8017   23.4876 C   0  0  0  0  0  0  0  0  0  0  0  0
   21.4814   20.1487   23.6909 H   0  0  0  0  0  0  0  0  0  0  0  0
   20.0341   20.5396   22.7975 H   0  0  0  0  0  0  0  0  0  0  0  0
   19.6740   19.8518   24.8214 C   0  0  1  0  0  0  0  0  0  0  0  0
   19.7000   20.8882   25.1721 H   0  0  0  0  0  0  0  0  0  0  0  0
   18.1971   19.4573   24.6552 C   0  0  0  0  0  0  0  0  0  0  0  0
   18.0910   18.4019   24.3771 H   0  0  0  0  0  0  0  0  0  0  0  0
   17.7153   20.0703   23.8836 H   0  0  0  0  0  0  0  0  0  0  0  0
   17.6499   19.6141   25.5927 H   0  0  0  0  0  0  0  0  0  0  0  0
   20.3291   19.0358   25.9024 N   0  3  0  0  0  0  0  0  0  0  0  0
   20.3395   18.0412   25.6642 H   0  0  0  0  0  0  0  0  0  0  0  0
   21.2989   19.3259   26.0565 H   0  0  0  0  0  0  0  0  0  0  0  0
   19.8361   19.1325   26.7945 H   0  0  0  0  0  0  0  0  0  0  0  0
  1  2  1  0  0  0  0
  1  3  1  0  0  0  0
  1  4  1  0  0  0  0
  1  5  1  0  0  0  0
  5  6  1  0  0  0  0
  5  7  1  0  0  0  0
  5  8  1  0  0  0  0
  8  9  1  0  0  0  0
  8 10  1  0  0  0  0
  8 11  1  0  0  0  0
 11 12  1  0  0  0  0
 11 13  1  0  0  0  0
 11 14  1  0  0  0  0
 14 15  1  0  0  0  0
 14 16  1  0  0  0  0
 14 17  1  0  0  0  0
 17 18  1  0  0  0  0
 17 19  1  0  0  0  0
 19 20  1  0  0  0  0
 19 21  1  0  0  0  0
 19 22  1  0  0  0  0
 17 23  1  0  0  0  0
 23 24  1  0  0  0  0
 23 25  1  0  0  0  0
 23 26  1  0  0  0  0
M  END
> <VM2 Rank>
83

> <Conf_Id>
1064

> <Probability>
0.00

> <Sum Probability>
100.00

> <Delta G>
6.345

> <G>
30.055

> <E>
-3.333

> <-TS>
33.388

> <U+W>
-24.795

> <U>
29.609

> <W>
-54.404

> <W(PB)>
-56.599

> <W(SA)>
2.195

> <Valence>
8.401

> <Coulomb>
20.135

> <VdW>
1.073

> <VdW6>
-9.966

> <VdW12>
11.039

> <Bond>
0.358

> <Angle>
2.261

> <Pdih>
5.782

> <Idih>
0.000

> <Tether>
0.000

$$$$
VeraChem MOL file


 26 25  0  0  0  0  0  0  0  0999 V2000     
   21.5063   18.5801   21.1446 C   0  0  0  0  0  0  0  0  0  0  0  0
   21.4561   17.8378   20.3373 H   0  0  0  0  0  0  0  0  0  0  0  0
   22.5075   19.0296   21.1215 H   0  0  0  0  0  0  0  0  0  0  0  0
   21.3987   18.0450   22.0942 H   0  0  0  0  0  0  0  0  0  0  0  0
   20.4188   19.6640   20.9595 C   0  0  0  0  0  0  0  0  0  0  0  0
   20.5574   20.1141   19.9665 H   0  0  0  0  0  0  0  0  0  0  0  0
   20.5566   20.4832   21.6779 H   0  0  0  0  0  0  0  0  0  0  0  0
   18.9794   19.0984   21.0503 C   0  0  0  0  0  0  0  0  0  0  0  0
   18.3680   19.6099   20.2940 H   0  0  0  0  0  0  0  0  0  0  0  0
   18.9698   18.0378   20.7633 H   0  0  0  0  0  0  0  0  0  0  0  0
   18.2704   19.2842   22.4190 C   0  0  0  0  0  0  0  0  0  0  0  0
   17.2420   18.9154   22.3023 H   0  0  0  0  0  0  0  0  0  0  0  0
   18.1666   20.3529   22.6422 H   0  0  0  0  0  0  0  0  0  0  0  0
   18.9062   18.5240   23.6150 C   0  0  0  0  0  0  0  0  0  0  0  0
   18.1319   18.3572   24.3756 H   0  0  0  0  0  0  0  0  0  0  0  0
   19.2078   17.5249   23.2746 H   0  0  0  0  0  0  0  0  0  0  0  0
   20.1077   19.2261   24.2937 C   0  0  1  0  0  0  0  0  0  0  0  0
   20.8413   19.4884   23.5282 H   0  0  0  0  0  0  0  0  0  0  0  0
   19.6913   20.5148   25.0259 C   0  0  0  0  0  0  0  0  0  0  0  0
   18.9139   20.3135   25.7734 H   0  0  0  0  0  0  0  0  0  0  0  0
   19.3096   21.2685   24.3284 H   0  0  0  0  0  0  0  0  0  0  0  0
   20.5509   20.9595   25.5423 H   0  0  0  0  0  0  0  0  0  0  0  0
   20.8079   18.2964   25.2461 N   0  3  0  0  0  0  0  0  0  0  0  0
   21.1325   17.4468   24.7759 H   0  0  0  0  0  0  0  0  0  0  0  0
   21.6264   18.7421   25.6702 H   0  0  0  0  0  0  0  0  0  0  0  0
   20.1892   18.0080   26.0087 H   0  0  0  0  0  0  0  0  0  0  0  0
  1  2  1  0  0  0  0
  1  3  1  0  0  0  0
  1  4  1  0  0  0  0
  1  5  1  0  0  0  0
  5  6  1  0  0  0  0
  5  7  1  0  0  0  0
  5  8  1  0  0  0  0
  8  9  1  0  0  0  0
  8 10  1  0  0  0  0
  8 11  1  0  0  0  0
 11 12  1  0  0  0  0
 11 13  1  0  0  0  0
 11 14  1  0  0  0  0
 14 15  1  0  0  0  0
 14 16  1  0  0  0  0
 14 17  1  0  0  0  0
 17 18  1  0  0  0  0
 17 19  1  0  0  0  0
 19 20  1  0  0  0  0
 19 21  1  0  0  0  0
 19 22  1  0  0  0  0
 17 23  1  0  0  0  0
 23 24  1  0  0  0  0
 23 25  1  0  0  0  0
 23 26  1  0  0  0  0
M  END
> <VM2 Rank>
84

> <Conf_Id>
70

> <Probability>
0.00

> <Sum Probability>
100.00

> <Delta G>
6.573

> <G>
30.283

> <E>
-3.100

> <-TS>
33.382

> <U+W>
-24.561

> <U>
29.944

> <W>
-54.506

> <W(PB)>
-56.701

> <W(SA)>
2.195

> <Valence>
8.447

> <Coulomb>
20.858

> <VdW>
0.639

> <VdW6>
-10.246

> <VdW12>
10.886

> <Bond>
0.318

> <Angle>
2.793

> <Pdih>
5.337

> <Idih>
0.000

> <Tether>
0.000

$$$$
VeraChem MOL file


 26 25  0  0  0  0  0  0  0  0999 V2000     
   21.4425   18.0967   20.3360 C   0  0  0  0  0  0  0  0  0  0  0  0
   20.9371   17.8849   19.3847 H   0  0  0  0  0  0  0  0  0  0  0  0
   22.4842   18.3605   20.1113 H   0  0  0  0  0  0  0  0  0  0  0  0
   21.4497   17.1741   20.9307 H   0  0  0  0  0  0  0  0  0  0  0  0
   20.7409   19.2451   21.0912 C   0  0  0  0  0  0  0  0  0  0  0  0
   20.7836   20.1578   20.4803 H   0  0  0  0  0  0  0  0  0  0  0  0
   21.2960   19.4720   22.0093 H   0  0  0  0  0  0  0  0  0  0  0  0
   19.2614   18.9078   21.3988 C   0  0  0  0  0  0  0  0  0  0  0  0
   18.7220   18.8609   20.4424 H   0  0  0  0  0  0  0  0  0  0  0  0
   19.1634   17.9069   21.8395 H   0  0  0  0  0  0  0  0  0  0  0  0
   18.5717   19.9626   22.3013 C   0  0  0  0  0  0  0  0  0  0  0  0
   17.5366   20.0811   21.9520 H   0  0  0  0  0  0  0  0  0  0  0  0
   19.0415   20.9460   22.1610 H   0  0  0  0  0  0  0  0  0  0  0  0
   18.5119   19.6160   23.8145 C   0  0  0  0  0  0  0  0  0  0  0  0
   17.9350   20.4122   24.3037 H   0  0  0  0  0  0  0  0  0  0  0  0
   17.9335   18.6949   23.9654 H   0  0  0  0  0  0  0  0  0  0  0  0
   19.8814   19.4931   24.5227 C   0  0  1  0  0  0  0  0  0  0  0  0
   20.5390   20.2806   24.1423 H   0  0  0  0  0  0  0  0  0  0  0  0
   19.7213   19.6901   26.0392 C   0  0  0  0  0  0  0  0  0  0  0  0
   20.6921   19.6191   26.5450 H   0  0  0  0  0  0  0  0  0  0  0  0
   19.0549   18.9321   26.4697 H   0  0  0  0  0  0  0  0  0  0  0  0
   19.3035   20.6796   26.2629 H   0  0  0  0  0  0  0  0  0  0  0  0
   20.5570   18.1767   24.2504 N   0  3  0  0  0  0  0  0  0  0  0  0
   20.0081   17.3946   24.6173 H   0  0  0  0  0  0  0  0  0  0  0  0
   20.6767   18.0285   23.2438 H   0  0  0  0  0  0  0  0  0  0  0  0
   21.4826   18.1332   24.6864 H   0  0  0  0  0  0  0  0  0  0  0  0
  1  2  1  0  0  0  0
  1  3  1  0  0  0  0
  1  4  1  0  0  0  0
  1  5  1  0  0  0  0
  5  6  1  0  0  0  0
  5  7  1  0  0  0  0
  5  8  1  0  0  0  0
  8  9  1  0  0  0  0
  8 10  1  0  0  0  0
  8 11  1  0  0  0  0
 11 12  1  0  0  0  0
 11 13  1  0  0  0  0
 11 14  1  0  0  0  0
 14 15  1  0  0  0  0
 14 16  1  0  0  0  0
 14 17  1  0  0  0  0
 17 18  1  0  0  0  0
 17 19  1  0  0  0  0
 19 20  1  0  0  0  0
 19 21  1  0  0  0  0
 19 22  1  0  0  0  0
 17 23  1  0  0  0  0
 23 24  1  0  0  0  0
 23 25  1  0  0  0  0
 23 26  1  0  0  0  0
M  END
> <VM2 Rank>
85

> <Conf_Id>
1070

> <Probability>
0.00

> <Sum Probability>
100.00

> <Delta G>
7.072

> <G>
30.781

> <E>
-2.480

> <-TS>
33.261

> <U+W>
-23.941

> <U>
28.934

> <W>
-52.876

> <W(PB)>
-55.146

> <W(SA)>
2.271

> <Valence>
7.029

> <Coulomb>
21.124

> <VdW>
0.781

> <VdW6>
-9.550

> <VdW12>
10.332

> <Bond>
0.264

> <Angle>
2.108

> <Pdih>
4.657

> <Idih>
0.000

> <Tether>
0.000

$$$$
VeraChem MOL file


 26 25  0  0  0  0  0  0  0  0999 V2000     
   19.4756   17.6704   20.6352 C   0  0  0  0  0  0  0  0  0  0  0  0
   18.4276   17.8158   20.3425 H   0  0  0  0  0  0  0  0  0  0  0  0
   19.8981   16.8930   19.9855 H   0  0  0  0  0  0  0  0  0  0  0  0
   19.4895   17.2896   21.6626 H   0  0  0  0  0  0  0  0  0  0  0  0
   20.2752   18.9864   20.4955 C   0  0  0  0  0  0  0  0  0  0  0  0
   20.2346   19.3005   19.4430 H   0  0  0  0  0  0  0  0  0  0  0  0
   21.3374   18.8099   20.7152 H   0  0  0  0  0  0  0  0  0  0  0  0
   19.7193   20.1332   21.3794 C   0  0  0  0  0  0  0  0  0  0  0  0
   19.6844   21.0449   20.7671 H   0  0  0  0  0  0  0  0  0  0  0  0
   18.6765   19.9318   21.6491 H   0  0  0  0  0  0  0  0  0  0  0  0
   20.5770   20.4537   22.6351 C   0  0  0  0  0  0  0  0  0  0  0  0
   20.1787   21.3488   23.1324 H   0  0  0  0  0  0  0  0  0  0  0  0
   21.5805   20.7368   22.2881 H   0  0  0  0  0  0  0  0  0  0  0  0
   20.7297   19.3106   23.6763 C   0  0  0  0  0  0  0  0  0  0  0  0
   20.7769   18.3348   23.1817 H   0  0  0  0  0  0  0  0  0  0  0  0
   21.7091   19.4374   24.1562 H   0  0  0  0  0  0  0  0  0  0  0  0
   19.6722   19.2931   24.8070 C   0  0  1  0  0  0  0  0  0  0  0  0
   19.7172   20.2539   25.3288 H   0  0  0  0  0  0  0  0  0  0  0  0
   18.2362   19.0972   24.2937 C   0  0  0  0  0  0  0  0  0  0  0  0
   18.1605   18.2187   23.6416 H   0  0  0  0  0  0  0  0  0  0  0  0
   17.8965   19.9785   23.7389 H   0  0  0  0  0  0  0  0  0  0  0  0
   17.5408   18.9609   25.1310 H   0  0  0  0  0  0  0  0  0  0  0  0
   20.0027   18.2434   25.8319 N   0  3  0  0  0  0  0  0  0  0  0  0
   20.9373   18.3823   26.2266 H   0  0  0  0  0  0  0  0  0  0  0  0
   19.3384   18.2594   26.6109 H   0  0  0  0  0  0  0  0  0  0  0  0
   19.9759   17.3037   25.4273 H   0  0  0  0  0  0  0  0  0  0  0  0
  1  2  1  0  0  0  0
  1  3  1  0  0  0  0
  1  4  1  0  0  0  0
  1  5  1  0  0  0  0
  5  6  1  0  0  0  0
  5  7  1  0  0  0  0
  5  8  1  0  0  0  0
  8  9  1  0  0  0  0
  8 10  1  0  0  0  0
  8 11  1  0  0  0  0
 11 12  1  0  0  0  0
 11 13  1  0  0  0  0
 11 14  1  0  0  0  0
 14 15  1  0  0  0  0
 14 16  1  0  0  0  0
 14 17  1  0  0  0  0
 17 18  1  0  0  0  0
 17 19  1  0  0  0  0
 19 20  1  0  0  0  0
 19 21  1  0  0  0  0
 19 22  1  0  0  0  0
 17 23  1  0  0  0  0
 23 24  1  0  0  0  0
 23 25  1  0  0  0  0
 23 26  1  0  0  0  0
M  END
> <VM2 Rank>
86

> <Conf_Id>
239

> <Probability>
0.00

> <Sum Probability>
100.00

> <Delta G>
7.228

> <G>
30.938

> <E>
-2.278

> <-TS>
33.216

> <U+W>
-23.740

> <U>
30.750

> <W>
-54.489

> <W(PB)>
-56.702

> <W(SA)>
2.212

> <Valence>
9.482

> <Coulomb>
20.298

> <VdW>
0.970

> <VdW6>
-9.658

> <VdW12>
10.628

> <Bond>
0.353

> <Angle>
2.952

> <Pdih>
6.177

> <Idih>
0.000

> <Tether>
0.000

$$$$
VeraChem MOL file


 26 25  0  0  0  0  0  0  0  0999 V2000     
   20.9179   19.5749   19.9554 C   0  0  0  0  0  0  0  0  0  0  0  0
   20.5579   18.9706   19.1127 H   0  0  0  0  0  0  0  0  0  0  0  0
   20.2474   20.4355   20.0687 H   0  0  0  0  0  0  0  0  0  0  0  0
   21.9105   19.9610   19.6894 H   0  0  0  0  0  0  0  0  0  0  0  0
   20.9936   18.7338   21.2501 C   0  0  0  0  0  0  0  0  0  0  0  0
   21.3812   19.3613   22.0619 H   0  0  0  0  0  0  0  0  0  0  0  0
   21.7271   17.9292   21.0997 H   0  0  0  0  0  0  0  0  0  0  0  0
   19.6308   18.1029   21.6376 C   0  0  0  0  0  0  0  0  0  0  0  0
   19.2055   17.6315   20.7407 H   0  0  0  0  0  0  0  0  0  0  0  0
   19.7789   17.2791   22.3482 H   0  0  0  0  0  0  0  0  0  0  0  0
   18.5977   19.1113   22.2079 C   0  0  0  0  0  0  0  0  0  0  0  0
   17.6055   18.8240   21.8332 H   0  0  0  0  0  0  0  0  0  0  0  0
   18.7781   20.1178   21.8092 H   0  0  0  0  0  0  0  0  0  0  0  0
   18.5052   19.1751   23.7569 C   0  0  0  0  0  0  0  0  0  0  0  0
   17.6803   19.8579   24.0008 H   0  0  0  0  0  0  0  0  0  0  0  0
   18.2086   18.1966   24.1572 H   0  0  0  0  0  0  0  0  0  0  0  0
   19.7830   19.6689   24.4744 C   0  0  1  0  0  0  0  0  0  0  0  0
   20.2243   20.4739   23.8789 H   0  0  0  0  0  0  0  0  0  0  0  0
   19.4370   20.2308   25.8633 C   0  0  0  0  0  0  0  0  0  0  0  0
   20.3387   20.5953   26.3708 H   0  0  0  0  0  0  0  0  0  0  0  0
   18.9737   19.4643   26.4973 H   0  0  0  0  0  0  0  0  0  0  0  0
   18.7400   21.0741   25.7813 H   0  0  0  0  0  0  0  0  0  0  0  0
   20.8228   18.5903   24.6083 N   0  3  0  0  0  0  0  0  0  0  0  0
   21.6814   18.9482   25.0367 H   0  0  0  0  0  0  0  0  0  0  0  0
   20.4864   17.8207   25.1932 H   0  0  0  0  0  0  0  0  0  0  0  0
   21.0674   18.2011   23.6937 H   0  0  0  0  0  0  0  0  0  0  0  0
  1  2  1  0  0  0  0
  1  3  1  0  0  0  0
  1  4  1  0  0  0  0
  1  5  1  0  0  0  0
  5  6  1  0  0  0  0
  5  7  1  0  0  0  0
  5  8  1  0  0  0  0
  8  9  1  0  0  0  0
  8 10  1  0  0  0  0
  8 11  1  0  0  0  0
 11 12  1  0  0  0  0
 11 13  1  0  0  0  0
 11 14  1  0  0  0  0
 14 15  1  0  0  0  0
 14 16  1  0  0  0  0
 14 17  1  0  0  0  0
 17 18  1  0  0  0  0
 17 19  1  0  0  0  0
 19 20  1  0  0  0  0
 19 21  1  0  0  0  0
 19 22  1  0  0  0  0
 17 23  1  0  0  0  0
 23 24  1  0  0  0  0
 23 25  1  0  0  0  0
 23 26  1  0  0  0  0
M  END
> <VM2 Rank>
87

> <Conf_Id>
258

> <Probability>
0.00

> <Sum Probability>
100.00

> <Delta G>
7.300

> <G>
31.009

> <E>
-2.224

> <-TS>
33.233

> <U+W>
-23.685

> <U>
30.033

> <W>
-53.719

> <W(PB)>
-55.956

> <W(SA)>
2.237

> <Valence>
7.747

> <Coulomb>
21.341

> <VdW>
0.945

> <VdW6>
-9.749

> <VdW12>
10.694

> <Bond>
0.311

> <Angle>
2.246

> <Pdih>
5.191

> <Idih>
0.000

> <Tether>
0.000

$$$$
VeraChem MOL file


 26 25  0  0  0  0  0  0  0  0999 V2000     
   20.4649   17.6308   20.2299 C   0  0  0  0  0  0  0  0  0  0  0  0
   19.8939   16.7595   19.8838 H   0  0  0  0  0  0  0  0  0  0  0  0
   20.8040   18.1837   19.3441 H   0  0  0  0  0  0  0  0  0  0  0  0
   21.3517   17.2627   20.7620 H   0  0  0  0  0  0  0  0  0  0  0  0
   19.5972   18.5240   21.1412 C   0  0  0  0  0  0  0  0  0  0  0  0
   19.2332   17.9306   21.9873 H   0  0  0  0  0  0  0  0  0  0  0  0
   18.7043   18.8464   20.5870 H   0  0  0  0  0  0  0  0  0  0  0  0
   20.3758   19.7703   21.6268 C   0  0  0  0  0  0  0  0  0  0  0  0
   21.3443   19.4851   22.0581 H   0  0  0  0  0  0  0  0  0  0  0  0
   20.6177   20.3805   20.7453 H   0  0  0  0  0  0  0  0  0  0  0  0
   19.5745   20.6474   22.6247 C   0  0  0  0  0  0  0  0  0  0  0  0
   18.4964   20.4647   22.5248 H   0  0  0  0  0  0  0  0  0  0  0  0
   19.7120   21.6959   22.3263 H   0  0  0  0  0  0  0  0  0  0  0  0
   20.0188   20.5372   24.1123 C   0  0  0  0  0  0  0  0  0  0  0  0
   21.0869   20.7794   24.1888 H   0  0  0  0  0  0  0  0  0  0  0  0
   19.5031   21.3257   24.6761 H   0  0  0  0  0  0  0  0  0  0  0  0
   19.7558   19.1963   24.8418 C   0  0  1  0  0  0  0  0  0  0  0  0
   20.0342   19.3456   25.8896 H   0  0  0  0  0  0  0  0  0  0  0  0
   18.2677   18.8044   24.8229 C   0  0  0  0  0  0  0  0  0  0  0  0
   17.9160   18.5725   23.8118 H   0  0  0  0  0  0  0  0  0  0  0  0
   17.6485   19.6181   25.2204 H   0  0  0  0  0  0  0  0  0  0  0  0
   18.0954   17.9207   25.4493 H   0  0  0  0  0  0  0  0  0  0  0  0
   20.6334   18.0776   24.3544 N   0  3  0  0  0  0  0  0  0  0  0  0
   21.6244   18.2931   24.4966 H   0  0  0  0  0  0  0  0  0  0  0  0
   20.4363   17.2029   24.8493 H   0  0  0  0  0  0  0  0  0  0  0  0
   20.4947   17.9142   23.3539 H   0  0  0  0  0  0  0  0  0  0  0  0
  1  2  1  0  0  0  0
  1  3  1  0  0  0  0
  1  4  1  0  0  0  0
  1  5  1  0  0  0  0
  5  6  1  0  0  0  0
  5  7  1  0  0  0  0
  5  8  1  0  0  0  0
  8  9  1  0  0  0  0
  8 10  1  0  0  0  0
  8 11  1  0  0  0  0
 11 12  1  0  0  0  0
 11 13  1  0  0  0  0
 11 14  1  0  0  0  0
 14 15  1  0  0  0  0
 14 16  1  0  0  0  0
 14 17  1  0  0  0  0
 17 18  1  0  0  0  0
 17 19  1  0  0  0  0
 19 20  1  0  0  0  0
 19 21  1  0  0  0  0
 19 22  1  0  0  0  0
 17 23  1  0  0  0  0
 23 24  1  0  0  0  0
 23 25  1  0  0  0  0
 23 26  1  0  0  0  0
M  END
> <VM2 Rank>
88

> <Conf_Id>
122

> <Probability>
0.00

> <Sum Probability>
100.00

> <Delta G>
7.754

> <G>
31.464

> <E>
-2.237

> <-TS>
33.701

> <U+W>
-23.699

> <U>
29.525

> <W>
-53.224

> <W(PB)>
-55.435

> <W(SA)>
2.211

> <Valence>
7.633

> <Coulomb>
21.335

> <VdW>
0.556

> <VdW6>
-10.324

> <VdW12>
10.880

> <Bond>
0.326

> <Angle>
2.670

> <Pdih>
4.637

> <Idih>
0.000

> <Tether>
0.000

$$$$
VeraChem MOL file


 26 25  0  0  0  0  0  0  0  0999 V2000     
   18.8704   19.3331   20.4892 C   0  0  0  0  0  0  0  0  0  0  0  0
   18.4475   19.2932   19.4771 H   0  0  0  0  0  0  0  0  0  0  0  0
   18.1108   18.9541   21.1838 H   0  0  0  0  0  0  0  0  0  0  0  0
   19.0631   20.3879   20.7151 H   0  0  0  0  0  0  0  0  0  0  0  0
   20.1665   18.4976   20.5610 C   0  0  0  0  0  0  0  0  0  0  0  0
   20.9422   18.9758   19.9469 H   0  0  0  0  0  0  0  0  0  0  0  0
   19.9746   17.5201   20.0967 H   0  0  0  0  0  0  0  0  0  0  0  0
   20.7113   18.2535   21.9922 C   0  0  0  0  0  0  0  0  0  0  0  0
   19.9908   17.6801   22.5822 H   0  0  0  0  0  0  0  0  0  0  0  0
   21.5811   17.5899   21.8894 H   0  0  0  0  0  0  0  0  0  0  0  0
   21.1863   19.5213   22.7530 C   0  0  0  0  0  0  0  0  0  0  0  0
   21.6832   20.1932   22.0399 H   0  0  0  0  0  0  0  0  0  0  0  0
   21.9777   19.2249   23.4543 H   0  0  0  0  0  0  0  0  0  0  0  0
   20.1148   20.3339   23.5419 C   0  0  0  0  0  0  0  0  0  0  0  0
   20.6349   21.1950   23.9813 H   0  0  0  0  0  0  0  0  0  0  0  0
   19.3805   20.7762   22.8614 H   0  0  0  0  0  0  0  0  0  0  0  0
   19.3806   19.6188   24.7075 C   0  0  1  0  0  0  0  0  0  0  0  0
   19.1507   20.3909   25.4484 H   0  0  0  0  0  0  0  0  0  0  0  0
   18.0272   19.0210   24.2804 C   0  0  0  0  0  0  0  0  0  0  0  0
   18.1376   18.1922   23.5755 H   0  0  0  0  0  0  0  0  0  0  0  0
   17.3960   19.7852   23.8104 H   0  0  0  0  0  0  0  0  0  0  0  0
   17.4852   18.6421   25.1555 H   0  0  0  0  0  0  0  0  0  0  0  0
   20.2309   18.6089   25.4289 N   0  3  0  0  0  0  0  0  0  0  0  0
   21.0859   19.0358   25.7962 H   0  0  0  0  0  0  0  0  0  0  0  0
   19.7309   18.1935   26.2200 H   0  0  0  0  0  0  0  0  0  0  0  0
   20.5099   17.8492   24.8033 H   0  0  0  0  0  0  0  0  0  0  0  0
  1  2  1  0  0  0  0
  1  3  1  0  0  0  0
  1  4  1  0  0  0  0
  1  5  1  0  0  0  0
  5  6  1  0  0  0  0
  5  7  1  0  0  0  0
  5  8  1  0  0  0  0
  8  9  1  0  0  0  0
  8 10  1  0  0  0  0
  8 11  1  0  0  0  0
 11 12  1  0  0  0  0
 11 13  1  0  0  0  0
 11 14  1  0  0  0  0
 14 15  1  0  0  0  0
 14 16  1  0  0  0  0
 14 17  1  0  0  0  0
 17 18  1  0  0  0  0
 17 19  1  0  0  0  0
 19 20  1  0  0  0  0
 19 21  1  0  0  0  0
 19 22  1  0  0  0  0
 17 23  1  0  0  0  0
 23 24  1  0  0  0  0
 23 25  1  0  0  0  0
 23 26  1  0  0  0  0
M  END
> <VM2 Rank>
89

> <Conf_Id>
249

> <Probability>
0.00

> <Sum Probability>
100.00

> <Delta G>
8.060

> <G>
31.770

> <E>
-1.720

> <-TS>
33.489

> <U+W>
-23.182

> <U>
31.350

> <W>
-54.532

> <W(PB)>
-56.675

> <W(SA)>
2.143

> <Valence>
9.658

> <Coulomb>
20.873

> <VdW>
0.819

> <VdW6>
-10.582

> <VdW12>
11.401

> <Bond>
0.428

> <Angle>
4.179

> <Pdih>
5.050

> <Idih>
0.000

> <Tether>
0.000

$$$$
