VeraChem MOL file


 17 16  0  0  0  0  0  0  0  0999 V2000     
   19.6263   18.8413   24.1383 N   0  3  0  0  0  0  0  0  0  0  0  0
   19.6532   17.8183   24.1874 H   0  0  0  0  0  0  0  0  0  0  0  0
   18.6402   19.1179   24.1682 H   0  0  0  0  0  0  0  0  0  0  0  0
   20.0581   19.1907   24.9999 H   0  0  0  0  0  0  0  0  0  0  0  0
   20.3271   19.3693   22.9024 C   0  0  0  0  0  0  0  0  0  0  0  0
   21.3758   19.0640   22.9527 H   0  0  0  0  0  0  0  0  0  0  0  0
   20.2865   20.4615   22.9320 H   0  0  0  0  0  0  0  0  0  0  0  0
   19.7034   18.8637   21.5888 C   0  0  0  0  0  0  0  0  0  0  0  0
   19.7319   17.7661   21.5695 H   0  0  0  0  0  0  0  0  0  0  0  0
   18.6464   19.1589   21.5488 H   0  0  0  0  0  0  0  0  0  0  0  0
   20.4462   19.4243   20.3560 C   0  0  0  0  0  0  0  0  0  0  0  0
   21.5050   19.1319   20.3971 H   0  0  0  0  0  0  0  0  0  0  0  0
   20.4208   20.5230   20.3764 H   0  0  0  0  0  0  0  0  0  0  0  0
   19.8261   18.9214   19.0345 C   0  0  0  0  0  0  0  0  0  0  0  0
   20.3675   19.3305   18.1716 H   0  0  0  0  0  0  0  0  0  0  0  0
   18.7756   19.2284   18.9486 H   0  0  0  0  0  0  0  0  0  0  0  0
   19.8683   17.8263   18.9695 H   0  0  0  0  0  0  0  0  0  0  0  0
  1  2  1  0  0  0  0
  1  3  1  0  0  0  0
  1  4  1  0  0  0  0
  1  5  1  0  0  0  0
  5  6  1  0  0  0  0
  5  7  1  0  0  0  0
  5  8  1  0  0  0  0
  8  9  1  0  0  0  0
  8 10  1  0  0  0  0
  8 11  1  0  0  0  0
 11 12  1  0  0  0  0
 11 13  1  0  0  0  0
 11 14  1  0  0  0  0
 14 15  1  0  0  0  0
 14 16  1  0  0  0  0
 14 17  1  0  0  0  0
M  END
> <VConfSearch Rank>
1

> <Conf_Id>
7

> <Delta U+W>
0.000

> <U+W>
-15.865

> <U>
44.664

> <W>
-60.529

> <W(PB)>
-62.309

> <W(SA)>
1.780

> <Valence>
0.872

> <Coulomb>
43.648

> <VdW>
0.144

> <VdW6>
-2.370

> <VdW12>
2.515

> <Bond>
0.080

> <Angle>
0.376

> <Pdih>
0.416

> <Idih>
0.000

> <Tether>
0.000

$$$$
VeraChem MOL file


 17 16  0  0  0  0  0  0  0  0999 V2000     
   19.5539   18.9865   24.0026 N   0  3  0  0  0  0  0  0  0  0  0  0
   20.4351   18.7384   24.4625 H   0  0  0  0  0  0  0  0  0  0  0  0
   18.9632   18.1495   24.0129 H   0  0  0  0  0  0  0  0  0  0  0  0
   19.0937   19.6815   24.5993 H   0  0  0  0  0  0  0  0  0  0  0  0
   19.7745   19.5083   22.5967 C   0  0  0  0  0  0  0  0  0  0  0  0
   20.3838   20.4136   22.6639 H   0  0  0  0  0  0  0  0  0  0  0  0
   18.8001   19.7807   22.1829 H   0  0  0  0  0  0  0  0  0  0  0  0
   20.4648   18.4874   21.6720 C   0  0  0  0  0  0  0  0  0  0  0  0
   21.4240   18.1903   22.1165 H   0  0  0  0  0  0  0  0  0  0  0  0
   19.8536   17.5775   21.6058 H   0  0  0  0  0  0  0  0  0  0  0  0
   20.7195   19.0454   20.2522 C   0  0  0  0  0  0  0  0  0  0  0  0
   21.2830   18.3012   19.6720 H   0  0  0  0  0  0  0  0  0  0  0  0
   21.3590   19.9373   20.3141 H   0  0  0  0  0  0  0  0  0  0  0  0
   19.4163   19.3923   19.4965 C   0  0  0  0  0  0  0  0  0  0  0  0
   18.7558   18.5183   19.4260 H   0  0  0  0  0  0  0  0  0  0  0  0
   19.6407   19.7255   18.4750 H   0  0  0  0  0  0  0  0  0  0  0  0
   18.8643   20.1998   19.9939 H   0  0  0  0  0  0  0  0  0  0  0  0
  1  2  1  0  0  0  0
  1  3  1  0  0  0  0
  1  4  1  0  0  0  0
  1  5  1  0  0  0  0
  5  6  1  0  0  0  0
  5  7  1  0  0  0  0
  5  8  1  0  0  0  0
  8  9  1  0  0  0  0
  8 10  1  0  0  0  0
  8 11  1  0  0  0  0
 11 12  1  0  0  0  0
 11 13  1  0  0  0  0
 11 14  1  0  0  0  0
 14 15  1  0  0  0  0
 14 16  1  0  0  0  0
 14 17  1  0  0  0  0
M  END
> <VConfSearch Rank>
2

> <Conf_Id>
36

> <Delta U+W>
0.275

> <U+W>
-15.590

> <U>
45.174

> <W>
-60.765

> <W(PB)>
-62.518

> <W(SA)>
1.754

> <Valence>
1.161

> <Coulomb>
43.789

> <VdW>
0.224

> <VdW6>
-2.897

> <VdW12>
3.121

> <Bond>
0.100

> <Angle>
0.500

> <Pdih>
0.561

> <Idih>
0.000

> <Tether>
0.000

$$$$
VeraChem MOL file


 17 16  0  0  0  0  0  0  0  0999 V2000     
   19.4443   18.2038   23.2130 N   0  3  0  0  0  0  0  0  0  0  0  0
   19.3476   17.5462   22.4352 H   0  0  0  0  0  0  0  0  0  0  0  0
   18.5074   18.5596   23.4252 H   0  0  0  0  0  0  0  0  0  0  0  0
   19.7492   17.6639   24.0294 H   0  0  0  0  0  0  0  0  0  0  0  0
   20.4117   19.3247   22.8846 C   0  0  0  0  0  0  0  0  0  0  0  0
   21.4055   18.8942   22.7352 H   0  0  0  0  0  0  0  0  0  0  0  0
   20.4545   19.9772   23.7610 H   0  0  0  0  0  0  0  0  0  0  0  0
   20.0153   20.1640   21.6518 C   0  0  0  0  0  0  0  0  0  0  0  0
   18.9412   20.3904   21.6811 H   0  0  0  0  0  0  0  0  0  0  0  0
   20.5291   21.1317   21.7262 H   0  0  0  0  0  0  0  0  0  0  0  0
   20.3950   19.5263   20.2909 C   0  0  0  0  0  0  0  0  0  0  0  0
   21.4811   19.3630   20.2495 H   0  0  0  0  0  0  0  0  0  0  0  0
   20.1657   20.2482   19.4945 H   0  0  0  0  0  0  0  0  0  0  0  0
   19.6627   18.2012   19.9797 C   0  0  0  0  0  0  0  0  0  0  0  0
   20.0160   17.3859   20.6215 H   0  0  0  0  0  0  0  0  0  0  0  0
   19.8497   17.8980   18.9413 H   0  0  0  0  0  0  0  0  0  0  0  0
   18.5772   18.3066   20.1053 H   0  0  0  0  0  0  0  0  0  0  0  0
  1  2  1  0  0  0  0
  1  3  1  0  0  0  0
  1  4  1  0  0  0  0
  1  5  1  0  0  0  0
  5  6  1  0  0  0  0
  5  7  1  0  0  0  0
  5  8  1  0  0  0  0
  8  9  1  0  0  0  0
  8 10  1  0  0  0  0
  8 11  1  0  0  0  0
 11 12  1  0  0  0  0
 11 13  1  0  0  0  0
 11 14  1  0  0  0  0
 14 15  1  0  0  0  0
 14 16  1  0  0  0  0
 14 17  1  0  0  0  0
M  END
> <VConfSearch Rank>
3

> <Conf_Id>
19

> <Delta U+W>
2.662

> <U+W>
-13.203

> <U>
47.423

> <W>
-60.626

> <W(PB)>
-62.328

> <W(SA)>
1.702

> <Valence>
2.414

> <Coulomb>
44.831

> <VdW>
0.178

> <VdW6>
-3.743

> <VdW12>
3.921

> <Bond>
0.138

> <Angle>
0.941

> <Pdih>
1.335

> <Idih>
0.000

> <Tether>
0.000

$$$$
VeraChem MOL file


 17 16  0  0  0  0  0  0  0  0999 V2000     
   18.9770   18.8032   23.2041 N   0  3  0  0  0  0  0  0  0  0  0  0
   18.5160   19.2456   24.0058 H   0  0  0  0  0  0  0  0  0  0  0  0
   19.0905   17.8119   23.4365 H   0  0  0  0  0  0  0  0  0  0  0  0
   18.3270   18.8549   22.4157 H   0  0  0  0  0  0  0  0  0  0  0  0
   20.3046   19.4621   22.8825 C   0  0  0  0  0  0  0  0  0  0  0  0
   20.9351   19.3609   23.7701 H   0  0  0  0  0  0  0  0  0  0  0  0
   20.1317   20.5278   22.7107 H   0  0  0  0  0  0  0  0  0  0  0  0
   21.0396   18.8502   21.6713 C   0  0  0  0  0  0  0  0  0  0  0  0
   22.1022   19.1140   21.7561 H   0  0  0  0  0  0  0  0  0  0  0  0
   20.9966   17.7541   21.7203 H   0  0  0  0  0  0  0  0  0  0  0  0
   20.5335   19.3486   20.2935 C   0  0  0  0  0  0  0  0  0  0  0  0
   21.1889   18.9354   19.5140 H   0  0  0  0  0  0  0  0  0  0  0  0
   20.6409   20.4407   20.2333 H   0  0  0  0  0  0  0  0  0  0  0  0
   19.0743   18.9559   19.9686 C   0  0  0  0  0  0  0  0  0  0  0  0
   18.9096   17.8801   20.1120 H   0  0  0  0  0  0  0  0  0  0  0  0
   18.8408   19.1918   18.9221 H   0  0  0  0  0  0  0  0  0  0  0  0
   18.3608   19.5095   20.5900 H   0  0  0  0  0  0  0  0  0  0  0  0
  1  2  1  0  0  0  0
  1  3  1  0  0  0  0
  1  4  1  0  0  0  0
  1  5  1  0  0  0  0
  5  6  1  0  0  0  0
  5  7  1  0  0  0  0
  5  8  1  0  0  0  0
  8  9  1  0  0  0  0
  8 10  1  0  0  0  0
  8 11  1  0  0  0  0
 11 12  1  0  0  0  0
 11 13  1  0  0  0  0
 11 14  1  0  0  0  0
 14 15  1  0  0  0  0
 14 16  1  0  0  0  0
 14 17  1  0  0  0  0
M  END
> <VConfSearch Rank>
4

> <Conf_Id>
44

> <Delta U+W>
2.712

> <U+W>
-13.153

> <U>
47.423

> <W>
-60.576

> <W(PB)>
-62.262

> <W(SA)>
1.687

> <Valence>
2.414

> <Coulomb>
44.831

> <VdW>
0.178

> <VdW6>
-3.743

> <VdW12>
3.922

> <Bond>
0.138

> <Angle>
0.941

> <Pdih>
1.335

> <Idih>
0.000

> <Tether>
0.000

$$$$
VeraChem MOL file


 17 16  0  0  0  0  0  0  0  0999 V2000     
   19.1397   18.9317   23.4233 N   0  3  0  0  0  0  0  0  0  0  0  0
   18.3576   18.9555   22.7629 H   0  0  0  0  0  0  0  0  0  0  0  0
   19.1642   19.8399   23.8966 H   0  0  0  0  0  0  0  0  0  0  0  0
   18.9091   18.2312   24.1352 H   0  0  0  0  0  0  0  0  0  0  0  0
   20.4516   18.6198   22.7294 C   0  0  0  0  0  0  0  0  0  0  0  0
   20.3674   17.6302   22.2730 H   0  0  0  0  0  0  0  0  0  0  0  0
   21.2306   18.5735   23.4952 H   0  0  0  0  0  0  0  0  0  0  0  0
   20.8505   19.6549   21.6572 C   0  0  0  0  0  0  0  0  0  0  0  0
   20.9723   20.6373   22.1324 H   0  0  0  0  0  0  0  0  0  0  0  0
   21.8368   19.3844   21.2576 H   0  0  0  0  0  0  0  0  0  0  0  0
   19.8415   19.7712   20.4876 C   0  0  0  0  0  0  0  0  0  0  0  0
   20.1999   20.5376   19.7861 H   0  0  0  0  0  0  0  0  0  0  0  0
   18.8722   20.1303   20.8594 H   0  0  0  0  0  0  0  0  0  0  0  0
   19.6457   18.4423   19.7225 C   0  0  0  0  0  0  0  0  0  0  0  0
   20.6019   18.0629   19.3394 H   0  0  0  0  0  0  0  0  0  0  0  0
   18.9755   18.5867   18.8652 H   0  0  0  0  0  0  0  0  0  0  0  0
   19.2022   17.6692   20.3625 H   0  0  0  0  0  0  0  0  0  0  0  0
  1  2  1  0  0  0  0
  1  3  1  0  0  0  0
  1  4  1  0  0  0  0
  1  5  1  0  0  0  0
  5  6  1  0  0  0  0
  5  7  1  0  0  0  0
  5  8  1  0  0  0  0
  8  9  1  0  0  0  0
  8 10  1  0  0  0  0
  8 11  1  0  0  0  0
 11 12  1  0  0  0  0
 11 13  1  0  0  0  0
 11 14  1  0  0  0  0
 14 15  1  0  0  0  0
 14 16  1  0  0  0  0
 14 17  1  0  0  0  0
M  END
> <VConfSearch Rank>
5

> <Conf_Id>
1

> <Delta U+W>
0.685

> <U+W>
-15.179

> <U>
45.697

> <W>
-60.876

> <W(PB)>
-62.586

> <W(SA)>
1.710

> <Valence>
1.263

> <Coulomb>
44.179

> <VdW>
0.255

> <VdW6>
-3.552

> <VdW12>
3.807

> <Bond>
0.125

> <Angle>
0.616

> <Pdih>
0.521

> <Idih>
0.000

> <Tether>
0.000

$$$$
VeraChem MOL file


 17 16  0  0  0  0  0  0  0  0999 V2000     
   19.6057   18.3341   23.4320 N   0  3  0  0  0  0  0  0  0  0  0  0
   20.4856   18.1454   23.9215 H   0  0  0  0  0  0  0  0  0  0  0  0
   19.4476   17.5577   22.7835 H   0  0  0  0  0  0  0  0  0  0  0  0
   18.8600   18.2941   24.1342 H   0  0  0  0  0  0  0  0  0  0  0  0
   19.6330   19.6695   22.7138 C   0  0  0  0  0  0  0  0  0  0  0  0
   19.7669   20.4503   23.4675 H   0  0  0  0  0  0  0  0  0  0  0  0
   18.6593   19.8204   22.2405 H   0  0  0  0  0  0  0  0  0  0  0  0
   20.7494   19.7846   21.6553 C   0  0  0  0  0  0  0  0  0  0  0  0
   20.7330   20.7996   21.2365 H   0  0  0  0  0  0  0  0  0  0  0  0
   21.7249   19.6725   22.1467 H   0  0  0  0  0  0  0  0  0  0  0  0
   20.6332   18.7562   20.5027 C   0  0  0  0  0  0  0  0  0  0  0  0
   20.7401   17.7358   20.8950 H   0  0  0  0  0  0  0  0  0  0  0  0
   21.4737   18.9044   19.8103 H   0  0  0  0  0  0  0  0  0  0  0  0
   19.3077   18.8755   19.7162 C   0  0  0  0  0  0  0  0  0  0  0  0
   19.2968   18.1745   18.8715 H   0  0  0  0  0  0  0  0  0  0  0  0
   19.1782   19.8881   19.3124 H   0  0  0  0  0  0  0  0  0  0  0  0
   18.4408   18.6453   20.3482 H   0  0  0  0  0  0  0  0  0  0  0  0
  1  2  1  0  0  0  0
  1  3  1  0  0  0  0
  1  4  1  0  0  0  0
  1  5  1  0  0  0  0
  5  6  1  0  0  0  0
  5  7  1  0  0  0  0
  5  8  1  0  0  0  0
  8  9  1  0  0  0  0
  8 10  1  0  0  0  0
  8 11  1  0  0  0  0
 11 12  1  0  0  0  0
 11 13  1  0  0  0  0
 11 14  1  0  0  0  0
 14 15  1  0  0  0  0
 14 16  1  0  0  0  0
 14 17  1  0  0  0  0
M  END
> <VConfSearch Rank>
6

> <Conf_Id>
43

> <Delta U+W>
0.642

> <U+W>
-15.222

> <U>
45.697

> <W>
-60.919

> <W(PB)>
-62.631

> <W(SA)>
1.712

> <Valence>
1.262

> <Coulomb>
44.179

> <VdW>
0.255

> <VdW6>
-3.552

> <VdW12>
3.807

> <Bond>
0.125

> <Angle>
0.616

> <Pdih>
0.521

> <Idih>
0.000

> <Tether>
0.000

$$$$
VeraChem MOL file


 17 16  0  0  0  0  0  0  0  0999 V2000     
   17.5217   18.2528   21.5168 N   0  3  0  0  0  0  0  0  0  0  0  0
   17.3165   18.5515   20.5585 H   0  0  0  0  0  0  0  0  0  0  0  0
   17.1252   18.9597   22.1435 H   0  0  0  0  0  0  0  0  0  0  0  0
   16.9961   17.3873   21.6763 H   0  0  0  0  0  0  0  0  0  0  0  0
   19.0076   18.0602   21.7458 C   0  0  0  0  0  0  0  0  0  0  0  0
   19.3545   17.2748   21.0688 H   0  0  0  0  0  0  0  0  0  0  0  0
   19.1487   17.7137   22.7732 H   0  0  0  0  0  0  0  0  0  0  0  0
   19.8283   19.3421   21.5147 C   0  0  0  0  0  0  0  0  0  0  0  0
   19.6720   19.6957   20.4868 H   0  0  0  0  0  0  0  0  0  0  0  0
   19.4671   20.1331   22.1854 H   0  0  0  0  0  0  0  0  0  0  0  0
   21.3346   19.1025   21.7581 C   0  0  0  0  0  0  0  0  0  0  0  0
   21.6961   18.3086   21.0893 H   0  0  0  0  0  0  0  0  0  0  0  0
   21.4914   18.7455   22.7858 H   0  0  0  0  0  0  0  0  0  0  0  0
   22.1643   20.3842   21.5281 C   0  0  0  0  0  0  0  0  0  0  0  0
   23.2306   20.1930   21.7059 H   0  0  0  0  0  0  0  0  0  0  0  0
   21.8487   21.1867   22.2075 H   0  0  0  0  0  0  0  0  0  0  0  0
   22.0549   20.7463   20.4975 H   0  0  0  0  0  0  0  0  0  0  0  0
  1  2  1  0  0  0  0
  1  3  1  0  0  0  0
  1  4  1  0  0  0  0
  1  5  1  0  0  0  0
  5  6  1  0  0  0  0
  5  7  1  0  0  0  0
  5  8  1  0  0  0  0
  8  9  1  0  0  0  0
  8 10  1  0  0  0  0
  8 11  1  0  0  0  0
 11 12  1  0  0  0  0
 11 13  1  0  0  0  0
 11 14  1  0  0  0  0
 14 15  1  0  0  0  0
 14 16  1  0  0  0  0
 14 17  1  0  0  0  0
M  END
> <VConfSearch Rank>
7

> <Conf_Id>
7

> <Delta U+W>
0.000

> <U+W>
-15.865

> <U>
44.664

> <W>
-60.529

> <W(PB)>
-62.309

> <W(SA)>
1.780

> <Valence>
0.872

> <Coulomb>
43.648

> <VdW>
0.144

> <VdW6>
-2.370

> <VdW12>
2.515

> <Bond>
0.080

> <Angle>
0.376

> <Pdih>
0.416

> <Idih>
0.000

> <Tether>
0.000

$$$$
VeraChem MOL file


 17 16  0  0  0  0  0  0  0  0999 V2000     
   18.1541   19.0417   23.2562 N   0  3  0  0  0  0  0  0  0  0  0  0
   18.2256   19.8763   23.8461 H   0  0  0  0  0  0  0  0  0  0  0  0
   18.4986   18.2516   23.8100 H   0  0  0  0  0  0  0  0  0  0  0  0
   17.1552   18.8775   23.0950 H   0  0  0  0  0  0  0  0  0  0  0  0
   18.9166   19.1986   21.9556 C   0  0  0  0  0  0  0  0  0  0  0  0
   18.4784   20.0360   21.4059 H   0  0  0  0  0  0  0  0  0  0  0  0
   18.7698   18.2884   21.3683 H   0  0  0  0  0  0  0  0  0  0  0  0
   20.4232   19.4467   22.1617 C   0  0  0  0  0  0  0  0  0  0  0  0
   20.5587   20.3400   22.7860 H   0  0  0  0  0  0  0  0  0  0  0  0
   20.8630   18.6065   22.7153 H   0  0  0  0  0  0  0  0  0  0  0  0
   21.1830   19.6441   20.8292 C   0  0  0  0  0  0  0  0  0  0  0  0
   22.2301   19.8954   21.0491 H   0  0  0  0  0  0  0  0  0  0  0  0
   20.7656   20.5057   20.2890 H   0  0  0  0  0  0  0  0  0  0  0  0
   21.1447   18.3938   19.9208 C   0  0  0  0  0  0  0  0  0  0  0  0
   21.5513   17.5159   20.4397 H   0  0  0  0  0  0  0  0  0  0  0  0
   21.7457   18.5563   19.0167 H   0  0  0  0  0  0  0  0  0  0  0  0
   20.1219   18.1592   19.6001 H   0  0  0  0  0  0  0  0  0  0  0  0
  1  2  1  0  0  0  0
  1  3  1  0  0  0  0
  1  4  1  0  0  0  0
  1  5  1  0  0  0  0
  5  6  1  0  0  0  0
  5  7  1  0  0  0  0
  5  8  1  0  0  0  0
  8  9  1  0  0  0  0
  8 10  1  0  0  0  0
  8 11  1  0  0  0  0
 11 12  1  0  0  0  0
 11 13  1  0  0  0  0
 11 14  1  0  0  0  0
 14 15  1  0  0  0  0
 14 16  1  0  0  0  0
 14 17  1  0  0  0  0
M  END
> <VConfSearch Rank>
8

> <Conf_Id>
36

> <Delta U+W>
0.275

> <U+W>
-15.590

> <U>
45.174

> <W>
-60.765

> <W(PB)>
-62.518

> <W(SA)>
1.754

> <Valence>
1.161

> <Coulomb>
43.789

> <VdW>
0.224

> <VdW6>
-2.897

> <VdW12>
3.121

> <Bond>
0.100

> <Angle>
0.500

> <Pdih>
0.561

> <Idih>
0.000

> <Tether>
0.000

$$$$
VeraChem MOL file


 17 16  0  0  0  0  0  0  0  0999 V2000     
   21.2656   18.1635   22.6089 N   0  3  0  0  0  0  0  0  0  0  0  0
   20.4102   18.2920   23.1555 H   0  0  0  0  0  0  0  0  0  0  0  0
   21.9140   18.9071   22.8849 H   0  0  0  0  0  0  0  0  0  0  0  0
   21.6852   17.2772   22.9077 H   0  0  0  0  0  0  0  0  0  0  0  0
   20.9884   18.1823   21.1180 C   0  0  0  0  0  0  0  0  0  0  0  0
   20.3489   17.3303   20.8721 H   0  0  0  0  0  0  0  0  0  0  0  0
   21.9477   18.0416   20.6126 H   0  0  0  0  0  0  0  0  0  0  0  0
   20.3389   19.4867   20.6099 C   0  0  0  0  0  0  0  0  0  0  0  0
   20.8369   20.3549   21.0614 H   0  0  0  0  0  0  0  0  0  0  0  0
   20.5297   19.5575   19.5308 H   0  0  0  0  0  0  0  0  0  0  0  0
   18.8066   19.5696   20.8292 C   0  0  0  0  0  0  0  0  0  0  0  0
   18.3143   18.7297   20.3191 H   0  0  0  0  0  0  0  0  0  0  0  0
   18.4359   20.4814   20.3401 H   0  0  0  0  0  0  0  0  0  0  0  0
   18.3740   19.5963   22.3128 C   0  0  0  0  0  0  0  0  0  0  0  0
   18.5337   18.6253   22.7960 H   0  0  0  0  0  0  0  0  0  0  0  0
   17.3029   19.8236   22.3927 H   0  0  0  0  0  0  0  0  0  0  0  0
   18.9203   20.3657   22.8736 H   0  0  0  0  0  0  0  0  0  0  0  0
  1  2  1  0  0  0  0
  1  3  1  0  0  0  0
  1  4  1  0  0  0  0
  1  5  1  0  0  0  0
  5  6  1  0  0  0  0
  5  7  1  0  0  0  0
  5  8  1  0  0  0  0
  8  9  1  0  0  0  0
  8 10  1  0  0  0  0
  8 11  1  0  0  0  0
 11 12  1  0  0  0  0
 11 13  1  0  0  0  0
 11 14  1  0  0  0  0
 14 15  1  0  0  0  0
 14 16  1  0  0  0  0
 14 17  1  0  0  0  0
M  END
> <VConfSearch Rank>
9

> <Conf_Id>
19

> <Delta U+W>
2.662

> <U+W>
-13.203

> <U>
47.423

> <W>
-60.626

> <W(PB)>
-62.328

> <W(SA)>
1.702

> <Valence>
2.414

> <Coulomb>
44.831

> <VdW>
0.178

> <VdW6>
-3.743

> <VdW12>
3.921

> <Bond>
0.138

> <Angle>
0.941

> <Pdih>
1.335

> <Idih>
0.000

> <Tether>
0.000

$$$$
VeraChem MOL file


 17 16  0  0  0  0  0  0  0  0999 V2000     
   21.4003   18.6378   20.6176 N   0  3  0  0  0  0  0  0  0  0  0  0
   21.9330   18.7980   19.7566 H   0  0  0  0  0  0  0  0  0  0  0  0
   21.8151   17.8208   21.0758 H   0  0  0  0  0  0  0  0  0  0  0  0
   21.5653   19.4416   21.2287 H   0  0  0  0  0  0  0  0  0  0  0  0
   19.9232   18.4377   20.3383 C   0  0  0  0  0  0  0  0  0  0  0  0
   19.8365   17.5648   19.6855 H   0  0  0  0  0  0  0  0  0  0  0  0
   19.5516   19.3076   19.7901 H   0  0  0  0  0  0  0  0  0  0  0  0
   19.0641   18.2092   21.5998 C   0  0  0  0  0  0  0  0  0  0  0  0
   18.1365   17.7114   21.2876 H   0  0  0  0  0  0  0  0  0  0  0  0
   19.5696   17.5073   22.2763 H   0  0  0  0  0  0  0  0  0  0  0  0
   18.6779   19.5050   22.3577 C   0  0  0  0  0  0  0  0  0  0  0  0
   17.9861   19.2381   23.1690 H   0  0  0  0  0  0  0  0  0  0  0  0
   18.1174   20.1719   21.6876 H   0  0  0  0  0  0  0  0  0  0  0  0
   19.8751   20.2717   22.9641 C   0  0  0  0  0  0  0  0  0  0  0  0
   20.5106   19.6079   23.5647 H   0  0  0  0  0  0  0  0  0  0  0  0
   19.5187   21.0756   23.6212 H   0  0  0  0  0  0  0  0  0  0  0  0
   20.4885   20.7405   22.1858 H   0  0  0  0  0  0  0  0  0  0  0  0
  1  2  1  0  0  0  0
  1  3  1  0  0  0  0
  1  4  1  0  0  0  0
  1  5  1  0  0  0  0
  5  6  1  0  0  0  0
  5  7  1  0  0  0  0
  5  8  1  0  0  0  0
  8  9  1  0  0  0  0
  8 10  1  0  0  0  0
  8 11  1  0  0  0  0
 11 12  1  0  0  0  0
 11 13  1  0  0  0  0
 11 14  1  0  0  0  0
 14 15  1  0  0  0  0
 14 16  1  0  0  0  0
 14 17  1  0  0  0  0
M  END
> <VConfSearch Rank>
10

> <Conf_Id>
44

> <Delta U+W>
2.712

> <U+W>
-13.153

> <U>
47.423

> <W>
-60.576

> <W(PB)>
-62.262

> <W(SA)>
1.687

> <Valence>
2.414

> <Coulomb>
44.831

> <VdW>
0.178

> <VdW6>
-3.743

> <VdW12>
3.922

> <Bond>
0.138

> <Angle>
0.941

> <Pdih>
1.335

> <Idih>
0.000

> <Tether>
0.000

$$$$
VeraChem MOL file


 17 16  0  0  0  0  0  0  0  0999 V2000     
   20.9261   17.3272   21.5580 N   0  3  0  0  0  0  0  0  0  0  0  0
   21.5065   18.0294   21.0905 H   0  0  0  0  0  0  0  0  0  0  0  0
   20.5690   16.6980   20.8328 H   0  0  0  0  0  0  0  0  0  0  0  0
   21.5492   16.7721   22.1532 H   0  0  0  0  0  0  0  0  0  0  0  0
   19.8051   17.9655   22.3554 C   0  0  0  0  0  0  0  0  0  0  0  0
   20.2540   18.5972   23.1263 H   0  0  0  0  0  0  0  0  0  0  0  0
   19.2534   17.1641   22.8544 H   0  0  0  0  0  0  0  0  0  0  0  0
   18.8302   18.8011   21.5004 C   0  0  0  0  0  0  0  0  0  0  0  0
   18.3543   18.1494   20.7558 H   0  0  0  0  0  0  0  0  0  0  0  0
   18.0218   19.1678   22.1468 H   0  0  0  0  0  0  0  0  0  0  0  0
   19.4931   20.0032   20.7827 C   0  0  0  0  0  0  0  0  0  0  0  0
   18.7294   20.5267   20.1905 H   0  0  0  0  0  0  0  0  0  0  0  0
   20.2427   19.6467   20.0631 H   0  0  0  0  0  0  0  0  0  0  0  0
   20.1460   21.0072   21.7602 C   0  0  0  0  0  0  0  0  0  0  0  0
   19.4152   21.3793   22.4900 H   0  0  0  0  0  0  0  0  0  0  0  0
   20.5442   21.8724   21.2146 H   0  0  0  0  0  0  0  0  0  0  0  0
   20.9785   20.5516   22.3110 H   0  0  0  0  0  0  0  0  0  0  0  0
  1  2  1  0  0  0  0
  1  3  1  0  0  0  0
  1  4  1  0  0  0  0
  1  5  1  0  0  0  0
  5  6  1  0  0  0  0
  5  7  1  0  0  0  0
  5  8  1  0  0  0  0
  8  9  1  0  0  0  0
  8 10  1  0  0  0  0
  8 11  1  0  0  0  0
 11 12  1  0  0  0  0
 11 13  1  0  0  0  0
 11 14  1  0  0  0  0
 14 15  1  0  0  0  0
 14 16  1  0  0  0  0
 14 17  1  0  0  0  0
M  END
> <VConfSearch Rank>
11

> <Conf_Id>
1

> <Delta U+W>
0.685

> <U+W>
-15.179

> <U>
45.697

> <W>
-60.876

> <W(PB)>
-62.586

> <W(SA)>
1.710

> <Valence>
1.263

> <Coulomb>
44.179

> <VdW>
0.255

> <VdW6>
-3.552

> <VdW12>
3.807

> <Bond>
0.125

> <Angle>
0.616

> <Pdih>
0.521

> <Idih>
0.000

> <Tether>
0.000

$$$$
VeraChem MOL file


 17 16  0  0  0  0  0  0  0  0999 V2000     
   18.0960   18.4400   21.0995 N   0  3  0  0  0  0  0  0  0  0  0  0
   17.5356   19.2179   20.7385 H   0  0  0  0  0  0  0  0  0  0  0  0
   18.1155   18.5289   22.1194 H   0  0  0  0  0  0  0  0  0  0  0  0
   17.5835   17.5789   20.8840 H   0  0  0  0  0  0  0  0  0  0  0  0
   19.4930   18.4276   20.5098 C   0  0  0  0  0  0  0  0  0  0  0  0
   19.3970   18.2930   19.4289 H   0  0  0  0  0  0  0  0  0  0  0  0
   20.0237   17.5609   20.9122 H   0  0  0  0  0  0  0  0  0  0  0  0
   20.3008   19.7107   20.7949 C   0  0  0  0  0  0  0  0  0  0  0  0
   21.2674   19.6391   20.2787 H   0  0  0  0  0  0  0  0  0  0  0  0
   19.7805   20.5700   20.3516 H   0  0  0  0  0  0  0  0  0  0  0  0
   20.5462   19.9791   22.3006 C   0  0  0  0  0  0  0  0  0  0  0  0
   19.5900   20.1446   22.8154 H   0  0  0  0  0  0  0  0  0  0  0  0
   21.1127   20.9151   22.4053 H   0  0  0  0  0  0  0  0  0  0  0  0
   21.3237   18.8406   22.9998 C   0  0  0  0  0  0  0  0  0  0  0  0
   21.5315   19.1019   24.0455 H   0  0  0  0  0  0  0  0  0  0  0  0
   22.2854   18.6567   22.5034 H   0  0  0  0  0  0  0  0  0  0  0  0
   20.7536   17.9030   23.0002 H   0  0  0  0  0  0  0  0  0  0  0  0
  1  2  1  0  0  0  0
  1  3  1  0  0  0  0
  1  4  1  0  0  0  0
  1  5  1  0  0  0  0
  5  6  1  0  0  0  0
  5  7  1  0  0  0  0
  5  8  1  0  0  0  0
  8  9  1  0  0  0  0
  8 10  1  0  0  0  0
  8 11  1  0  0  0  0
 11 12  1  0  0  0  0
 11 13  1  0  0  0  0
 11 14  1  0  0  0  0
 14 15  1  0  0  0  0
 14 16  1  0  0  0  0
 14 17  1  0  0  0  0
M  END
> <VConfSearch Rank>
12

> <Conf_Id>
43

> <Delta U+W>
0.642

> <U+W>
-15.222

> <U>
45.697

> <W>
-60.919

> <W(PB)>
-62.631

> <W(SA)>
1.712

> <Valence>
1.262

> <Coulomb>
44.179

> <VdW>
0.255

> <VdW6>
-3.552

> <VdW12>
3.807

> <Bond>
0.125

> <Angle>
0.616

> <Pdih>
0.521

> <Idih>
0.000

> <Tether>
0.000

$$$$
VeraChem MOL file


 17 16  0  0  0  0  0  0  0  0999 V2000     
   21.4447   20.8449   20.5113 N   0  3  0  0  0  0  0  0  0  0  0  0
   21.1830   20.6589   19.5384 H   0  0  0  0  0  0  0  0  0  0  0  0
   22.3451   20.3840   20.6739 H   0  0  0  0  0  0  0  0  0  0  0  0
   21.6107   21.8538   20.5857 H   0  0  0  0  0  0  0  0  0  0  0  0
   20.3822   20.3753   21.4849 C   0  0  0  0  0  0  0  0  0  0  0  0
   19.4628   20.9282   21.2739 H   0  0  0  0  0  0  0  0  0  0  0  0
   20.7125   20.6326   22.4950 H   0  0  0  0  0  0  0  0  0  0  0  0
   20.1074   18.8628   21.4000 C   0  0  0  0  0  0  0  0  0  0  0  0
   19.7909   18.6057   20.3803 H   0  0  0  0  0  0  0  0  0  0  0  0
   21.0362   18.3111   21.5973 H   0  0  0  0  0  0  0  0  0  0  0  0
   19.0203   18.4267   22.4068 C   0  0  0  0  0  0  0  0  0  0  0  0
   18.0913   18.9810   22.2118 H   0  0  0  0  0  0  0  0  0  0  0  0
   19.3351   18.6867   23.4274 H   0  0  0  0  0  0  0  0  0  0  0  0
   18.7393   16.9106   22.3272 C   0  0  0  0  0  0  0  0  0  0  0  0
   17.9649   16.6213   23.0495 H   0  0  0  0  0  0  0  0  0  0  0  0
   19.6427   16.3287   22.5518 H   0  0  0  0  0  0  0  0  0  0  0  0
   18.3891   16.6253   21.3266 H   0  0  0  0  0  0  0  0  0  0  0  0
  1  2  1  0  0  0  0
  1  3  1  0  0  0  0
  1  4  1  0  0  0  0
  1  5  1  0  0  0  0
  5  6  1  0  0  0  0
  5  7  1  0  0  0  0
  5  8  1  0  0  0  0
  8  9  1  0  0  0  0
  8 10  1  0  0  0  0
  8 11  1  0  0  0  0
 11 12  1  0  0  0  0
 11 13  1  0  0  0  0
 11 14  1  0  0  0  0
 14 15  1  0  0  0  0
 14 16  1  0  0  0  0
 14 17  1  0  0  0  0
M  END
> <VConfSearch Rank>
13

> <Conf_Id>
7

> <Delta U+W>
0.000

> <U+W>
-15.865

> <U>
44.664

> <W>
-60.529

> <W(PB)>
-62.309

> <W(SA)>
1.780

> <Valence>
0.872

> <Coulomb>
43.648

> <VdW>
0.144

> <VdW6>
-2.370

> <VdW12>
2.515

> <Bond>
0.080

> <Angle>
0.376

> <Pdih>
0.416

> <Idih>
0.000

> <Tether>
0.000

$$$$
VeraChem MOL file


 17 16  0  0  0  0  0  0  0  0999 V2000     
   21.9760   18.8924   20.3577 N   0  3  0  0  0  0  0  0  0  0  0  0
   22.2651   17.9095   20.3571 H   0  0  0  0  0  0  0  0  0  0  0  0
   22.5923   19.3867   21.0100 H   0  0  0  0  0  0  0  0  0  0  0  0
   22.1774   19.2610   19.4226 H   0  0  0  0  0  0  0  0  0  0  0  0
   20.5143   19.0542   20.7247 C   0  0  0  0  0  0  0  0  0  0  0  0
   19.9173   18.5299   19.9736 H   0  0  0  0  0  0  0  0  0  0  0  0
   20.2712   20.1187   20.6740 H   0  0  0  0  0  0  0  0  0  0  0  0
   20.1768   18.5101   22.1261 C   0  0  0  0  0  0  0  0  0  0  0  0
   20.4617   17.4510   22.1791 H   0  0  0  0  0  0  0  0  0  0  0  0
   20.7776   19.0356   22.8802 H   0  0  0  0  0  0  0  0  0  0  0  0
   18.6756   18.6453   22.4728 C   0  0  0  0  0  0  0  0  0  0  0  0
   18.4895   18.1685   23.4454 H   0  0  0  0  0  0  0  0  0  0  0  0
   18.0744   18.0919   21.7375 H   0  0  0  0  0  0  0  0  0  0  0  0
   18.1992   20.1148   22.5324 C   0  0  0  0  0  0  0  0  0  0  0  0
   18.7887   20.6922   23.2565 H   0  0  0  0  0  0  0  0  0  0  0  0
   17.1469   20.1661   22.8408 H   0  0  0  0  0  0  0  0  0  0  0  0
   18.2814   20.6056   21.5544 H   0  0  0  0  0  0  0  0  0  0  0  0
  1  2  1  0  0  0  0
  1  3  1  0  0  0  0
  1  4  1  0  0  0  0
  1  5  1  0  0  0  0
  5  6  1  0  0  0  0
  5  7  1  0  0  0  0
  5  8  1  0  0  0  0
  8  9  1  0  0  0  0
  8 10  1  0  0  0  0
  8 11  1  0  0  0  0
 11 12  1  0  0  0  0
 11 13  1  0  0  0  0
 11 14  1  0  0  0  0
 14 15  1  0  0  0  0
 14 16  1  0  0  0  0
 14 17  1  0  0  0  0
M  END
> <VConfSearch Rank>
14

> <Conf_Id>
36

> <Delta U+W>
0.275

> <U+W>
-15.590

> <U>
45.174

> <W>
-60.765

> <W(PB)>
-62.518

> <W(SA)>
1.754

> <Valence>
1.161

> <Coulomb>
43.789

> <VdW>
0.224

> <VdW6>
-2.897

> <VdW12>
3.121

> <Bond>
0.100

> <Angle>
0.500

> <Pdih>
0.561

> <Idih>
0.000

> <Tether>
0.000

$$$$
VeraChem MOL file


 17 16  0  0  0  0  0  0  0  0999 V2000     
   20.6941   18.7338   19.9223 N   0  3  0  0  0  0  0  0  0  0  0  0
   20.7023   19.7218   20.1880 H   0  0  0  0  0  0  0  0  0  0  0  0
   19.9102   18.6021   19.2761 H   0  0  0  0  0  0  0  0  0  0  0  0
   21.5516   18.5568   19.3892 H   0  0  0  0  0  0  0  0  0  0  0  0
   20.5850   17.8269   21.1329 C   0  0  0  0  0  0  0  0  0  0  0  0
   21.4779   17.9605   21.7495 H   0  0  0  0  0  0  0  0  0  0  0  0
   20.5811   16.7982   20.7625 H   0  0  0  0  0  0  0  0  0  0  0  0
   19.3208   18.0585   21.9872 C   0  0  0  0  0  0  0  0  0  0  0  0
   18.4436   18.1722   21.3367 H   0  0  0  0  0  0  0  0  0  0  0  0
   19.1433   17.1487   22.5760 H   0  0  0  0  0  0  0  0  0  0  0  0
   19.4202   19.2514   22.9719 C   0  0  0  0  0  0  0  0  0  0  0  0
   20.2640   19.0947   23.6585 H   0  0  0  0  0  0  0  0  0  0  0  0
   18.5168   19.2595   23.5979 H   0  0  0  0  0  0  0  0  0  0  0  0
   19.5596   20.6320   22.2912 C   0  0  0  0  0  0  0  0  0  0  0  0
   20.5436   20.7524   21.8234 H   0  0  0  0  0  0  0  0  0  0  0  0
   19.4553   21.4344   23.0332 H   0  0  0  0  0  0  0  0  0  0  0  0
   18.7838   20.7808   21.5288 H   0  0  0  0  0  0  0  0  0  0  0  0
  1  2  1  0  0  0  0
  1  3  1  0  0  0  0
  1  4  1  0  0  0  0
  1  5  1  0  0  0  0
  5  6  1  0  0  0  0
  5  7  1  0  0  0  0
  5  8  1  0  0  0  0
  8  9  1  0  0  0  0
  8 10  1  0  0  0  0
  8 11  1  0  0  0  0
 11 12  1  0  0  0  0
 11 13  1  0  0  0  0
 11 14  1  0  0  0  0
 14 15  1  0  0  0  0
 14 16  1  0  0  0  0
 14 17  1  0  0  0  0
M  END
> <VConfSearch Rank>
15

> <Conf_Id>
19

> <Delta U+W>
2.662

> <U+W>
-13.203

> <U>
47.423

> <W>
-60.626

> <W(PB)>
-62.328

> <W(SA)>
1.702

> <Valence>
2.414

> <Coulomb>
44.831

> <VdW>
0.178

> <VdW6>
-3.743

> <VdW12>
3.921

> <Bond>
0.138

> <Angle>
0.941

> <Pdih>
1.335

> <Idih>
0.000

> <Tether>
0.000

$$$$
VeraChem MOL file


 17 16  0  0  0  0  0  0  0  0999 V2000     
   21.6991   19.4392   21.5281 N   0  3  0  0  0  0  0  0  0  0  0  0
   22.5376   19.7065   22.0538 H   0  0  0  0  0  0  0  0  0  0  0  0
   21.9304   19.5293   20.5342 H   0  0  0  0  0  0  0  0  0  0  0  0
   21.5328   18.4461   21.7096 H   0  0  0  0  0  0  0  0  0  0  0  0
   20.5011   20.2883   21.9072 C   0  0  0  0  0  0  0  0  0  0  0  0
   20.7604   21.3262   21.6812 H   0  0  0  0  0  0  0  0  0  0  0  0
   20.3438   20.2066   22.9860 H   0  0  0  0  0  0  0  0  0  0  0  0
   19.2013   19.9209   21.1606 C   0  0  0  0  0  0  0  0  0  0  0  0
   18.5320   20.7903   21.2057 H   0  0  0  0  0  0  0  0  0  0  0  0
   19.4131   19.7587   20.0954 H   0  0  0  0  0  0  0  0  0  0  0  0
   18.4430   18.7046   21.7509 C   0  0  0  0  0  0  0  0  0  0  0  0
   17.4895   18.5980   21.2148 H   0  0  0  0  0  0  0  0  0  0  0  0
   18.1812   18.9056   22.7993 H   0  0  0  0  0  0  0  0  0  0  0  0
   19.2114   17.3667   21.6593 C   0  0  0  0  0  0  0  0  0  0  0  0
   19.5703   17.1822   20.6384 H   0  0  0  0  0  0  0  0  0  0  0  0
   18.5555   16.5314   21.9376 H   0  0  0  0  0  0  0  0  0  0  0  0
   20.0667   17.3462   22.3446 H   0  0  0  0  0  0  0  0  0  0  0  0
  1  2  1  0  0  0  0
  1  3  1  0  0  0  0
  1  4  1  0  0  0  0
  1  5  1  0  0  0  0
  5  6  1  0  0  0  0
  5  7  1  0  0  0  0
  5  8  1  0  0  0  0
  8  9  1  0  0  0  0
  8 10  1  0  0  0  0
  8 11  1  0  0  0  0
 11 12  1  0  0  0  0
 11 13  1  0  0  0  0
 11 14  1  0  0  0  0
 14 15  1  0  0  0  0
 14 16  1  0  0  0  0
 14 17  1  0  0  0  0
M  END
> <VConfSearch Rank>
16

> <Conf_Id>
44

> <Delta U+W>
2.712

> <U+W>
-13.153

> <U>
47.423

> <W>
-60.576

> <W(PB)>
-62.262

> <W(SA)>
1.687

> <Valence>
2.414

> <Coulomb>
44.831

> <VdW>
0.178

> <VdW6>
-3.743

> <VdW12>
3.922

> <Bond>
0.138

> <Angle>
0.941

> <Pdih>
1.335

> <Idih>
0.000

> <Tether>
0.000

$$$$
VeraChem MOL file


 17 16  0  0  0  0  0  0  0  0999 V2000     
   21.0112   17.3861   21.7450 N   0  3  0  0  0  0  0  0  0  0  0  0
   20.3486   17.2422   20.9778 H   0  0  0  0  0  0  0  0  0  0  0  0
   20.7027   16.7991   22.5258 H   0  0  0  0  0  0  0  0  0  0  0  0
   21.9148   17.0161   21.4334 H   0  0  0  0  0  0  0  0  0  0  0  0
   21.1057   18.8476   22.1390 C   0  0  0  0  0  0  0  0  0  0  0  0
   21.4666   19.4097   21.2738 H   0  0  0  0  0  0  0  0  0  0  0  0
   21.8538   18.9309   22.9320 H   0  0  0  0  0  0  0  0  0  0  0  0
   19.7720   19.4477   22.6299 C   0  0  0  0  0  0  0  0  0  0  0  0
   19.4385   18.9027   23.5229 H   0  0  0  0  0  0  0  0  0  0  0  0
   19.9499   20.4823   22.9520 H   0  0  0  0  0  0  0  0  0  0  0  0
   18.6450   19.4319   21.5672 C   0  0  0  0  0  0  0  0  0  0  0  0
   17.7358   19.8628   22.0094 H   0  0  0  0  0  0  0  0  0  0  0  0
   18.3913   18.3967   21.3013 H   0  0  0  0  0  0  0  0  0  0  0  0
   19.0061   20.2240   20.2898 C   0  0  0  0  0  0  0  0  0  0  0  0
   19.2630   21.2640   20.5297 H   0  0  0  0  0  0  0  0  0  0  0  0
   18.1570   20.2410   19.5943 H   0  0  0  0  0  0  0  0  0  0  0  0
   19.8567   19.7741   19.7624 H   0  0  0  0  0  0  0  0  0  0  0  0
  1  2  1  0  0  0  0
  1  3  1  0  0  0  0
  1  4  1  0  0  0  0
  1  5  1  0  0  0  0
  5  6  1  0  0  0  0
  5  7  1  0  0  0  0
  5  8  1  0  0  0  0
  8  9  1  0  0  0  0
  8 10  1  0  0  0  0
  8 11  1  0  0  0  0
 11 12  1  0  0  0  0
 11 13  1  0  0  0  0
 11 14  1  0  0  0  0
 14 15  1  0  0  0  0
 14 16  1  0  0  0  0
 14 17  1  0  0  0  0
M  END
> <VConfSearch Rank>
17

> <Conf_Id>
1

> <Delta U+W>
0.685

> <U+W>
-15.179

> <U>
45.697

> <W>
-60.876

> <W(PB)>
-62.586

> <W(SA)>
1.710

> <Valence>
1.263

> <Coulomb>
44.179

> <VdW>
0.255

> <VdW6>
-3.552

> <VdW12>
3.807

> <Bond>
0.125

> <Angle>
0.616

> <Pdih>
0.521

> <Idih>
0.000

> <Tether>
0.000

$$$$
VeraChem MOL file


 17 16  0  0  0  0  0  0  0  0999 V2000     
   21.1521   18.5754   23.0942 N   0  3  0  0  0  0  0  0  0  0  0  0
   20.7234   18.7687   24.0043 H   0  0  0  0  0  0  0  0  0  0  0  0
   21.4646   19.4718   22.7103 H   0  0  0  0  0  0  0  0  0  0  0  0
   21.9929   18.0174   23.2738 H   0  0  0  0  0  0  0  0  0  0  0  0
   20.1940   17.8662   22.1567 C   0  0  0  0  0  0  0  0  0  0  0  0
   19.9334   16.9062   22.6106 H   0  0  0  0  0  0  0  0  0  0  0  0
   20.7215   17.6650   21.2207 H   0  0  0  0  0  0  0  0  0  0  0  0
   18.9040   18.6609   21.8664 C   0  0  0  0  0  0  0  0  0  0  0  0
   18.2474   18.0466   21.2361 H   0  0  0  0  0  0  0  0  0  0  0  0
   18.3609   18.8224   22.8070 H   0  0  0  0  0  0  0  0  0  0  0  0
   19.1466   20.0242   21.1722 C   0  0  0  0  0  0  0  0  0  0  0  0
   19.7262   20.6854   21.8307 H   0  0  0  0  0  0  0  0  0  0  0  0
   18.1782   20.5210   21.0201 H   0  0  0  0  0  0  0  0  0  0  0  0
   19.8621   19.8904   19.8084 C   0  0  0  0  0  0  0  0  0  0  0  0
   19.9541   20.8712   19.3240 H   0  0  0  0  0  0  0  0  0  0  0  0
   19.3006   19.2340   19.1310 H   0  0  0  0  0  0  0  0  0  0  0  0
   20.8738   19.4811   19.9214 H   0  0  0  0  0  0  0  0  0  0  0  0
  1  2  1  0  0  0  0
  1  3  1  0  0  0  0
  1  4  1  0  0  0  0
  1  5  1  0  0  0  0
  5  6  1  0  0  0  0
  5  7  1  0  0  0  0
  5  8  1  0  0  0  0
  8  9  1  0  0  0  0
  8 10  1  0  0  0  0
  8 11  1  0  0  0  0
 11 12  1  0  0  0  0
 11 13  1  0  0  0  0
 11 14  1  0  0  0  0
 14 15  1  0  0  0  0
 14 16  1  0  0  0  0
 14 17  1  0  0  0  0
M  END
> <VConfSearch Rank>
18

> <Conf_Id>
43

> <Delta U+W>
0.642

> <U+W>
-15.222

> <U>
45.697

> <W>
-60.919

> <W(PB)>
-62.631

> <W(SA)>
1.712

> <Valence>
1.262

> <Coulomb>
44.179

> <VdW>
0.255

> <VdW6>
-3.552

> <VdW12>
3.807

> <Bond>
0.125

> <Angle>
0.616

> <Pdih>
0.521

> <Idih>
0.000

> <Tether>
0.000

$$$$
VeraChem MOL file


 17 16  0  0  0  0  0  0  0  0999 V2000     
   21.3205   17.0966   20.6709 N   0  3  0  0  0  0  0  0  0  0  0  0
   20.5509   16.4244   20.5959 H   0  0  0  0  0  0  0  0  0  0  0  0
   21.8331   16.8722   21.5292 H   0  0  0  0  0  0  0  0  0  0  0  0
   21.9558   16.9080   19.8887 H   0  0  0  0  0  0  0  0  0  0  0  0
   20.8261   18.5293   20.6627 C   0  0  0  0  0  0  0  0  0  0  0  0
   20.3190   18.7060   19.7103 H   0  0  0  0  0  0  0  0  0  0  0  0
   21.6978   19.1875   20.7138 H   0  0  0  0  0  0  0  0  0  0  0  0
   19.8687   18.8474   21.8256 C   0  0  0  0  0  0  0  0  0  0  0  0
   19.0022   18.1742   21.7799 H   0  0  0  0  0  0  0  0  0  0  0  0
   20.3763   18.6542   22.7800 H   0  0  0  0  0  0  0  0  0  0  0  0
   19.3892   20.3149   21.7799 C   0  0  0  0  0  0  0  0  0  0  0  0
   18.8839   20.5098   20.8234 H   0  0  0  0  0  0  0  0  0  0  0  0
   20.2563   20.9892   21.8223 H   0  0  0  0  0  0  0  0  0  0  0  0
   18.4282   20.6414   22.9435 C   0  0  0  0  0  0  0  0  0  0  0  0
   18.0994   21.6875   22.8931 H   0  0  0  0  0  0  0  0  0  0  0  0
   18.9170   20.4890   23.9146 H   0  0  0  0  0  0  0  0  0  0  0  0
   17.5339   20.0057   22.9078 H   0  0  0  0  0  0  0  0  0  0  0  0
  1  2  1  0  0  0  0
  1  3  1  0  0  0  0
  1  4  1  0  0  0  0
  1  5  1  0  0  0  0
  5  6  1  0  0  0  0
  5  7  1  0  0  0  0
  5  8  1  0  0  0  0
  8  9  1  0  0  0  0
  8 10  1  0  0  0  0
  8 11  1  0  0  0  0
 11 12  1  0  0  0  0
 11 13  1  0  0  0  0
 11 14  1  0  0  0  0
 14 15  1  0  0  0  0
 14 16  1  0  0  0  0
 14 17  1  0  0  0  0
M  END
> <VConfSearch Rank>
19

> <Conf_Id>
7

> <Delta U+W>
0.000

> <U+W>
-15.865

> <U>
44.664

> <W>
-60.529

> <W(PB)>
-62.309

> <W(SA)>
1.780

> <Valence>
0.872

> <Coulomb>
43.648

> <VdW>
0.144

> <VdW6>
-2.370

> <VdW12>
2.515

> <Bond>
0.080

> <Angle>
0.376

> <Pdih>
0.416

> <Idih>
0.000

> <Tether>
0.000

$$$$
VeraChem MOL file


 17 16  0  0  0  0  0  0  0  0999 V2000     
   17.6996   18.3795   22.2085 N   0  3  0  0  0  0  0  0  0  0  0  0
   17.6759   17.3553   22.2187 H   0  0  0  0  0  0  0  0  0  0  0  0
   17.2248   18.6827   21.3527 H   0  0  0  0  0  0  0  0  0  0  0  0
   17.1241   18.6970   22.9951 H   0  0  0  0  0  0  0  0  0  0  0  0
   19.1148   18.9156   22.2928 C   0  0  0  0  0  0  0  0  0  0  0  0
   19.5475   18.5799   23.2391 H   0  0  0  0  0  0  0  0  0  0  0  0
   19.0600   20.0072   22.3089 H   0  0  0  0  0  0  0  0  0  0  0  0
   20.0079   18.4572   21.1240 C   0  0  0  0  0  0  0  0  0  0  0  0
   20.0239   17.3597   21.0923 H   0  0  0  0  0  0  0  0  0  0  0  0
   19.5724   18.7930   20.1735 H   0  0  0  0  0  0  0  0  0  0  0  0
   21.4593   18.9784   21.2423 C   0  0  0  0  0  0  0  0  0  0  0  0
   22.0594   18.5519   20.4262 H   0  0  0  0  0  0  0  0  0  0  0  0
   21.9080   18.6155   22.1778 H   0  0  0  0  0  0  0  0  0  0  0  0
   21.5541   20.5204   21.1849 C   0  0  0  0  0  0  0  0  0  0  0  0
   21.1066   20.9097   20.2612 H   0  0  0  0  0  0  0  0  0  0  0  0
   22.6031   20.8427   21.2103 H   0  0  0  0  0  0  0  0  0  0  0  0
   21.0439   20.9879   22.0365 H   0  0  0  0  0  0  0  0  0  0  0  0
  1  2  1  0  0  0  0
  1  3  1  0  0  0  0
  1  4  1  0  0  0  0
  1  5  1  0  0  0  0
  5  6  1  0  0  0  0
  5  7  1  0  0  0  0
  5  8  1  0  0  0  0
  8  9  1  0  0  0  0
  8 10  1  0  0  0  0
  8 11  1  0  0  0  0
 11 12  1  0  0  0  0
 11 13  1  0  0  0  0
 11 14  1  0  0  0  0
 14 15  1  0  0  0  0
 14 16  1  0  0  0  0
 14 17  1  0  0  0  0
M  END
> <VConfSearch Rank>
20

> <Conf_Id>
36

> <Delta U+W>
0.275

> <U+W>
-15.590

> <U>
45.174

> <W>
-60.765

> <W(PB)>
-62.518

> <W(SA)>
1.754

> <Valence>
1.161

> <Coulomb>
43.789

> <VdW>
0.224

> <VdW6>
-2.897

> <VdW12>
3.121

> <Bond>
0.100

> <Angle>
0.500

> <Pdih>
0.561

> <Idih>
0.000

> <Tether>
0.000

$$$$
VeraChem MOL file


 17 16  0  0  0  0  0  0  0  0999 V2000     
   19.3201   19.6388   19.9741 N   0  3  0  0  0  0  0  0  0  0  0  0
   20.3283   19.7826   20.0729 H   0  0  0  0  0  0  0  0  0  0  0  0
   18.8664   20.5336   20.1815 H   0  0  0  0  0  0  0  0  0  0  0  0
   19.1389   19.4357   18.9858 H   0  0  0  0  0  0  0  0  0  0  0  0
   18.8190   18.5299   20.8792 C   0  0  0  0  0  0  0  0  0  0  0  0
   19.2840   17.5904   20.5688 H   0  0  0  0  0  0  0  0  0  0  0  0
   17.7415   18.4443   20.7136 H   0  0  0  0  0  0  0  0  0  0  0  0
   19.0793   18.7704   22.3812 C   0  0  0  0  0  0  0  0  0  0  0  0
   18.8385   19.8093   22.6425 H   0  0  0  0  0  0  0  0  0  0  0  0
   18.3750   18.1464   22.9472 H   0  0  0  0  0  0  0  0  0  0  0  0
   20.5135   18.4152   22.8498 C   0  0  0  0  0  0  0  0  0  0  0  0
   20.7193   17.3561   22.6398 H   0  0  0  0  0  0  0  0  0  0  0  0
   20.5568   18.5220   23.9428 H   0  0  0  0  0  0  0  0  0  0  0  0
   21.6247   19.2894   22.2255 C   0  0  0  0  0  0  0  0  0  0  0  0
   21.7637   19.0644   21.1617 H   0  0  0  0  0  0  0  0  0  0  0  0
   22.5843   19.0980   22.7233 H   0  0  0  0  0  0  0  0  0  0  0  0
   21.4001   20.3583   22.3355 H   0  0  0  0  0  0  0  0  0  0  0  0
  1  2  1  0  0  0  0
  1  3  1  0  0  0  0
  1  4  1  0  0  0  0
  1  5  1  0  0  0  0
  5  6  1  0  0  0  0
  5  7  1  0  0  0  0
  5  8  1  0  0  0  0
  8  9  1  0  0  0  0
  8 10  1  0  0  0  0
  8 11  1  0  0  0  0
 11 12  1  0  0  0  0
 11 13  1  0  0  0  0
 11 14  1  0  0  0  0
 14 15  1  0  0  0  0
 14 16  1  0  0  0  0
 14 17  1  0  0  0  0
M  END
> <VConfSearch Rank>
21

> <Conf_Id>
19

> <Delta U+W>
2.662

> <U+W>
-13.203

> <U>
47.423

> <W>
-60.626

> <W(PB)>
-62.328

> <W(SA)>
1.702

> <Valence>
2.414

> <Coulomb>
44.831

> <VdW>
0.178

> <VdW6>
-3.743

> <VdW12>
3.921

> <Bond>
0.138

> <Angle>
0.941

> <Pdih>
1.335

> <Idih>
0.000

> <Tether>
0.000

$$$$
VeraChem MOL file


 17 16  0  0  0  0  0  0  0  0999 V2000     
   18.0546   19.2754   21.3263 N   0  3  0  0  0  0  0  0  0  0  0  0
   17.1716   18.8253   21.0645 H   0  0  0  0  0  0  0  0  0  0  0  0
   17.8849   20.2857   21.3247 H   0  0  0  0  0  0  0  0  0  0  0  0
   18.2561   19.0057   22.2925 H   0  0  0  0  0  0  0  0  0  0  0  0
   19.1830   18.8921   20.3884 C   0  0  0  0  0  0  0  0  0  0  0  0
   18.8895   19.2154   19.3860 H   0  0  0  0  0  0  0  0  0  0  0  0
   19.2730   17.8025   20.3792 H   0  0  0  0  0  0  0  0  0  0  0  0
   20.5450   19.5256   20.7423 C   0  0  0  0  0  0  0  0  0  0  0  0
   21.1674   19.5087   19.8378 H   0  0  0  0  0  0  0  0  0  0  0  0
   20.4116   20.5855   20.9963 H   0  0  0  0  0  0  0  0  0  0  0  0
   21.3206   18.7950   21.8681 C   0  0  0  0  0  0  0  0  0  0  0  0
   22.3112   19.2612   21.9646 H   0  0  0  0  0  0  0  0  0  0  0  0
   21.5032   17.7518   21.5741 H   0  0  0  0  0  0  0  0  0  0  0  0
   20.6251   18.8270   23.2480 C   0  0  0  0  0  0  0  0  0  0  0  0
   20.3431   19.8502   23.5286 H   0  0  0  0  0  0  0  0  0  0  0  0
   21.3007   18.4434   24.0236 H   0  0  0  0  0  0  0  0  0  0  0  0
   19.7287   18.1962   23.2615 H   0  0  0  0  0  0  0  0  0  0  0  0
  1  2  1  0  0  0  0
  1  3  1  0  0  0  0
  1  4  1  0  0  0  0
  1  5  1  0  0  0  0
  5  6  1  0  0  0  0
  5  7  1  0  0  0  0
  5  8  1  0  0  0  0
  8  9  1  0  0  0  0
  8 10  1  0  0  0  0
  8 11  1  0  0  0  0
 11 12  1  0  0  0  0
 11 13  1  0  0  0  0
 11 14  1  0  0  0  0
 14 15  1  0  0  0  0
 14 16  1  0  0  0  0
 14 17  1  0  0  0  0
M  END
> <VConfSearch Rank>
22

> <Conf_Id>
44

> <Delta U+W>
2.712

> <U+W>
-13.153

> <U>
47.423

> <W>
-60.576

> <W(PB)>
-62.262

> <W(SA)>
1.687

> <Valence>
2.414

> <Coulomb>
44.831

> <VdW>
0.178

> <VdW6>
-3.743

> <VdW12>
3.922

> <Bond>
0.138

> <Angle>
0.941

> <Pdih>
1.335

> <Idih>
0.000

> <Tether>
0.000

$$$$
VeraChem MOL file


 17 16  0  0  0  0  0  0  0  0999 V2000     
   19.0061   19.8442   23.1689 N   0  3  0  0  0  0  0  0  0  0  0  0
   20.0015   20.0698   23.2510 H   0  0  0  0  0  0  0  0  0  0  0  0
   18.7951   19.1408   23.8831 H   0  0  0  0  0  0  0  0  0  0  0  0
   18.4858   20.6904   23.4217 H   0  0  0  0  0  0  0  0  0  0  0  0
   18.6529   19.3599   21.7759 C   0  0  0  0  0  0  0  0  0  0  0  0
   18.8740   20.1649   21.0703 H   0  0  0  0  0  0  0  0  0  0  0  0
   17.5755   19.1752   21.7509 H   0  0  0  0  0  0  0  0  0  0  0  0
   19.4007   18.0782   21.3539 C   0  0  0  0  0  0  0  0  0  0  0  0
   19.1404   17.2652   22.0446 H   0  0  0  0  0  0  0  0  0  0  0  0
   19.0361   17.7681   20.3656 H   0  0  0  0  0  0  0  0  0  0  0  0
   20.9408   18.2356   21.3022 C   0  0  0  0  0  0  0  0  0  0  0  0
   21.3850   17.2741   21.0085 H   0  0  0  0  0  0  0  0  0  0  0  0
   21.3317   18.4561   22.3049 H   0  0  0  0  0  0  0  0  0  0  0  0
   21.4051   19.3270   20.3108 C   0  0  0  0  0  0  0  0  0  0  0  0
   21.0273   19.1279   19.2995 H   0  0  0  0  0  0  0  0  0  0  0  0
   22.5011   19.3585   20.2583 H   0  0  0  0  0  0  0  0  0  0  0  0
   21.0597   20.3229   20.6155 H   0  0  0  0  0  0  0  0  0  0  0  0
  1  2  1  0  0  0  0
  1  3  1  0  0  0  0
  1  4  1  0  0  0  0
  1  5  1  0  0  0  0
  5  6  1  0  0  0  0
  5  7  1  0  0  0  0
  5  8  1  0  0  0  0
  8  9  1  0  0  0  0
  8 10  1  0  0  0  0
  8 11  1  0  0  0  0
 11 12  1  0  0  0  0
 11 13  1  0  0  0  0
 11 14  1  0  0  0  0
 14 15  1  0  0  0  0
 14 16  1  0  0  0  0
 14 17  1  0  0  0  0
M  END
> <VConfSearch Rank>
23

> <Conf_Id>
1

> <Delta U+W>
0.685

> <U+W>
-15.179

> <U>
45.697

> <W>
-60.876

> <W(PB)>
-62.586

> <W(SA)>
1.710

> <Valence>
1.263

> <Coulomb>
44.179

> <VdW>
0.255

> <VdW6>
-3.552

> <VdW12>
3.807

> <Bond>
0.125

> <Angle>
0.616

> <Pdih>
0.521

> <Idih>
0.000

> <Tether>
0.000

$$$$
VeraChem MOL file


 17 16  0  0  0  0  0  0  0  0999 V2000     
   21.8896   19.0961   21.8887 N   0  3  0  0  0  0  0  0  0  0  0  0
   22.1281   19.6319   22.7285 H   0  0  0  0  0  0  0  0  0  0  0  0
   21.6712   19.7714   21.1506 H   0  0  0  0  0  0  0  0  0  0  0  0
   22.7398   18.6016   21.5997 H   0  0  0  0  0  0  0  0  0  0  0  0
   20.7378   18.1409   22.1350 C   0  0  0  0  0  0  0  0  0  0  0  0
   21.0535   17.4296   22.9031 H   0  0  0  0  0  0  0  0  0  0  0  0
   20.5560   17.5833   21.2126 H   0  0  0  0  0  0  0  0  0  0  0  0
   19.4374   18.8369   22.5870 C   0  0  0  0  0  0  0  0  0  0  0  0
   18.6839   18.0677   22.8024 H   0  0  0  0  0  0  0  0  0  0  0  0
   19.6195   19.3603   23.5350 H   0  0  0  0  0  0  0  0  0  0  0  0
   18.8641   19.8353   21.5506 C   0  0  0  0  0  0  0  0  0  0  0  0
   19.5696   20.6622   21.3926 H   0  0  0  0  0  0  0  0  0  0  0  0
   17.9524   20.2894   21.9635 H   0  0  0  0  0  0  0  0  0  0  0  0
   18.5258   19.1733   20.1951 C   0  0  0  0  0  0  0  0  0  0  0  0
   18.0631   19.9012   19.5160 H   0  0  0  0  0  0  0  0  0  0  0  0
   17.8200   18.3429   20.3268 H   0  0  0  0  0  0  0  0  0  0  0  0
   19.4243   18.7839   19.7003 H   0  0  0  0  0  0  0  0  0  0  0  0
  1  2  1  0  0  0  0
  1  3  1  0  0  0  0
  1  4  1  0  0  0  0
  1  5  1  0  0  0  0
  5  6  1  0  0  0  0
  5  7  1  0  0  0  0
  5  8  1  0  0  0  0
  8  9  1  0  0  0  0
  8 10  1  0  0  0  0
  8 11  1  0  0  0  0
 11 12  1  0  0  0  0
 11 13  1  0  0  0  0
 11 14  1  0  0  0  0
 14 15  1  0  0  0  0
 14 16  1  0  0  0  0
 14 17  1  0  0  0  0
M  END
> <VConfSearch Rank>
24

> <Conf_Id>
43

> <Delta U+W>
0.642

> <U+W>
-15.222

> <U>
45.697

> <W>
-60.919

> <W(PB)>
-62.631

> <W(SA)>
1.712

> <Valence>
1.262

> <Coulomb>
44.179

> <VdW>
0.255

> <VdW6>
-3.552

> <VdW12>
3.807

> <Bond>
0.125

> <Angle>
0.616

> <Pdih>
0.521

> <Idih>
0.000

> <Tether>
0.000

$$$$
VeraChem MOL file


 17 16  0  0  0  0  0  0  0  0999 V2000     
   17.9126   17.7361   22.4120 N   0  3  0  0  0  0  0  0  0  0  0  0
   18.2912   17.4499   23.3200 H   0  0  0  0  0  0  0  0  0  0  0  0
   18.0133   16.9369   21.7788 H   0  0  0  0  0  0  0  0  0  0  0  0
   16.9069   17.8846   22.5440 H   0  0  0  0  0  0  0  0  0  0  0  0
   18.5997   18.9760   21.8754 C   0  0  0  0  0  0  0  0  0  0  0  0
   18.4255   19.7913   22.5828 H   0  0  0  0  0  0  0  0  0  0  0  0
   18.1266   19.2397   20.9256 H   0  0  0  0  0  0  0  0  0  0  0  0
   20.1132   18.7879   21.6650 C   0  0  0  0  0  0  0  0  0  0  0  0
   20.5824   18.5080   22.6176 H   0  0  0  0  0  0  0  0  0  0  0  0
   20.2845   17.9584   20.9660 H   0  0  0  0  0  0  0  0  0  0  0  0
   20.7735   20.0727   21.1184 C   0  0  0  0  0  0  0  0  0  0  0  0
   20.5995   20.9041   21.8161 H   0  0  0  0  0  0  0  0  0  0  0  0
   20.3020   20.3551   20.1664 H   0  0  0  0  0  0  0  0  0  0  0  0
   22.2919   19.8915   20.9049 C   0  0  0  0  0  0  0  0  0  0  0  0
   22.7418   20.8145   20.5167 H   0  0  0  0  0  0  0  0  0  0  0  0
   22.4969   19.0888   20.1846 H   0  0  0  0  0  0  0  0  0  0  0  0
   22.7967   19.6420   21.8473 H   0  0  0  0  0  0  0  0  0  0  0  0
  1  2  1  0  0  0  0
  1  3  1  0  0  0  0
  1  4  1  0  0  0  0
  1  5  1  0  0  0  0
  5  6  1  0  0  0  0
  5  7  1  0  0  0  0
  5  8  1  0  0  0  0
  8  9  1  0  0  0  0
  8 10  1  0  0  0  0
  8 11  1  0  0  0  0
 11 12  1  0  0  0  0
 11 13  1  0  0  0  0
 11 14  1  0  0  0  0
 14 15  1  0  0  0  0
 14 16  1  0  0  0  0
 14 17  1  0  0  0  0
M  END
> <VConfSearch Rank>
25

> <Conf_Id>
7

> <Delta U+W>
0.000

> <U+W>
-15.865

> <U>
44.664

> <W>
-60.529

> <W(PB)>
-62.309

> <W(SA)>
1.780

> <Valence>
0.872

> <Coulomb>
43.648

> <VdW>
0.144

> <VdW6>
-2.370

> <VdW12>
2.515

> <Bond>
0.080

> <Angle>
0.376

> <Pdih>
0.416

> <Idih>
0.000

> <Tether>
0.000

$$$$
VeraChem MOL file


 17 16  0  0  0  0  0  0  0  0999 V2000     
   20.5828   17.0312   20.5545 N   0  3  0  0  0  0  0  0  0  0  0  0
   20.3735   17.0975   19.5537 H   0  0  0  0  0  0  0  0  0  0  0  0
   19.8688   16.4263   20.9715 H   0  0  0  0  0  0  0  0  0  0  0  0
   21.4765   16.5361   20.6381 H   0  0  0  0  0  0  0  0  0  0  0  0
   20.6292   18.3940   21.2164 C   0  0  0  0  0  0  0  0  0  0  0  0
   21.4285   18.9718   20.7445 H   0  0  0  0  0  0  0  0  0  0  0  0
   20.8869   18.2477   22.2685 H   0  0  0  0  0  0  0  0  0  0  0  0
   19.3001   19.1661   21.1094 C   0  0  0  0  0  0  0  0  0  0  0  0
   19.0302   19.2726   20.0503 H   0  0  0  0  0  0  0  0  0  0  0  0
   18.4970   18.5849   21.5818 H   0  0  0  0  0  0  0  0  0  0  0  0
   19.3724   20.5701   21.7539 C   0  0  0  0  0  0  0  0  0  0  0  0
   18.4240   21.0952   21.5730 H   0  0  0  0  0  0  0  0  0  0  0  0
   20.1537   21.1647   21.2597 H   0  0  0  0  0  0  0  0  0  0  0  0
   19.6404   20.5233   23.2758 C   0  0  0  0  0  0  0  0  0  0  0  0
   18.8761   19.9292   23.7934 H   0  0  0  0  0  0  0  0  0  0  0  0
   19.6226   21.5351   23.7010 H   0  0  0  0  0  0  0  0  0  0  0  0
   20.6226   20.0880   23.4993 H   0  0  0  0  0  0  0  0  0  0  0  0
  1  2  1  0  0  0  0
  1  3  1  0  0  0  0
  1  4  1  0  0  0  0
  1  5  1  0  0  0  0
  5  6  1  0  0  0  0
  5  7  1  0  0  0  0
  5  8  1  0  0  0  0
  8  9  1  0  0  0  0
  8 10  1  0  0  0  0
  8 11  1  0  0  0  0
 11 12  1  0  0  0  0
 11 13  1  0  0  0  0
 11 14  1  0  0  0  0
 14 15  1  0  0  0  0
 14 16  1  0  0  0  0
 14 17  1  0  0  0  0
M  END
> <VConfSearch Rank>
26

> <Conf_Id>
36

> <Delta U+W>
0.275

> <U+W>
-15.590

> <U>
45.174

> <W>
-60.765

> <W(PB)>
-62.518

> <W(SA)>
1.754

> <Valence>
1.161

> <Coulomb>
43.789

> <VdW>
0.224

> <VdW6>
-2.897

> <VdW12>
3.121

> <Bond>
0.100

> <Angle>
0.500

> <Pdih>
0.561

> <Idih>
0.000

> <Tether>
0.000

$$$$
VeraChem MOL file


 17 16  0  0  0  0  0  0  0  0999 V2000     
   21.5268   19.4653   20.7626 N   0  3  0  0  0  0  0  0  0  0  0  0
   21.4348   19.9238   21.6727 H   0  0  0  0  0  0  0  0  0  0  0  0
   21.2737   20.1564   20.0501 H   0  0  0  0  0  0  0  0  0  0  0  0
   22.5208   19.2523   20.6304 H   0  0  0  0  0  0  0  0  0  0  0  0
   20.6660   18.2201   20.6708 C   0  0  0  0  0  0  0  0  0  0  0  0
   21.0242   17.4943   21.4058 H   0  0  0  0  0  0  0  0  0  0  0  0
   20.8212   17.7968   19.6747 H   0  0  0  0  0  0  0  0  0  0  0  0
   19.1582   18.4743   20.8796 C   0  0  0  0  0  0  0  0  0  0  0  0
   18.8475   19.3686   20.3233 H   0  0  0  0  0  0  0  0  0  0  0  0
   18.6116   17.6348   20.4298 H   0  0  0  0  0  0  0  0  0  0  0  0
   18.7245   18.5849   22.3637 C   0  0  0  0  0  0  0  0  0  0  0  0
   18.9844   17.6583   22.8947 H   0  0  0  0  0  0  0  0  0  0  0  0
   17.6285   18.6581   22.3993 H   0  0  0  0  0  0  0  0  0  0  0  0
   19.3234   19.7949   23.1160 C   0  0  0  0  0  0  0  0  0  0  0  0
   20.3979   19.6678   23.2917 H   0  0  0  0  0  0  0  0  0  0  0  0
   18.8471   19.9055   24.0989 H   0  0  0  0  0  0  0  0  0  0  0  0
   19.1626   20.7285   22.5613 H   0  0  0  0  0  0  0  0  0  0  0  0
  1  2  1  0  0  0  0
  1  3  1  0  0  0  0
  1  4  1  0  0  0  0
  1  5  1  0  0  0  0
  5  6  1  0  0  0  0
  5  7  1  0  0  0  0
  5  8  1  0  0  0  0
  8  9  1  0  0  0  0
  8 10  1  0  0  0  0
  8 11  1  0  0  0  0
 11 12  1  0  0  0  0
 11 13  1  0  0  0  0
 11 14  1  0  0  0  0
 14 15  1  0  0  0  0
 14 16  1  0  0  0  0
 14 17  1  0  0  0  0
M  END
> <VConfSearch Rank>
27

> <Conf_Id>
19

> <Delta U+W>
2.662

> <U+W>
-13.203

> <U>
47.423

> <W>
-60.626

> <W(PB)>
-62.328

> <W(SA)>
1.702

> <Valence>
2.414

> <Coulomb>
44.831

> <VdW>
0.178

> <VdW6>
-3.743

> <VdW12>
3.921

> <Bond>
0.138

> <Angle>
0.941

> <Pdih>
1.335

> <Idih>
0.000

> <Tether>
0.000

$$$$
VeraChem MOL file


 17 16  0  0  0  0  0  0  0  0999 V2000     
   18.3754   19.0907   22.6907 N   0  3  0  0  0  0  0  0  0  0  0  0
   17.5262   19.5972   22.9612 H   0  0  0  0  0  0  0  0  0  0  0  0
   18.5171   18.3543   23.3887 H   0  0  0  0  0  0  0  0  0  0  0  0
   18.1798   18.6273   21.7998 H   0  0  0  0  0  0  0  0  0  0  0  0
   19.5754   20.0130   22.5932 C   0  0  0  0  0  0  0  0  0  0  0  0
   19.7147   20.4620   23.5804 H   0  0  0  0  0  0  0  0  0  0  0  0
   19.3419   20.8146   21.8875 H   0  0  0  0  0  0  0  0  0  0  0  0
   20.8831   19.3103   22.1715 C   0  0  0  0  0  0  0  0  0  0  0  0
   21.7216   19.9417   22.4940 H   0  0  0  0  0  0  0  0  0  0  0  0
   20.9928   18.3629   22.7158 H   0  0  0  0  0  0  0  0  0  0  0  0
   21.0230   19.0748   20.6458 C   0  0  0  0  0  0  0  0  0  0  0  0
   22.0256   18.6697   20.4488 H   0  0  0  0  0  0  0  0  0  0  0  0
   20.9750   20.0373   20.1174 H   0  0  0  0  0  0  0  0  0  0  0  0
   19.9754   18.1073   20.0498 C   0  0  0  0  0  0  0  0  0  0  0  0
   19.9317   17.1684   20.6170 H   0  0  0  0  0  0  0  0  0  0  0  0
   20.2345   17.8579   19.0126 H   0  0  0  0  0  0  0  0  0  0  0  0
   18.9760   18.5574   20.0324 H   0  0  0  0  0  0  0  0  0  0  0  0
  1  2  1  0  0  0  0
  1  3  1  0  0  0  0
  1  4  1  0  0  0  0
  1  5  1  0  0  0  0
  5  6  1  0  0  0  0
  5  7  1  0  0  0  0
  5  8  1  0  0  0  0
  8  9  1  0  0  0  0
  8 10  1  0  0  0  0
  8 11  1  0  0  0  0
 11 12  1  0  0  0  0
 11 13  1  0  0  0  0
 11 14  1  0  0  0  0
 14 15  1  0  0  0  0
 14 16  1  0  0  0  0
 14 17  1  0  0  0  0
M  END
> <VConfSearch Rank>
28

> <Conf_Id>
44

> <Delta U+W>
2.712

> <U+W>
-13.153

> <U>
47.423

> <W>
-60.576

> <W(PB)>
-62.262

> <W(SA)>
1.687

> <Valence>
2.414

> <Coulomb>
44.831

> <VdW>
0.178

> <VdW6>
-3.743

> <VdW12>
3.922

> <Bond>
0.138

> <Angle>
0.941

> <Pdih>
1.335

> <Idih>
0.000

> <Tether>
0.000

$$$$
VeraChem MOL file


 17 16  0  0  0  0  0  0  0  0999 V2000     
   18.1732   19.0451   20.6511 N   0  3  0  0  0  0  0  0  0  0  0  0
   18.5539   18.0976   20.5745 H   0  0  0  0  0  0  0  0  0  0  0  0
   18.2493   19.4778   19.7257 H   0  0  0  0  0  0  0  0  0  0  0  0
   17.1729   18.9501   20.8538 H   0  0  0  0  0  0  0  0  0  0  0  0
   18.8899   19.8542   21.7148 C   0  0  0  0  0  0  0  0  0  0  0  0
   18.7445   19.3551   22.6764 H   0  0  0  0  0  0  0  0  0  0  0  0
   18.4095   20.8350   21.7672 H   0  0  0  0  0  0  0  0  0  0  0  0
   20.3980   20.0379   21.4468 C   0  0  0  0  0  0  0  0  0  0  0  0
   20.5327   20.5758   20.4990 H   0  0  0  0  0  0  0  0  0  0  0  0
   20.8173   20.6856   22.2281 H   0  0  0  0  0  0  0  0  0  0  0  0
   21.1962   18.7111   21.4027 C   0  0  0  0  0  0  0  0  0  0  0  0
   22.2507   18.9394   21.1935 H   0  0  0  0  0  0  0  0  0  0  0  0
   20.8492   18.0892   20.5664 H   0  0  0  0  0  0  0  0  0  0  0  0
   21.1084   17.9075   22.7204 C   0  0  0  0  0  0  0  0  0  0  0  0
   21.4515   18.5084   23.5727 H   0  0  0  0  0  0  0  0  0  0  0  0
   21.7395   17.0110   22.6675 H   0  0  0  0  0  0  0  0  0  0  0  0
   20.0820   17.5779   22.9249 H   0  0  0  0  0  0  0  0  0  0  0  0
  1  2  1  0  0  0  0
  1  3  1  0  0  0  0
  1  4  1  0  0  0  0
  1  5  1  0  0  0  0
  5  6  1  0  0  0  0
  5  7  1  0  0  0  0
  5  8  1  0  0  0  0
  8  9  1  0  0  0  0
  8 10  1  0  0  0  0
  8 11  1  0  0  0  0
 11 12  1  0  0  0  0
 11 13  1  0  0  0  0
 11 14  1  0  0  0  0
 14 15  1  0  0  0  0
 14 16  1  0  0  0  0
 14 17  1  0  0  0  0
M  END
> <VConfSearch Rank>
29

> <Conf_Id>
1

> <Delta U+W>
0.685

> <U+W>
-15.179

> <U>
45.697

> <W>
-60.876

> <W(PB)>
-62.586

> <W(SA)>
1.710

> <Valence>
1.263

> <Coulomb>
44.179

> <VdW>
0.255

> <VdW6>
-3.552

> <VdW12>
3.807

> <Bond>
0.125

> <Angle>
0.616

> <Pdih>
0.521

> <Idih>
0.000

> <Tether>
0.000

$$$$
VeraChem MOL file


 17 16  0  0  0  0  0  0  0  0999 V2000     
   21.6999   19.4803   22.3703 N   0  3  0  0  0  0  0  0  0  0  0  0
   21.6129   19.8584   23.3184 H   0  0  0  0  0  0  0  0  0  0  0  0
   21.4543   20.2326   21.7206 H   0  0  0  0  0  0  0  0  0  0  0  0
   22.6924   19.2703   22.2235 H   0  0  0  0  0  0  0  0  0  0  0  0
   20.8285   18.2558   22.1673 C   0  0  0  0  0  0  0  0  0  0  0  0
   21.1696   17.4852   22.8640 H   0  0  0  0  0  0  0  0  0  0  0  0
   20.9910   17.8882   21.1509 H   0  0  0  0  0  0  0  0  0  0  0  0
   19.3248   18.5176   22.3916 C   0  0  0  0  0  0  0  0  0  0  0  0
   18.7835   17.5679   22.2873 H   0  0  0  0  0  0  0  0  0  0  0  0
   19.1668   18.8473   23.4271 H   0  0  0  0  0  0  0  0  0  0  0  0
   18.7152   19.5603   21.4216 C   0  0  0  0  0  0  0  0  0  0  0  0
   19.1842   20.5412   21.5783 H   0  0  0  0  0  0  0  0  0  0  0  0
   17.6515   19.6906   21.6652 H   0  0  0  0  0  0  0  0  0  0  0  0
   18.8440   19.1530   19.9359 C   0  0  0  0  0  0  0  0  0  0  0  0
   18.3425   19.8860   19.2909 H   0  0  0  0  0  0  0  0  0  0  0  0
   18.3809   18.1745   19.7534 H   0  0  0  0  0  0  0  0  0  0  0  0
   19.8938   19.0990   19.6214 H   0  0  0  0  0  0  0  0  0  0  0  0
  1  2  1  0  0  0  0
  1  3  1  0  0  0  0
  1  4  1  0  0  0  0
  1  5  1  0  0  0  0
  5  6  1  0  0  0  0
  5  7  1  0  0  0  0
  5  8  1  0  0  0  0
  8  9  1  0  0  0  0
  8 10  1  0  0  0  0
  8 11  1  0  0  0  0
 11 12  1  0  0  0  0
 11 13  1  0  0  0  0
 11 14  1  0  0  0  0
 14 15  1  0  0  0  0
 14 16  1  0  0  0  0
 14 17  1  0  0  0  0
M  END
> <VConfSearch Rank>
30

> <Conf_Id>
43

> <Delta U+W>
0.642

> <U+W>
-15.222

> <U>
45.697

> <W>
-60.919

> <W(PB)>
-62.631

> <W(SA)>
1.712

> <Valence>
1.262

> <Coulomb>
44.179

> <VdW>
0.255

> <VdW6>
-3.552

> <VdW12>
3.807

> <Bond>
0.125

> <Angle>
0.616

> <Pdih>
0.521

> <Idih>
0.000

> <Tether>
0.000

$$$$
VeraChem MOL file


 17 16  0  0  0  0  0  0  0  0999 V2000     
   18.8785   18.7971   23.9169 N   0  3  0  0  0  0  0  0  0  0  0  0
   19.4795   19.4576   24.4191 H   0  0  0  0  0  0  0  0  0  0  0  0
   19.2298   17.8564   24.1203 H   0  0  0  0  0  0  0  0  0  0  0  0
   17.9471   18.8634   24.3399 H   0  0  0  0  0  0  0  0  0  0  0  0
   18.8429   19.0805   22.4283 C   0  0  0  0  0  0  0  0  0  0  0  0
   18.4311   20.0833   22.2854 H   0  0  0  0  0  0  0  0  0  0  0  0
   18.1625   18.3615   21.9640 H   0  0  0  0  0  0  0  0  0  0  0  0
   20.2268   18.9894   21.7600 C   0  0  0  0  0  0  0  0  0  0  0  0
   20.9115   19.7018   22.2392 H   0  0  0  0  0  0  0  0  0  0  0  0
   20.6438   17.9859   21.9188 H   0  0  0  0  0  0  0  0  0  0  0  0
   20.1459   19.2847   20.2462 C   0  0  0  0  0  0  0  0  0  0  0  0
   19.7255   20.2877   20.0865 H   0  0  0  0  0  0  0  0  0  0  0  0
   19.4581   18.5739   19.7665 H   0  0  0  0  0  0  0  0  0  0  0  0
   21.5306   19.1952   19.5690 C   0  0  0  0  0  0  0  0  0  0  0  0
   21.4516   19.4081   18.4950 H   0  0  0  0  0  0  0  0  0  0  0  0
   21.9618   18.1919   19.6820 H   0  0  0  0  0  0  0  0  0  0  0  0
   22.2313   19.9193   20.0046 H   0  0  0  0  0  0  0  0  0  0  0  0
  1  2  1  0  0  0  0
  1  3  1  0  0  0  0
  1  4  1  0  0  0  0
  1  5  1  0  0  0  0
  5  6  1  0  0  0  0
  5  7  1  0  0  0  0
  5  8  1  0  0  0  0
  8  9  1  0  0  0  0
  8 10  1  0  0  0  0
  8 11  1  0  0  0  0
 11 12  1  0  0  0  0
 11 13  1  0  0  0  0
 11 14  1  0  0  0  0
 14 15  1  0  0  0  0
 14 16  1  0  0  0  0
 14 17  1  0  0  0  0
M  END
> <VConfSearch Rank>
31

> <Conf_Id>
7

> <Delta U+W>
0.000

> <U+W>
-15.865

> <U>
44.664

> <W>
-60.529

> <W(PB)>
-62.309

> <W(SA)>
1.780

> <Valence>
0.872

> <Coulomb>
43.648

> <VdW>
0.144

> <VdW6>
-2.370

> <VdW12>
2.515

> <Bond>
0.080

> <Angle>
0.376

> <Pdih>
0.416

> <Idih>
0.000

> <Tether>
0.000

$$$$
VeraChem MOL file


 17 16  0  0  0  0  0  0  0  0999 V2000     
   22.2725   19.4819   21.1907 N   0  3  0  0  0  0  0  0  0  0  0  0
   22.7718   18.5906   21.2688 H   0  0  0  0  0  0  0  0  0  0  0  0
   22.4832   20.0197   22.0369 H   0  0  0  0  0  0  0  0  0  0  0  0
   22.6927   19.9889   20.4050 H   0  0  0  0  0  0  0  0  0  0  0  0
   20.7820   19.2830   21.0008 C   0  0  0  0  0  0  0  0  0  0  0  0
   20.6306   18.7314   20.0691 H   0  0  0  0  0  0  0  0  0  0  0  0
   20.3226   20.2691   20.8941 H   0  0  0  0  0  0  0  0  0  0  0  0
   20.1180   18.5236   22.1654 C   0  0  0  0  0  0  0  0  0  0  0  0
   20.6132   17.5514   22.2898 H   0  0  0  0  0  0  0  0  0  0  0  0
   20.2714   19.0768   23.1015 H   0  0  0  0  0  0  0  0  0  0  0  0
   18.6052   18.2928   21.9415 C   0  0  0  0  0  0  0  0  0  0  0  0
   18.2119   17.6798   22.7646 H   0  0  0  0  0  0  0  0  0  0  0  0
   18.4515   17.7103   21.0221 H   0  0  0  0  0  0  0  0  0  0  0  0
   17.7982   19.6091   21.8631 C   0  0  0  0  0  0  0  0  0  0  0  0
   17.9394   20.2136   22.7685 H   0  0  0  0  0  0  0  0  0  0  0  0
   16.7254   19.3977   21.7657 H   0  0  0  0  0  0  0  0  0  0  0  0
   18.0959   20.2139   20.9972 H   0  0  0  0  0  0  0  0  0  0  0  0
  1  2  1  0  0  0  0
  1  3  1  0  0  0  0
  1  4  1  0  0  0  0
  1  5  1  0  0  0  0
  5  6  1  0  0  0  0
  5  7  1  0  0  0  0
  5  8  1  0  0  0  0
  8  9  1  0  0  0  0
  8 10  1  0  0  0  0
  8 11  1  0  0  0  0
 11 12  1  0  0  0  0
 11 13  1  0  0  0  0
 11 14  1  0  0  0  0
 14 15  1  0  0  0  0
 14 16  1  0  0  0  0
 14 17  1  0  0  0  0
M  END
> <VConfSearch Rank>
32

> <Conf_Id>
36

> <Delta U+W>
0.275

> <U+W>
-15.590

> <U>
45.174

> <W>
-60.765

> <W(PB)>
-62.518

> <W(SA)>
1.754

> <Valence>
1.161

> <Coulomb>
43.789

> <VdW>
0.224

> <VdW6>
-2.897

> <VdW12>
3.121

> <Bond>
0.100

> <Angle>
0.500

> <Pdih>
0.561

> <Idih>
0.000

> <Tether>
0.000

$$$$
VeraChem MOL file


 17 16  0  0  0  0  0  0  0  0999 V2000     
   19.7803   17.1396   21.4746 N   0  3  0  0  0  0  0  0  0  0  0  0
   20.3722   17.4084   22.2647 H   0  0  0  0  0  0  0  0  0  0  0  0
   20.4044   16.8537   20.7142 H   0  0  0  0  0  0  0  0  0  0  0  0
   19.2567   16.3055   21.7589 H   0  0  0  0  0  0  0  0  0  0  0  0
   18.8586   18.2679   21.0531 C   0  0  0  0  0  0  0  0  0  0  0  0
   18.1730   18.4835   21.8770 H   0  0  0  0  0  0  0  0  0  0  0  0
   18.2680   17.9001   20.2096 H   0  0  0  0  0  0  0  0  0  0  0  0
   19.5894   19.5596   20.6300 C   0  0  0  0  0  0  0  0  0  0  0  0
   20.4450   19.3137   19.9871 H   0  0  0  0  0  0  0  0  0  0  0  0
   18.9013   20.1442   20.0051 H   0  0  0  0  0  0  0  0  0  0  0  0
   20.0419   20.4579   21.8095 C   0  0  0  0  0  0  0  0  0  0  0  0
   19.1678   20.7488   22.4089 H   0  0  0  0  0  0  0  0  0  0  0  0
   20.4512   21.3906   21.3968 H   0  0  0  0  0  0  0  0  0  0  0  0
   21.1066   19.8174   22.7287 C   0  0  0  0  0  0  0  0  0  0  0  0
   20.6839   19.0014   23.3263 H   0  0  0  0  0  0  0  0  0  0  0  0
   21.4993   20.5625   23.4328 H   0  0  0  0  0  0  0  0  0  0  0  0
   21.9536   19.4296   22.1477 H   0  0  0  0  0  0  0  0  0  0  0  0
  1  2  1  0  0  0  0
  1  3  1  0  0  0  0
  1  4  1  0  0  0  0
  1  5  1  0  0  0  0
  5  6  1  0  0  0  0
  5  7  1  0  0  0  0
  5  8  1  0  0  0  0
  8  9  1  0  0  0  0
  8 10  1  0  0  0  0
  8 11  1  0  0  0  0
 11 12  1  0  0  0  0
 11 13  1  0  0  0  0
 11 14  1  0  0  0  0
 14 15  1  0  0  0  0
 14 16  1  0  0  0  0
 14 17  1  0  0  0  0
M  END
> <VConfSearch Rank>
33

> <Conf_Id>
19

> <Delta U+W>
2.662

> <U+W>
-13.203

> <U>
47.423

> <W>
-60.626

> <W(PB)>
-62.328

> <W(SA)>
1.702

> <Valence>
2.414

> <Coulomb>
44.831

> <VdW>
0.178

> <VdW6>
-3.743

> <VdW12>
3.921

> <Bond>
0.138

> <Angle>
0.941

> <Pdih>
1.335

> <Idih>
0.000

> <Tether>
0.000

$$$$
VeraChem MOL file


 17 16  0  0  0  0  0  0  0  0999 V2000     
   18.4442   20.1145   22.1326 N   0  3  0  0  0  0  0  0  0  0  0  0
   17.9854   20.6053   22.9069 H   0  0  0  0  0  0  0  0  0  0  0  0
   17.7781   20.0991   21.3545 H   0  0  0  0  0  0  0  0  0  0  0  0
   19.2375   20.6897   21.8383 H   0  0  0  0  0  0  0  0  0  0  0  0
   18.8795   18.7170   22.5295 C   0  0  0  0  0  0  0  0  0  0  0  0
   17.9783   18.1734   22.8259 H   0  0  0  0  0  0  0  0  0  0  0  0
   19.5322   18.7908   23.4035 H   0  0  0  0  0  0  0  0  0  0  0  0
   19.5940   17.9328   21.4087 C   0  0  0  0  0  0  0  0  0  0  0  0
   19.5203   16.8637   21.6487 H   0  0  0  0  0  0  0  0  0  0  0  0
   19.0601   18.0655   20.4584 H   0  0  0  0  0  0  0  0  0  0  0  0
   21.0948   18.2804   21.2372 C   0  0  0  0  0  0  0  0  0  0  0  0
   21.5256   17.5960   20.4929 H   0  0  0  0  0  0  0  0  0  0  0  0
   21.6296   18.0830   22.1769 H   0  0  0  0  0  0  0  0  0  0  0  0
   21.3667   19.7332   20.7853 C   0  0  0  0  0  0  0  0  0  0  0  0
   20.7719   19.9932   19.9000 H   0  0  0  0  0  0  0  0  0  0  0  0
   22.4254   19.8585   20.5236 H   0  0  0  0  0  0  0  0  0  0  0  0
   21.1456   20.4510   21.5838 H   0  0  0  0  0  0  0  0  0  0  0  0
  1  2  1  0  0  0  0
  1  3  1  0  0  0  0
  1  4  1  0  0  0  0
  1  5  1  0  0  0  0
  5  6  1  0  0  0  0
  5  7  1  0  0  0  0
  5  8  1  0  0  0  0
  8  9  1  0  0  0  0
  8 10  1  0  0  0  0
  8 11  1  0  0  0  0
 11 12  1  0  0  0  0
 11 13  1  0  0  0  0
 11 14  1  0  0  0  0
 14 15  1  0  0  0  0
 14 16  1  0  0  0  0
 14 17  1  0  0  0  0
M  END
> <VConfSearch Rank>
34

> <Conf_Id>
44

> <Delta U+W>
2.712

> <U+W>
-13.153

> <U>
47.423

> <W>
-60.576

> <W(PB)>
-62.262

> <W(SA)>
1.687

> <Valence>
2.414

> <Coulomb>
44.831

> <VdW>
0.178

> <VdW6>
-3.743

> <VdW12>
3.922

> <Bond>
0.138

> <Angle>
0.941

> <Pdih>
1.335

> <Idih>
0.000

> <Tether>
0.000

$$$$
VeraChem MOL file


 17 16  0  0  0  0  0  0  0  0999 V2000     
   20.3039   17.1888   20.9867 N   0  3  0  0  0  0  0  0  0  0  0  0
   21.2047   17.6357   21.1793 H   0  0  0  0  0  0  0  0  0  0  0  0
   20.2192   17.1041   19.9694 H   0  0  0  0  0  0  0  0  0  0  0  0
   20.3564   16.2361   21.3613 H   0  0  0  0  0  0  0  0  0  0  0  0
   19.1501   17.9683   21.5876 C   0  0  0  0  0  0  0  0  0  0  0  0
   19.2866   17.9951   22.6718 H   0  0  0  0  0  0  0  0  0  0  0  0
   18.2299   17.4168   21.3765 H   0  0  0  0  0  0  0  0  0  0  0  0
   19.0199   19.4061   21.0440 C   0  0  0  0  0  0  0  0  0  0  0  0
   18.8425   19.3673   19.9610 H   0  0  0  0  0  0  0  0  0  0  0  0
   18.1261   19.8683   21.4837 H   0  0  0  0  0  0  0  0  0  0  0  0
   20.2503   20.3022   21.3315 C   0  0  0  0  0  0  0  0  0  0  0  0
   20.0733   21.2962   20.8971 H   0  0  0  0  0  0  0  0  0  0  0  0
   21.1366   19.9019   20.8208 H   0  0  0  0  0  0  0  0  0  0  0  0
   20.5456   20.4592   22.8408 C   0  0  0  0  0  0  0  0  0  0  0  0
   19.6735   20.8595   23.3739 H   0  0  0  0  0  0  0  0  0  0  0  0
   21.3820   21.1522   22.9994 H   0  0  0  0  0  0  0  0  0  0  0  0
   20.8181   19.5010   23.3008 H   0  0  0  0  0  0  0  0  0  0  0  0
  1  2  1  0  0  0  0
  1  3  1  0  0  0  0
  1  4  1  0  0  0  0
  1  5  1  0  0  0  0
  5  6  1  0  0  0  0
  5  7  1  0  0  0  0
  5  8  1  0  0  0  0
  8  9  1  0  0  0  0
  8 10  1  0  0  0  0
  8 11  1  0  0  0  0
 11 12  1  0  0  0  0
 11 13  1  0  0  0  0
 11 14  1  0  0  0  0
 14 15  1  0  0  0  0
 14 16  1  0  0  0  0
 14 17  1  0  0  0  0
M  END
> <VConfSearch Rank>
35

> <Conf_Id>
1

> <Delta U+W>
0.685

> <U+W>
-15.179

> <U>
45.697

> <W>
-60.876

> <W(PB)>
-62.586

> <W(SA)>
1.710

> <Valence>
1.263

> <Coulomb>
44.179

> <VdW>
0.255

> <VdW6>
-3.552

> <VdW12>
3.807

> <Bond>
0.125

> <Angle>
0.616

> <Pdih>
0.521

> <Idih>
0.000

> <Tether>
0.000

$$$$
VeraChem MOL file


 17 16  0  0  0  0  0  0  0  0999 V2000     
   21.2503   20.3937   21.0240 N   0  3  0  0  0  0  0  0  0  0  0  0
   22.1717   19.9772   20.8602 H   0  0  0  0  0  0  0  0  0  0  0  0
   21.1381   20.4915   22.0371 H   0  0  0  0  0  0  0  0  0  0  0  0
   21.2780   21.3408   20.6331 H   0  0  0  0  0  0  0  0  0  0  0  0
   20.1376   19.5638   20.4131 C   0  0  0  0  0  0  0  0  0  0  0  0
   20.2999   19.5333   19.3323 H   0  0  0  0  0  0  0  0  0  0  0  0
   19.1905   20.0771   20.5981 H   0  0  0  0  0  0  0  0  0  0  0  0
   20.0637   18.1229   20.9593 C   0  0  0  0  0  0  0  0  0  0  0  0
   19.2768   17.5818   20.4172 H   0  0  0  0  0  0  0  0  0  0  0  0
   21.0039   17.6029   20.7327 H   0  0  0  0  0  0  0  0  0  0  0  0
   19.7838   18.0393   22.4806 C   0  0  0  0  0  0  0  0  0  0  0  0
   20.6098   18.4967   23.0421 H   0  0  0  0  0  0  0  0  0  0  0  0
   19.7634   16.9818   22.7790 H   0  0  0  0  0  0  0  0  0  0  0  0
   18.4478   18.7019   22.8877 C   0  0  0  0  0  0  0  0  0  0  0  0
   18.2597   18.5619   23.9601 H   0  0  0  0  0  0  0  0  0  0  0  0
   17.6052   18.2603   22.3398 H   0  0  0  0  0  0  0  0  0  0  0  0
   18.4558   19.7814   22.6914 H   0  0  0  0  0  0  0  0  0  0  0  0
  1  2  1  0  0  0  0
  1  3  1  0  0  0  0
  1  4  1  0  0  0  0
  1  5  1  0  0  0  0
  5  6  1  0  0  0  0
  5  7  1  0  0  0  0
  5  8  1  0  0  0  0
  8  9  1  0  0  0  0
  8 10  1  0  0  0  0
  8 11  1  0  0  0  0
 11 12  1  0  0  0  0
 11 13  1  0  0  0  0
 11 14  1  0  0  0  0
 14 15  1  0  0  0  0
 14 16  1  0  0  0  0
 14 17  1  0  0  0  0
M  END
> <VConfSearch Rank>
36

> <Conf_Id>
43

> <Delta U+W>
0.642

> <U+W>
-15.222

> <U>
45.697

> <W>
-60.919

> <W(PB)>
-62.631

> <W(SA)>
1.712

> <Valence>
1.262

> <Coulomb>
44.179

> <VdW>
0.255

> <VdW6>
-3.552

> <VdW12>
3.807

> <Bond>
0.125

> <Angle>
0.616

> <Pdih>
0.521

> <Idih>
0.000

> <Tether>
0.000

$$$$
VeraChem MOL file


 17 16  0  0  0  0  0  0  0  0999 V2000     
   21.0852   16.7941   21.1848 N   0  3  0  0  0  0  0  0  0  0  0  0
   21.0715   16.8258   20.1608 H   0  0  0  0  0  0  0  0  0  0  0  0
   20.3032   16.2005   21.4778 H   0  0  0  0  0  0  0  0  0  0  0  0
   21.9452   16.3055   21.4546 H   0  0  0  0  0  0  0  0  0  0  0  0
   21.0079   18.1785   21.7970 C   0  0  0  0  0  0  0  0  0  0  0  0
   21.8847   18.7427   21.4677 H   0  0  0  0  0  0  0  0  0  0  0  0
   21.0585   18.0703   22.8838 H   0  0  0  0  0  0  0  0  0  0  0  0
   19.7272   18.9414   21.4120 C   0  0  0  0  0  0  0  0  0  0  0  0
   19.6720   19.0345   20.3192 H   0  0  0  0  0  0  0  0  0  0  0  0
   18.8487   18.3646   21.7306 H   0  0  0  0  0  0  0  0  0  0  0  0
   19.6883   20.3449   22.0556 C   0  0  0  0  0  0  0  0  0  0  0  0
   20.5692   20.9216   21.7397 H   0  0  0  0  0  0  0  0  0  0  0  0
   19.7468   20.2525   23.1493 H   0  0  0  0  0  0  0  0  0  0  0  0
   18.4064   21.1162   21.6738 C   0  0  0  0  0  0  0  0  0  0  0  0
   18.3981   22.1097   22.1405 H   0  0  0  0  0  0  0  0  0  0  0  0
   17.5083   20.5803   22.0077 H   0  0  0  0  0  0  0  0  0  0  0  0
   18.3372   21.2546   20.5869 H   0  0  0  0  0  0  0  0  0  0  0  0
  1  2  1  0  0  0  0
  1  3  1  0  0  0  0
  1  4  1  0  0  0  0
  1  5  1  0  0  0  0
  5  6  1  0  0  0  0
  5  7  1  0  0  0  0
  5  8  1  0  0  0  0
  8  9  1  0  0  0  0
  8 10  1  0  0  0  0
  8 11  1  0  0  0  0
 11 12  1  0  0  0  0
 11 13  1  0  0  0  0
 11 14  1  0  0  0  0
 14 15  1  0  0  0  0
 14 16  1  0  0  0  0
 14 17  1  0  0  0  0
M  END
> <VConfSearch Rank>
37

> <Conf_Id>
7

> <Delta U+W>
0.000

> <U+W>
-15.865

> <U>
44.664

> <W>
-60.529

> <W(PB)>
-62.309

> <W(SA)>
1.780

> <Valence>
0.872

> <Coulomb>
43.648

> <VdW>
0.144

> <VdW6>
-2.370

> <VdW12>
2.515

> <Bond>
0.080

> <Angle>
0.376

> <Pdih>
0.416

> <Idih>
0.000

> <Tether>
0.000

$$$$
VeraChem MOL file


 17 16  0  0  0  0  0  0  0  0999 V2000     
   21.9193   19.4102   22.9492 N   0  3  0  0  0  0  0  0  0  0  0  0
   21.7753   18.9733   23.8647 H   0  0  0  0  0  0  0  0  0  0  0  0
   21.8395   20.4228   23.0834 H   0  0  0  0  0  0  0  0  0  0  0  0
   22.8906   19.2224   22.6808 H   0  0  0  0  0  0  0  0  0  0  0  0
   20.9388   18.8959   21.9141 C   0  0  0  0  0  0  0  0  0  0  0  0
   21.0999   17.8204   21.8011 H   0  0  0  0  0  0  0  0  0  0  0  0
   21.1714   19.3794   20.9618 H   0  0  0  0  0  0  0  0  0  0  0  0
   19.4677   19.1624   22.2866 C   0  0  0  0  0  0  0  0  0  0  0  0
   19.2556   18.7068   23.2630 H   0  0  0  0  0  0  0  0  0  0  0  0
   19.3063   20.2425   22.4017 H   0  0  0  0  0  0  0  0  0  0  0  0
   18.4763   18.5983   21.2421 C   0  0  0  0  0  0  0  0  0  0  0  0
   17.4502   18.7499   21.6057 H   0  0  0  0  0  0  0  0  0  0  0  0
   18.6139   17.5117   21.1500 H   0  0  0  0  0  0  0  0  0  0  0  0
   18.6215   19.2597   19.8524 C   0  0  0  0  0  0  0  0  0  0  0  0
   18.4943   20.3481   19.9176 H   0  0  0  0  0  0  0  0  0  0  0  0
   17.8605   18.8745   19.1614 H   0  0  0  0  0  0  0  0  0  0  0  0
   19.6043   19.0554   19.4091 H   0  0  0  0  0  0  0  0  0  0  0  0
  1  2  1  0  0  0  0
  1  3  1  0  0  0  0
  1  4  1  0  0  0  0
  1  5  1  0  0  0  0
  5  6  1  0  0  0  0
  5  7  1  0  0  0  0
  5  8  1  0  0  0  0
  8  9  1  0  0  0  0
  8 10  1  0  0  0  0
  8 11  1  0  0  0  0
 11 12  1  0  0  0  0
 11 13  1  0  0  0  0
 11 14  1  0  0  0  0
 14 15  1  0  0  0  0
 14 16  1  0  0  0  0
 14 17  1  0  0  0  0
M  END
> <VConfSearch Rank>
38

> <Conf_Id>
36

> <Delta U+W>
0.275

> <U+W>
-15.590

> <U>
45.174

> <W>
-60.765

> <W(PB)>
-62.518

> <W(SA)>
1.754

> <Valence>
1.161

> <Coulomb>
43.789

> <VdW>
0.224

> <VdW6>
-2.897

> <VdW12>
3.121

> <Bond>
0.100

> <Angle>
0.500

> <Pdih>
0.561

> <Idih>
0.000

> <Tether>
0.000

$$$$
VeraChem MOL file


 17 16  0  0  0  0  0  0  0  0999 V2000     
   21.4835   19.7253   20.8781 N   0  3  0  0  0  0  0  0  0  0  0  0
   20.6623   19.9545   20.3125 H   0  0  0  0  0  0  0  0  0  0  0  0
   21.9697   18.9571   20.4058 H   0  0  0  0  0  0  0  0  0  0  0  0
   22.1088   20.5369   20.8465 H   0  0  0  0  0  0  0  0  0  0  0  0
   21.1028   19.3614   22.3003 C   0  0  0  0  0  0  0  0  0  0  0  0
   20.6514   20.2370   22.7747 H   0  0  0  0  0  0  0  0  0  0  0  0
   22.0308   19.1307   22.8307 H   0  0  0  0  0  0  0  0  0  0  0  0
   20.1465   18.1554   22.4124 C   0  0  0  0  0  0  0  0  0  0  0  0
   20.4715   17.3542   21.7355 H   0  0  0  0  0  0  0  0  0  0  0  0
   20.2392   17.7478   23.4278 H   0  0  0  0  0  0  0  0  0  0  0  0
   18.6536   18.4942   22.1693 C   0  0  0  0  0  0  0  0  0  0  0  0
   18.3237   19.2515   22.8944 H   0  0  0  0  0  0  0  0  0  0  0  0
   18.0566   17.5949   22.3765 H   0  0  0  0  0  0  0  0  0  0  0  0
   18.3332   18.9784   20.7370 C   0  0  0  0  0  0  0  0  0  0  0  0
   18.7377   19.9802   20.5510 H   0  0  0  0  0  0  0  0  0  0  0  0
   17.2470   19.0370   20.5892 H   0  0  0  0  0  0  0  0  0  0  0  0
   18.7348   18.2882   19.9836 H   0  0  0  0  0  0  0  0  0  0  0  0
  1  2  1  0  0  0  0
  1  3  1  0  0  0  0
  1  4  1  0  0  0  0
  1  5  1  0  0  0  0
  5  6  1  0  0  0  0
  5  7  1  0  0  0  0
  5  8  1  0  0  0  0
  8  9  1  0  0  0  0
  8 10  1  0  0  0  0
  8 11  1  0  0  0  0
 11 12  1  0  0  0  0
 11 13  1  0  0  0  0
 11 14  1  0  0  0  0
 14 15  1  0  0  0  0
 14 16  1  0  0  0  0
 14 17  1  0  0  0  0
M  END
> <VConfSearch Rank>
39

> <Conf_Id>
19

> <Delta U+W>
2.662

> <U+W>
-13.203

> <U>
47.423

> <W>
-60.626

> <W(PB)>
-62.328

> <W(SA)>
1.702

> <Valence>
2.414

> <Coulomb>
44.831

> <VdW>
0.178

> <VdW6>
-3.743

> <VdW12>
3.921

> <Bond>
0.138

> <Angle>
0.941

> <Pdih>
1.335

> <Idih>
0.000

> <Tether>
0.000

$$$$
VeraChem MOL file


 17 16  0  0  0  0  0  0  0  0999 V2000     
   19.4153   19.9850   23.1450 N   0  3  0  0  0  0  0  0  0  0  0  0
   18.9646   20.8167   23.5400 H   0  0  0  0  0  0  0  0  0  0  0  0
   19.9213   19.5295   23.9105 H   0  0  0  0  0  0  0  0  0  0  0  0
   18.6701   19.3467   22.8551 H   0  0  0  0  0  0  0  0  0  0  0  0
   20.3353   20.3360   21.9916 C   0  0  0  0  0  0  0  0  0  0  0  0
   21.0973   21.0142   22.3853 H   0  0  0  0  0  0  0  0  0  0  0  0
   19.7576   20.8780   21.2381 H   0  0  0  0  0  0  0  0  0  0  0  0
   21.0307   19.1209   21.3424 C   0  0  0  0  0  0  0  0  0  0  0  0
   21.9208   19.4874   20.8138 H   0  0  0  0  0  0  0  0  0  0  0  0
   21.4015   18.4404   22.1203 H   0  0  0  0  0  0  0  0  0  0  0  0
   20.1554   18.3484   20.3227 C   0  0  0  0  0  0  0  0  0  0  0  0
   20.7771   17.5764   19.8479 H   0  0  0  0  0  0  0  0  0  0  0  0
   19.8433   19.0260   19.5155 H   0  0  0  0  0  0  0  0  0  0  0  0
   18.9096   17.6690   20.9354 C   0  0  0  0  0  0  0  0  0  0  0  0
   19.1772   17.0574   21.8069 H   0  0  0  0  0  0  0  0  0  0  0  0
   18.4352   17.0084   20.1981 H   0  0  0  0  0  0  0  0  0  0  0  0
   18.1570   18.4065   21.2379 H   0  0  0  0  0  0  0  0  0  0  0  0
  1  2  1  0  0  0  0
  1  3  1  0  0  0  0
  1  4  1  0  0  0  0
  1  5  1  0  0  0  0
  5  6  1  0  0  0  0
  5  7  1  0  0  0  0
  5  8  1  0  0  0  0
  8  9  1  0  0  0  0
  8 10  1  0  0  0  0
  8 11  1  0  0  0  0
 11 12  1  0  0  0  0
 11 13  1  0  0  0  0
 11 14  1  0  0  0  0
 14 15  1  0  0  0  0
 14 16  1  0  0  0  0
 14 17  1  0  0  0  0
M  END
> <VConfSearch Rank>
40

> <Conf_Id>
44

> <Delta U+W>
2.712

> <U+W>
-13.153

> <U>
47.423

> <W>
-60.576

> <W(PB)>
-62.262

> <W(SA)>
1.687

> <Valence>
2.414

> <Coulomb>
44.831

> <VdW>
0.178

> <VdW6>
-3.743

> <VdW12>
3.922

> <Bond>
0.138

> <Angle>
0.941

> <Pdih>
1.335

> <Idih>
0.000

> <Tether>
0.000

$$$$
VeraChem MOL file


 17 16  0  0  0  0  0  0  0  0999 V2000     
   20.3696   18.1896   19.8609 N   0  3  0  0  0  0  0  0  0  0  0  0
   20.9622   17.7522   20.5722 H   0  0  0  0  0  0  0  0  0  0  0  0
   20.9726   18.7923   19.2931 H   0  0  0  0  0  0  0  0  0  0  0  0
   20.0357   17.4396   19.2472 H   0  0  0  0  0  0  0  0  0  0  0  0
   19.2223   18.9620   20.4830 C   0  0  0  0  0  0  0  0  0  0  0  0
   18.6054   18.2578   21.0473 H   0  0  0  0  0  0  0  0  0  0  0  0
   18.6142   19.3674   19.6697 H   0  0  0  0  0  0  0  0  0  0  0  0
   19.6741   20.1129   21.4055 C   0  0  0  0  0  0  0  0  0  0  0  0
   20.2586   20.8354   20.8205 H   0  0  0  0  0  0  0  0  0  0  0  0
   18.7841   20.6522   21.7560 H   0  0  0  0  0  0  0  0  0  0  0  0
   20.5043   19.6508   22.6290 C   0  0  0  0  0  0  0  0  0  0  0  0
   20.7916   20.5345   23.2157 H   0  0  0  0  0  0  0  0  0  0  0  0
   21.4440   19.1900   22.2954 H   0  0  0  0  0  0  0  0  0  0  0  0
   19.7385   18.6678   23.5439 C   0  0  0  0  0  0  0  0  0  0  0  0
   18.7943   19.1067   23.8918 H   0  0  0  0  0  0  0  0  0  0  0  0
   20.3381   18.4191   24.4291 H   0  0  0  0  0  0  0  0  0  0  0  0
   19.5090   17.7285   23.0252 H   0  0  0  0  0  0  0  0  0  0  0  0
  1  2  1  0  0  0  0
  1  3  1  0  0  0  0
  1  4  1  0  0  0  0
  1  5  1  0  0  0  0
  5  6  1  0  0  0  0
  5  7  1  0  0  0  0
  5  8  1  0  0  0  0
  8  9  1  0  0  0  0
  8 10  1  0  0  0  0
  8 11  1  0  0  0  0
 11 12  1  0  0  0  0
 11 13  1  0  0  0  0
 11 14  1  0  0  0  0
 14 15  1  0  0  0  0
 14 16  1  0  0  0  0
 14 17  1  0  0  0  0
M  END
> <VConfSearch Rank>
41

> <Conf_Id>
1

> <Delta U+W>
0.685

> <U+W>
-15.179

> <U>
45.697

> <W>
-60.876

> <W(PB)>
-62.586

> <W(SA)>
1.710

> <Valence>
1.263

> <Coulomb>
44.179

> <VdW>
0.255

> <VdW6>
-3.552

> <VdW12>
3.807

> <Bond>
0.125

> <Angle>
0.616

> <Pdih>
0.521

> <Idih>
0.000

> <Tether>
0.000

$$$$
VeraChem MOL file


 17 16  0  0  0  0  0  0  0  0999 V2000     
   20.8734   20.2454   22.8522 N   0  3  0  0  0  0  0  0  0  0  0  0
   21.7730   19.8542   23.1473 H   0  0  0  0  0  0  0  0  0  0  0  0
   20.1445   19.7676   23.3898 H   0  0  0  0  0  0  0  0  0  0  0  0
   20.8656   21.2277   23.1448 H   0  0  0  0  0  0  0  0  0  0  0  0
   20.6560   20.1001   21.3584 C   0  0  0  0  0  0  0  0  0  0  0  0
   21.4444   20.6627   20.8509 H   0  0  0  0  0  0  0  0  0  0  0  0
   19.6973   20.5617   21.1083 H   0  0  0  0  0  0  0  0  0  0  0  0
   20.6739   18.6383   20.8657 C   0  0  0  0  0  0  0  0  0  0  0  0
   20.5744   18.6350   19.7721 H   0  0  0  0  0  0  0  0  0  0  0  0
   21.6548   18.1961   21.0847 H   0  0  0  0  0  0  0  0  0  0  0  0
   19.5619   17.7525   21.4809 C   0  0  0  0  0  0  0  0  0  0  0  0
   19.7020   17.6709   22.5673 H   0  0  0  0  0  0  0  0  0  0  0  0
   19.6625   16.7323   21.0847 H   0  0  0  0  0  0  0  0  0  0  0  0
   18.1375   18.2709   21.1771 C   0  0  0  0  0  0  0  0  0  0  0  0
   17.3832   17.5795   21.5748 H   0  0  0  0  0  0  0  0  0  0  0  0
   17.9724   18.3602   20.0955 H   0  0  0  0  0  0  0  0  0  0  0  0
   17.9592   19.2529   21.6330 H   0  0  0  0  0  0  0  0  0  0  0  0
  1  2  1  0  0  0  0
  1  3  1  0  0  0  0
  1  4  1  0  0  0  0
  1  5  1  0  0  0  0
  5  6  1  0  0  0  0
  5  7  1  0  0  0  0
  5  8  1  0  0  0  0
  8  9  1  0  0  0  0
  8 10  1  0  0  0  0
  8 11  1  0  0  0  0
 11 12  1  0  0  0  0
 11 13  1  0  0  0  0
 11 14  1  0  0  0  0
 14 15  1  0  0  0  0
 14 16  1  0  0  0  0
 14 17  1  0  0  0  0
M  END
> <VConfSearch Rank>
42

> <Conf_Id>
43

> <Delta U+W>
0.642

> <U+W>
-15.222

> <U>
45.697

> <W>
-60.919

> <W(PB)>
-62.631

> <W(SA)>
1.712

> <Valence>
1.262

> <Coulomb>
44.179

> <VdW>
0.255

> <VdW6>
-3.552

> <VdW12>
3.807

> <Bond>
0.125

> <Angle>
0.616

> <Pdih>
0.521

> <Idih>
0.000

> <Tether>
0.000

$$$$
VeraChem MOL file


 17 16  0  0  0  0  0  0  0  0999 V2000     
   20.8747   19.2354   23.9929 N   0  3  0  0  0  0  0  0  0  0  0  0
   20.0751   19.7241   24.4068 H   0  0  0  0  0  0  0  0  0  0  0  0
   21.5947   19.9402   23.8073 H   0  0  0  0  0  0  0  0  0  0  0  0
   21.2488   18.6133   24.7168 H   0  0  0  0  0  0  0  0  0  0  0  0
   20.4888   18.4742   22.7403 C   0  0  0  0  0  0  0  0  0  0  0  0
   19.7442   17.7231   23.0176 H   0  0  0  0  0  0  0  0  0  0  0  0
   21.3784   17.9554   22.3729 H   0  0  0  0  0  0  0  0  0  0  0  0
   19.9224   19.3791   21.6308 C   0  0  0  0  0  0  0  0  0  0  0  0
   19.0384   19.9101   22.0083 H   0  0  0  0  0  0  0  0  0  0  0  0
   20.6669   20.1416   21.3657 H   0  0  0  0  0  0  0  0  0  0  0  0
   19.5423   18.5652   20.3744 C   0  0  0  0  0  0  0  0  0  0  0  0
   18.7995   17.7996   20.6398 H   0  0  0  0  0  0  0  0  0  0  0  0
   20.4261   18.0308   19.9980 H   0  0  0  0  0  0  0  0  0  0  0  0
   18.9734   19.4663   19.2571 C   0  0  0  0  0  0  0  0  0  0  0  0
   18.7097   18.8697   18.3742 H   0  0  0  0  0  0  0  0  0  0  0  0
   19.7072   20.2212   18.9459 H   0  0  0  0  0  0  0  0  0  0  0  0
   18.0678   19.9882   19.5929 H   0  0  0  0  0  0  0  0  0  0  0  0
  1  2  1  0  0  0  0
  1  3  1  0  0  0  0
  1  4  1  0  0  0  0
  1  5  1  0  0  0  0
  5  6  1  0  0  0  0
  5  7  1  0  0  0  0
  5  8  1  0  0  0  0
  8  9  1  0  0  0  0
  8 10  1  0  0  0  0
  8 11  1  0  0  0  0
 11 12  1  0  0  0  0
 11 13  1  0  0  0  0
 11 14  1  0  0  0  0
 14 15  1  0  0  0  0
 14 16  1  0  0  0  0
 14 17  1  0  0  0  0
M  END
> <VConfSearch Rank>
43

> <Conf_Id>
7

> <Delta U+W>
0.000

> <U+W>
-15.865

> <U>
44.664

> <W>
-60.529

> <W(PB)>
-62.309

> <W(SA)>
1.780

> <Valence>
0.872

> <Coulomb>
43.648

> <VdW>
0.144

> <VdW6>
-2.370

> <VdW12>
2.515

> <Bond>
0.080

> <Angle>
0.376

> <Pdih>
0.416

> <Idih>
0.000

> <Tether>
0.000

$$$$
VeraChem MOL file


 17 16  0  0  0  0  0  0  0  0999 V2000     
   18.5027   19.8272   23.4259 N   0  3  0  0  0  0  0  0  0  0  0  0
   17.8901   19.0515   23.6953 H   0  0  0  0  0  0  0  0  0  0  0  0
   17.9316   20.4905   22.8933 H   0  0  0  0  0  0  0  0  0  0  0  0
   18.7780   20.3017   24.2918 H   0  0  0  0  0  0  0  0  0  0  0  0
   19.7061   19.3524   22.6361 C   0  0  0  0  0  0  0  0  0  0  0  0
   20.2825   18.6757   23.2726 H   0  0  0  0  0  0  0  0  0  0  0  0
   20.3263   20.2243   22.4124 H   0  0  0  0  0  0  0  0  0  0  0  0
   19.3275   18.6342   21.3266 C   0  0  0  0  0  0  0  0  0  0  0  0
   18.6723   17.7842   21.5589 H   0  0  0  0  0  0  0  0  0  0  0  0
   18.7472   19.3134   20.6880 H   0  0  0  0  0  0  0  0  0  0  0  0
   20.5622   18.1203   20.5497 C   0  0  0  0  0  0  0  0  0  0  0  0
   20.2211   17.5513   19.6734 H   0  0  0  0  0  0  0  0  0  0  0  0
   21.1262   17.4145   21.1757 H   0  0  0  0  0  0  0  0  0  0  0  0
   21.4968   19.2584   20.0792 C   0  0  0  0  0  0  0  0  0  0  0  0
   20.9555   19.9819   19.4558 H   0  0  0  0  0  0  0  0  0  0  0  0
   22.3243   18.8546   19.4815 H   0  0  0  0  0  0  0  0  0  0  0  0
   21.9349   19.7977   20.9285 H   0  0  0  0  0  0  0  0  0  0  0  0
  1  2  1  0  0  0  0
  1  3  1  0  0  0  0
  1  4  1  0  0  0  0
  1  5  1  0  0  0  0
  5  6  1  0  0  0  0
  5  7  1  0  0  0  0
  5  8  1  0  0  0  0
  8  9  1  0  0  0  0
  8 10  1  0  0  0  0
  8 11  1  0  0  0  0
 11 12  1  0  0  0  0
 11 13  1  0  0  0  0
 11 14  1  0  0  0  0
 14 15  1  0  0  0  0
 14 16  1  0  0  0  0
 14 17  1  0  0  0  0
M  END
> <VConfSearch Rank>
44

> <Conf_Id>
36

> <Delta U+W>
0.275

> <U+W>
-15.590

> <U>
45.174

> <W>
-60.765

> <W(PB)>
-62.518

> <W(SA)>
1.754

> <Valence>
1.161

> <Coulomb>
43.789

> <VdW>
0.224

> <VdW6>
-2.897

> <VdW12>
3.121

> <Bond>
0.100

> <Angle>
0.500

> <Pdih>
0.561

> <Idih>
0.000

> <Tether>
0.000

$$$$
VeraChem MOL file


 17 16  0  0  0  0  0  0  0  0999 V2000     
   18.8464   17.8780   22.6173 N   0  3  0  0  0  0  0  0  0  0  0  0
   19.8326   17.6272   22.7240 H   0  0  0  0  0  0  0  0  0  0  0  0
   18.4345   17.2081   21.9608 H   0  0  0  0  0  0  0  0  0  0  0  0
   18.3948   17.7215   23.5242 H   0  0  0  0  0  0  0  0  0  0  0  0
   18.6781   19.3085   22.1426 C   0  0  0  0  0  0  0  0  0  0  0  0
   19.0729   19.9789   22.9107 H   0  0  0  0  0  0  0  0  0  0  0  0
   17.6039   19.4917   22.0540 H   0  0  0  0  0  0  0  0  0  0  0  0
   19.3531   19.6110   20.7882 C   0  0  0  0  0  0  0  0  0  0  0  0
   19.1541   18.7965   20.0791 H   0  0  0  0  0  0  0  0  0  0  0  0
   18.8712   20.5027   20.3656 H   0  0  0  0  0  0  0  0  0  0  0  0
   20.8755   19.8889   20.8766 C   0  0  0  0  0  0  0  0  0  0  0  0
   21.0568   20.7464   21.5398 H   0  0  0  0  0  0  0  0  0  0  0  0
   21.2299   20.1940   19.8819 H   0  0  0  0  0  0  0  0  0  0  0  0
   21.7186   18.6835   21.3510 C   0  0  0  0  0  0  0  0  0  0  0  0
   21.5521   18.4691   22.4131 H   0  0  0  0  0  0  0  0  0  0  0  0
   22.7887   18.8962   21.2293 H   0  0  0  0  0  0  0  0  0  0  0  0
   21.4898   17.7825   20.7671 H   0  0  0  0  0  0  0  0  0  0  0  0
  1  2  1  0  0  0  0
  1  3  1  0  0  0  0
  1  4  1  0  0  0  0
  1  5  1  0  0  0  0
  5  6  1  0  0  0  0
  5  7  1  0  0  0  0
  5  8  1  0  0  0  0
  8  9  1  0  0  0  0
  8 10  1  0  0  0  0
  8 11  1  0  0  0  0
 11 12  1  0  0  0  0
 11 13  1  0  0  0  0
 11 14  1  0  0  0  0
 14 15  1  0  0  0  0
 14 16  1  0  0  0  0
 14 17  1  0  0  0  0
M  END
> <VConfSearch Rank>
45

> <Conf_Id>
19

> <Delta U+W>
2.662

> <U+W>
-13.203

> <U>
47.423

> <W>
-60.626

> <W(PB)>
-62.328

> <W(SA)>
1.702

> <Valence>
2.414

> <Coulomb>
44.831

> <VdW>
0.178

> <VdW6>
-3.743

> <VdW12>
3.921

> <Bond>
0.138

> <Angle>
0.941

> <Pdih>
1.335

> <Idih>
0.000

> <Tether>
0.000

$$$$
VeraChem MOL file


 17 16  0  0  0  0  0  0  0  0999 V2000     
   20.0603   17.4585   22.5239 N   0  3  0  0  0  0  0  0  0  0  0  0
   20.7066   16.7588   22.9028 H   0  0  0  0  0  0  0  0  0  0  0  0
   19.1214   17.0515   22.5701 H   0  0  0  0  0  0  0  0  0  0  0  0
   20.0733   18.2583   23.1619 H   0  0  0  0  0  0  0  0  0  0  0  0
   20.4309   17.8615   21.1096 C   0  0  0  0  0  0  0  0  0  0  0  0
   20.3908   16.9559   20.4982 H   0  0  0  0  0  0  0  0  0  0  0  0
   21.4625   18.2235   21.1098 H   0  0  0  0  0  0  0  0  0  0  0  0
   19.5032   18.9279   20.4901 C   0  0  0  0  0  0  0  0  0  0  0  0
   19.6051   18.8669   19.3984 H   0  0  0  0  0  0  0  0  0  0  0  0
   18.4546   18.6862   20.7086 H   0  0  0  0  0  0  0  0  0  0  0  0
   19.8215   20.3834   20.9178 C   0  0  0  0  0  0  0  0  0  0  0  0
   19.1766   21.0621   20.3421 H   0  0  0  0  0  0  0  0  0  0  0  0
   20.8540   20.6339   20.6363 H   0  0  0  0  0  0  0  0  0  0  0  0
   19.6149   20.6668   22.4230 C   0  0  0  0  0  0  0  0  0  0  0  0
   18.6222   20.3386   22.7579 H   0  0  0  0  0  0  0  0  0  0  0  0
   19.6941   21.7435   22.6219 H   0  0  0  0  0  0  0  0  0  0  0  0
   20.3771   20.1698   23.0344 H   0  0  0  0  0  0  0  0  0  0  0  0
  1  2  1  0  0  0  0
  1  3  1  0  0  0  0
  1  4  1  0  0  0  0
  1  5  1  0  0  0  0
  5  6  1  0  0  0  0
  5  7  1  0  0  0  0
  5  8  1  0  0  0  0
  8  9  1  0  0  0  0
  8 10  1  0  0  0  0
  8 11  1  0  0  0  0
 11 12  1  0  0  0  0
 11 13  1  0  0  0  0
 11 14  1  0  0  0  0
 14 15  1  0  0  0  0
 14 16  1  0  0  0  0
 14 17  1  0  0  0  0
M  END
> <VConfSearch Rank>
46

> <Conf_Id>
44

> <Delta U+W>
2.712

> <U+W>
-13.153

> <U>
47.423

> <W>
-60.576

> <W(PB)>
-62.262

> <W(SA)>
1.687

> <Valence>
2.414

> <Coulomb>
44.831

> <VdW>
0.178

> <VdW6>
-3.743

> <VdW12>
3.922

> <Bond>
0.138

> <Angle>
0.941

> <Pdih>
1.335

> <Idih>
0.000

> <Tether>
0.000

$$$$
VeraChem MOL file


 17 16  0  0  0  0  0  0  0  0999 V2000     
   19.6431   18.6924   23.5356 N   0  3  0  0  0  0  0  0  0  0  0  0
   20.2192   17.9279   23.1721 H   0  0  0  0  0  0  0  0  0  0  0  0
   18.7116   18.3083   23.7201 H   0  0  0  0  0  0  0  0  0  0  0  0
   20.0393   18.9606   24.4421 H   0  0  0  0  0  0  0  0  0  0  0  0
   19.5918   19.8636   22.5736 C   0  0  0  0  0  0  0  0  0  0  0  0
   20.6093   20.2419   22.4448 H   0  0  0  0  0  0  0  0  0  0  0  0
   18.9949   20.6519   23.0403 H   0  0  0  0  0  0  0  0  0  0  0  0
   18.9889   19.5133   21.1975 C   0  0  0  0  0  0  0  0  0  0  0  0
   17.9537   19.1731   21.3337 H   0  0  0  0  0  0  0  0  0  0  0  0
   18.9327   20.4297   20.5951 H   0  0  0  0  0  0  0  0  0  0  0  0
   19.7847   18.4383   20.4162 C   0  0  0  0  0  0  0  0  0  0  0  0
   19.2752   18.2450   19.4617 H   0  0  0  0  0  0  0  0  0  0  0  0
   19.7722   17.4864   20.9644 H   0  0  0  0  0  0  0  0  0  0  0  0
   21.2456   18.8552   20.1301 C   0  0  0  0  0  0  0  0  0  0  0  0
   21.2846   19.8049   19.5810 H   0  0  0  0  0  0  0  0  0  0  0  0
   21.7505   18.0950   19.5201 H   0  0  0  0  0  0  0  0  0  0  0  0
   21.8213   18.9715   21.0569 H   0  0  0  0  0  0  0  0  0  0  0  0
  1  2  1  0  0  0  0
  1  3  1  0  0  0  0
  1  4  1  0  0  0  0
  1  5  1  0  0  0  0
  5  6  1  0  0  0  0
  5  7  1  0  0  0  0
  5  8  1  0  0  0  0
  8  9  1  0  0  0  0
  8 10  1  0  0  0  0
  8 11  1  0  0  0  0
 11 12  1  0  0  0  0
 11 13  1  0  0  0  0
 11 14  1  0  0  0  0
 14 15  1  0  0  0  0
 14 16  1  0  0  0  0
 14 17  1  0  0  0  0
M  END
> <VConfSearch Rank>
47

> <Conf_Id>
1

> <Delta U+W>
0.685

> <U+W>
-15.179

> <U>
45.697

> <W>
-60.876

> <W(PB)>
-62.586

> <W(SA)>
1.710

> <Valence>
1.263

> <Coulomb>
44.179

> <VdW>
0.255

> <VdW6>
-3.552

> <VdW12>
3.807

> <Bond>
0.125

> <Angle>
0.616

> <Pdih>
0.521

> <Idih>
0.000

> <Tether>
0.000

$$$$
VeraChem MOL file


 17 16  0  0  0  0  0  0  0  0999 V2000     
   17.9752   18.6653   21.6908 N   0  3  0  0  0  0  0  0  0  0  0  0
   17.7275   18.1566   22.5448 H   0  0  0  0  0  0  0  0  0  0  0  0
   18.3783   17.9856   21.0397 H   0  0  0  0  0  0  0  0  0  0  0  0
   17.0979   18.9940   21.2751 H   0  0  0  0  0  0  0  0  0  0  0  0
   18.9302   19.8096   21.9709 C   0  0  0  0  0  0  0  0  0  0  0  0
   18.4228   20.5109   22.6388 H   0  0  0  0  0  0  0  0  0  0  0  0
   19.1284   20.3249   21.0275 H   0  0  0  0  0  0  0  0  0  0  0  0
   20.2619   19.3667   22.6116 C   0  0  0  0  0  0  0  0  0  0  0  0
   20.8581   20.2611   22.8362 H   0  0  0  0  0  0  0  0  0  0  0  0
   20.0552   18.8868   23.5773 H   0  0  0  0  0  0  0  0  0  0  0  0
   21.0971   18.4063   21.7287 C   0  0  0  0  0  0  0  0  0  0  0  0
   20.5503   17.4668   21.5708 H   0  0  0  0  0  0  0  0  0  0  0  0
   22.0145   18.1358   22.2701 H   0  0  0  0  0  0  0  0  0  0  0  0
   21.4825   19.0202   20.3632 C   0  0  0  0  0  0  0  0  0  0  0  0
   22.1266   18.3325   19.7999 H   0  0  0  0  0  0  0  0  0  0  0  0
   22.0321   19.9613   20.4947 H   0  0  0  0  0  0  0  0  0  0  0  0
   20.5974   19.2236   19.7475 H   0  0  0  0  0  0  0  0  0  0  0  0
  1  2  1  0  0  0  0
  1  3  1  0  0  0  0
  1  4  1  0  0  0  0
  1  5  1  0  0  0  0
  5  6  1  0  0  0  0
  5  7  1  0  0  0  0
  5  8  1  0  0  0  0
  8  9  1  0  0  0  0
  8 10  1  0  0  0  0
  8 11  1  0  0  0  0
 11 12  1  0  0  0  0
 11 13  1  0  0  0  0
 11 14  1  0  0  0  0
 14 15  1  0  0  0  0
 14 16  1  0  0  0  0
 14 17  1  0  0  0  0
M  END
> <VConfSearch Rank>
48

> <Conf_Id>
43

> <Delta U+W>
0.642

> <U+W>
-15.222

> <U>
45.697

> <W>
-60.919

> <W(PB)>
-62.631

> <W(SA)>
1.712

> <Valence>
1.262

> <Coulomb>
44.179

> <VdW>
0.255

> <VdW6>
-3.552

> <VdW12>
3.807

> <Bond>
0.125

> <Angle>
0.616

> <Pdih>
0.521

> <Idih>
0.000

> <Tether>
0.000

$$$$
VeraChem MOL file


 17 16  0  0  0  0  0  0  0  0999 V2000     
   20.6080   20.6791   19.7196 N   0  3  0  0  0  0  0  0  0  0  0  0
   21.1886   20.0290   19.1811 H   0  0  0  0  0  0  0  0  0  0  0  0
   21.2438   21.2686   20.2654 H   0  0  0  0  0  0  0  0  0  0  0  0
   20.1437   21.2924   19.0420 H   0  0  0  0  0  0  0  0  0  0  0  0
   19.6098   19.9536   20.5997 C   0  0  0  0  0  0  0  0  0  0  0  0
   18.9485   19.3721   19.9516 H   0  0  0  0  0  0  0  0  0  0  0  0
   19.0077   20.7051   21.1176 H   0  0  0  0  0  0  0  0  0  0  0  0
   20.2739   19.0226   21.6304 C   0  0  0  0  0  0  0  0  0  0  0  0
   20.8900   18.2789   21.1074 H   0  0  0  0  0  0  0  0  0  0  0  0
   20.9489   19.6074   22.2694 H   0  0  0  0  0  0  0  0  0  0  0  0
   19.2232   18.3040   22.5051 C   0  0  0  0  0  0  0  0  0  0  0  0
   18.5452   17.7211   21.8657 H   0  0  0  0  0  0  0  0  0  0  0  0
   18.6042   19.0479   23.0264 H   0  0  0  0  0  0  0  0  0  0  0  0
   19.8821   17.3682   23.5415 C   0  0  0  0  0  0  0  0  0  0  0  0
   19.1195   16.8677   24.1522 H   0  0  0  0  0  0  0  0  0  0  0  0
   20.5403   17.9286   24.2182 H   0  0  0  0  0  0  0  0  0  0  0  0
   20.4809   16.5914   23.0483 H   0  0  0  0  0  0  0  0  0  0  0  0
  1  2  1  0  0  0  0
  1  3  1  0  0  0  0
  1  4  1  0  0  0  0
  1  5  1  0  0  0  0
  5  6  1  0  0  0  0
  5  7  1  0  0  0  0
  5  8  1  0  0  0  0
  8  9  1  0  0  0  0
  8 10  1  0  0  0  0
  8 11  1  0  0  0  0
 11 12  1  0  0  0  0
 11 13  1  0  0  0  0
 11 14  1  0  0  0  0
 14 15  1  0  0  0  0
 14 16  1  0  0  0  0
 14 17  1  0  0  0  0
M  END
> <VConfSearch Rank>
49

> <Conf_Id>
7

> <Delta U+W>
0.000

> <U+W>
-15.865

> <U>
44.664

> <W>
-60.529

> <W(PB)>
-62.309

> <W(SA)>
1.780

> <Valence>
0.872

> <Coulomb>
43.648

> <VdW>
0.144

> <VdW6>
-2.370

> <VdW12>
2.515

> <Bond>
0.080

> <Angle>
0.376

> <Pdih>
0.416

> <Idih>
0.000

> <Tether>
0.000

$$$$
VeraChem MOL file


 17 16  0  0  0  0  0  0  0  0999 V2000     
   19.7758   16.9125   22.6381 N   0  3  0  0  0  0  0  0  0  0  0  0
   18.9954   16.9134   23.3020 H   0  0  0  0  0  0  0  0  0  0  0  0
   20.6388   16.9540   23.1886 H   0  0  0  0  0  0  0  0  0  0  0  0
   19.7659   16.0002   22.1708 H   0  0  0  0  0  0  0  0  0  0  0  0
   19.6793   18.0549   21.6467 C   0  0  0  0  0  0  0  0  0  0  0  0
   18.7545   17.9306   21.0769 H   0  0  0  0  0  0  0  0  0  0  0  0
   20.5219   17.9716   20.9554 H   0  0  0  0  0  0  0  0  0  0  0  0
   19.6917   19.4423   22.3166 C   0  0  0  0  0  0  0  0  0  0  0  0
   18.8658   19.5010   23.0379 H   0  0  0  0  0  0  0  0  0  0  0  0
   20.6198   19.5665   22.8903 H   0  0  0  0  0  0  0  0  0  0  0  0
   19.5532   20.5978   21.2979 C   0  0  0  0  0  0  0  0  0  0  0  0
   19.4882   21.5493   21.8441 H   0  0  0  0  0  0  0  0  0  0  0  0
   18.6085   20.4935   20.7458 H   0  0  0  0  0  0  0  0  0  0  0  0
   20.7323   20.6686   20.3006 C   0  0  0  0  0  0  0  0  0  0  0  0
   21.6903   20.7671   20.8277 H   0  0  0  0  0  0  0  0  0  0  0  0
   20.6242   21.5370   19.6378 H   0  0  0  0  0  0  0  0  0  0  0  0
   20.7797   19.7735   19.6677 H   0  0  0  0  0  0  0  0  0  0  0  0
  1  2  1  0  0  0  0
  1  3  1  0  0  0  0
  1  4  1  0  0  0  0
  1  5  1  0  0  0  0
  5  6  1  0  0  0  0
  5  7  1  0  0  0  0
  5  8  1  0  0  0  0
  8  9  1  0  0  0  0
  8 10  1  0  0  0  0
  8 11  1  0  0  0  0
 11 12  1  0  0  0  0
 11 13  1  0  0  0  0
 11 14  1  0  0  0  0
 14 15  1  0  0  0  0
 14 16  1  0  0  0  0
 14 17  1  0  0  0  0
M  END
> <VConfSearch Rank>
50

> <Conf_Id>
36

> <Delta U+W>
0.275

> <U+W>
-15.590

> <U>
45.174

> <W>
-60.765

> <W(PB)>
-62.518

> <W(SA)>
1.754

> <Valence>
1.161

> <Coulomb>
43.789

> <VdW>
0.224

> <VdW6>
-2.897

> <VdW12>
3.121

> <Bond>
0.100

> <Angle>
0.500

> <Pdih>
0.561

> <Idih>
0.000

> <Tether>
0.000

$$$$
VeraChem MOL file


 17 16  0  0  0  0  0  0  0  0999 V2000     
   21.6701   19.1272   20.9406 N   0  3  0  0  0  0  0  0  0  0  0  0
   21.4850   18.1879   21.3016 H   0  0  0  0  0  0  0  0  0  0  0  0
   22.2071   19.6249   21.6572 H   0  0  0  0  0  0  0  0  0  0  0  0
   22.2851   19.0229   20.1272 H   0  0  0  0  0  0  0  0  0  0  0  0
   20.3881   19.8571   20.5888 C   0  0  0  0  0  0  0  0  0  0  0  0
   19.8934   19.3193   19.7755 H   0  0  0  0  0  0  0  0  0  0  0  0
   20.6742   20.8444   20.2160 H   0  0  0  0  0  0  0  0  0  0  0  0
   19.4114   20.0297   21.7711 C   0  0  0  0  0  0  0  0  0  0  0  0
   19.9608   20.3389   22.6701 H   0  0  0  0  0  0  0  0  0  0  0  0
   18.7367   20.8617   21.5293 H   0  0  0  0  0  0  0  0  0  0  0  0
   18.5412   18.7830   22.0732 C   0  0  0  0  0  0  0  0  0  0  0  0
   17.9488   18.5217   21.1850 H   0  0  0  0  0  0  0  0  0  0  0  0
   17.8157   19.0486   22.8548 H   0  0  0  0  0  0  0  0  0  0  0  0
   19.3391   17.5452   22.5425 C   0  0  0  0  0  0  0  0  0  0  0  0
   19.9276   17.1123   21.7252 H   0  0  0  0  0  0  0  0  0  0  0  0
   18.6548   16.7631   22.8961 H   0  0  0  0  0  0  0  0  0  0  0  0
   20.0140   17.7967   23.3710 H   0  0  0  0  0  0  0  0  0  0  0  0
  1  2  1  0  0  0  0
  1  3  1  0  0  0  0
  1  4  1  0  0  0  0
  1  5  1  0  0  0  0
  5  6  1  0  0  0  0
  5  7  1  0  0  0  0
  5  8  1  0  0  0  0
  8  9  1  0  0  0  0
  8 10  1  0  0  0  0
  8 11  1  0  0  0  0
 11 12  1  0  0  0  0
 11 13  1  0  0  0  0
 11 14  1  0  0  0  0
 14 15  1  0  0  0  0
 14 16  1  0  0  0  0
 14 17  1  0  0  0  0
M  END
> <VConfSearch Rank>
51

> <Conf_Id>
19

> <Delta U+W>
2.662

> <U+W>
-13.203

> <U>
47.423

> <W>
-60.626

> <W(PB)>
-62.328

> <W(SA)>
1.702

> <Valence>
2.414

> <Coulomb>
44.831

> <VdW>
0.178

> <VdW6>
-3.743

> <VdW12>
3.921

> <Bond>
0.138

> <Angle>
0.941

> <Pdih>
1.335

> <Idih>
0.000

> <Tether>
0.000

$$$$
VeraChem MOL file


 17 16  0  0  0  0  0  0  0  0999 V2000     
   21.6991   18.9066   21.2485 N   0  3  0  0  0  0  0  0  0  0  0  0
   22.5652   19.3942   20.9975 H   0  0  0  0  0  0  0  0  0  0  0  0
   21.8847   17.9036   21.1537 H   0  0  0  0  0  0  0  0  0  0  0  0
   21.5269   19.0883   22.2405 H   0  0  0  0  0  0  0  0  0  0  0  0
   20.5329   19.3479   20.3852 C   0  0  0  0  0  0  0  0  0  0  0  0
   20.7966   19.1177   19.3494 H   0  0  0  0  0  0  0  0  0  0  0  0
   20.4253   20.4323   20.4734 H   0  0  0  0  0  0  0  0  0  0  0  0
   19.1942   18.6606   20.7279 C   0  0  0  0  0  0  0  0  0  0  0  0
   18.5407   18.7436   19.8493 H   0  0  0  0  0  0  0  0  0  0  0  0
   19.3533   17.5855   20.8845 H   0  0  0  0  0  0  0  0  0  0  0  0
   18.4465   19.2769   21.9378 C   0  0  0  0  0  0  0  0  0  0  0  0
   17.4674   18.7855   22.0263 H   0  0  0  0  0  0  0  0  0  0  0  0
   18.2373   20.3379   21.7415 H   0  0  0  0  0  0  0  0  0  0  0  0
   19.1899   19.1394   23.2859 C   0  0  0  0  0  0  0  0  0  0  0  0
   19.4977   18.1014   23.4673 H   0  0  0  0  0  0  0  0  0  0  0  0
   18.5355   19.4421   24.1138 H   0  0  0  0  0  0  0  0  0  0  0  0
   20.0761   19.7835   23.3242 H   0  0  0  0  0  0  0  0  0  0  0  0
  1  2  1  0  0  0  0
  1  3  1  0  0  0  0
  1  4  1  0  0  0  0
  1  5  1  0  0  0  0
  5  6  1  0  0  0  0
  5  7  1  0  0  0  0
  5  8  1  0  0  0  0
  8  9  1  0  0  0  0
  8 10  1  0  0  0  0
  8 11  1  0  0  0  0
 11 12  1  0  0  0  0
 11 13  1  0  0  0  0
 11 14  1  0  0  0  0
 14 15  1  0  0  0  0
 14 16  1  0  0  0  0
 14 17  1  0  0  0  0
M  END
> <VConfSearch Rank>
52

> <Conf_Id>
44

> <Delta U+W>
2.712

> <U+W>
-13.153

> <U>
47.423

> <W>
-60.576

> <W(PB)>
-62.262

> <W(SA)>
1.687

> <Valence>
2.414

> <Coulomb>
44.831

> <VdW>
0.178

> <VdW6>
-3.743

> <VdW12>
3.922

> <Bond>
0.138

> <Angle>
0.941

> <Pdih>
1.335

> <Idih>
0.000

> <Tether>
0.000

$$$$
VeraChem MOL file


 17 16  0  0  0  0  0  0  0  0999 V2000     
   20.2860   18.2561   19.8107 N   0  3  0  0  0  0  0  0  0  0  0  0
   21.0775   18.8630   20.0420 H   0  0  0  0  0  0  0  0  0  0  0  0
   19.7480   18.7264   19.0767 H   0  0  0  0  0  0  0  0  0  0  0  0
   20.6742   17.4033   19.3951 H   0  0  0  0  0  0  0  0  0  0  0  0
   19.4356   17.9531   21.0293 C   0  0  0  0  0  0  0  0  0  0  0  0
   20.0600   17.4280   21.7569 H   0  0  0  0  0  0  0  0  0  0  0  0
   18.6369   17.2746   20.7176 H   0  0  0  0  0  0  0  0  0  0  0  0
   18.8159   19.2053   21.6833 C   0  0  0  0  0  0  0  0  0  0  0  0
   18.1589   19.7030   20.9577 H   0  0  0  0  0  0  0  0  0  0  0  0
   18.1697   18.8857   22.5116 H   0  0  0  0  0  0  0  0  0  0  0  0
   19.8587   20.2207   22.2135 C   0  0  0  0  0  0  0  0  0  0  0  0
   19.3275   21.0802   22.6458 H   0  0  0  0  0  0  0  0  0  0  0  0
   20.4541   20.6198   21.3812 H   0  0  0  0  0  0  0  0  0  0  0  0
   20.7979   19.6204   23.2846 C   0  0  0  0  0  0  0  0  0  0  0  0
   20.2254   19.2151   24.1290 H   0  0  0  0  0  0  0  0  0  0  0  0
   21.4748   20.3899   23.6780 H   0  0  0  0  0  0  0  0  0  0  0  0
   21.4176   18.8141   22.8725 H   0  0  0  0  0  0  0  0  0  0  0  0
  1  2  1  0  0  0  0
  1  3  1  0  0  0  0
  1  4  1  0  0  0  0
  1  5  1  0  0  0  0
  5  6  1  0  0  0  0
  5  7  1  0  0  0  0
  5  8  1  0  0  0  0
  8  9  1  0  0  0  0
  8 10  1  0  0  0  0
  8 11  1  0  0  0  0
 11 12  1  0  0  0  0
 11 13  1  0  0  0  0
 11 14  1  0  0  0  0
 14 15  1  0  0  0  0
 14 16  1  0  0  0  0
 14 17  1  0  0  0  0
M  END
> <VConfSearch Rank>
53

> <Conf_Id>
1

> <Delta U+W>
0.685

> <U+W>
-15.179

> <U>
45.697

> <W>
-60.876

> <W(PB)>
-62.586

> <W(SA)>
1.710

> <Valence>
1.263

> <Coulomb>
44.179

> <VdW>
0.255

> <VdW6>
-3.552

> <VdW12>
3.807

> <Bond>
0.125

> <Angle>
0.616

> <Pdih>
0.521

> <Idih>
0.000

> <Tether>
0.000

$$$$
VeraChem MOL file


 17 16  0  0  0  0  0  0  0  0999 V2000     
   18.7519   20.4656   22.3108 N   0  3  0  0  0  0  0  0  0  0  0  0
   19.0434   21.3894   21.9775 H   0  0  0  0  0  0  0  0  0  0  0  0
   19.3925   20.1996   23.0641 H   0  0  0  0  0  0  0  0  0  0  0  0
   17.8249   20.5805   22.7330 H   0  0  0  0  0  0  0  0  0  0  0  0
   18.7401   19.4391   21.1946 C   0  0  0  0  0  0  0  0  0  0  0  0
   18.0114   19.7672   20.4483 H   0  0  0  0  0  0  0  0  0  0  0  0
   18.3935   18.4895   21.6104 H   0  0  0  0  0  0  0  0  0  0  0  0
   20.1115   19.2406   20.5165 C   0  0  0  0  0  0  0  0  0  0  0  0
   19.9931   18.5331   19.6851 H   0  0  0  0  0  0  0  0  0  0  0  0
   20.4319   20.1898   20.0669 H   0  0  0  0  0  0  0  0  0  0  0  0
   21.2173   18.7247   21.4707 C   0  0  0  0  0  0  0  0  0  0  0  0
   21.4124   19.4654   22.2581 H   0  0  0  0  0  0  0  0  0  0  0  0
   22.1552   18.6284   20.9060 H   0  0  0  0  0  0  0  0  0  0  0  0
   20.8752   17.3605   22.1125 C   0  0  0  0  0  0  0  0  0  0  0  0
   21.7117   17.0036   22.7271 H   0  0  0  0  0  0  0  0  0  0  0  0
   20.6768   16.6018   21.3444 H   0  0  0  0  0  0  0  0  0  0  0  0
   19.9934   17.4293   22.7618 H   0  0  0  0  0  0  0  0  0  0  0  0
  1  2  1  0  0  0  0
  1  3  1  0  0  0  0
  1  4  1  0  0  0  0
  1  5  1  0  0  0  0
  5  6  1  0  0  0  0
  5  7  1  0  0  0  0
  5  8  1  0  0  0  0
  8  9  1  0  0  0  0
  8 10  1  0  0  0  0
  8 11  1  0  0  0  0
 11 12  1  0  0  0  0
 11 13  1  0  0  0  0
 11 14  1  0  0  0  0
 14 15  1  0  0  0  0
 14 16  1  0  0  0  0
 14 17  1  0  0  0  0
M  END
> <VConfSearch Rank>
54

> <Conf_Id>
43

> <Delta U+W>
0.642

> <U+W>
-15.222

> <U>
45.697

> <W>
-60.919

> <W(PB)>
-62.631

> <W(SA)>
1.712

> <Valence>
1.262

> <Coulomb>
44.179

> <VdW>
0.255

> <VdW6>
-3.552

> <VdW12>
3.807

> <Bond>
0.125

> <Angle>
0.616

> <Pdih>
0.521

> <Idih>
0.000

> <Tether>
0.000

$$$$
VeraChem MOL file


 17 16  0  0  0  0  0  0  0  0999 V2000     
   21.1490   19.4518   19.3635 N   0  3  0  0  0  0  0  0  0  0  0  0
   20.3863   19.1456   18.7518 H   0  0  0  0  0  0  0  0  0  0  0  0
   21.8126   18.6740   19.4292 H   0  0  0  0  0  0  0  0  0  0  0  0
   21.6323   20.2131   18.8760 H   0  0  0  0  0  0  0  0  0  0  0  0
   20.6453   19.8852   20.7258 C   0  0  0  0  0  0  0  0  0  0  0  0
   19.9704   20.7333   20.5821 H   0  0  0  0  0  0  0  0  0  0  0  0
   21.5041   20.2261   21.3105 H   0  0  0  0  0  0  0  0  0  0  0  0
   19.9134   18.7646   21.4867 C   0  0  0  0  0  0  0  0  0  0  0  0
   19.0609   18.4141   20.8897 H   0  0  0  0  0  0  0  0  0  0  0  0
   20.5894   17.9088   21.6157 H   0  0  0  0  0  0  0  0  0  0  0  0
   19.4172   19.2474   22.8674 C   0  0  0  0  0  0  0  0  0  0  0  0
   18.7431   20.1061   22.7391 H   0  0  0  0  0  0  0  0  0  0  0  0
   20.2697   19.6013   23.4642 H   0  0  0  0  0  0  0  0  0  0  0  0
   18.6819   18.1285   23.6365 C   0  0  0  0  0  0  0  0  0  0  0  0
   18.3376   18.4913   24.6137 H   0  0  0  0  0  0  0  0  0  0  0  0
   19.3419   17.2687   23.8105 H   0  0  0  0  0  0  0  0  0  0  0  0
   17.8033   17.7775   23.0796 H   0  0  0  0  0  0  0  0  0  0  0  0
  1  2  1  0  0  0  0
  1  3  1  0  0  0  0
  1  4  1  0  0  0  0
  1  5  1  0  0  0  0
  5  6  1  0  0  0  0
  5  7  1  0  0  0  0
  5  8  1  0  0  0  0
  8  9  1  0  0  0  0
  8 10  1  0  0  0  0
  8 11  1  0  0  0  0
 11 12  1  0  0  0  0
 11 13  1  0  0  0  0
 11 14  1  0  0  0  0
 14 15  1  0  0  0  0
 14 16  1  0  0  0  0
 14 17  1  0  0  0  0
M  END
> <VConfSearch Rank>
55

> <Conf_Id>
7

> <Delta U+W>
0.000

> <U+W>
-15.865

> <U>
44.664

> <W>
-60.529

> <W(PB)>
-62.309

> <W(SA)>
1.780

> <Valence>
0.872

> <Coulomb>
43.648

> <VdW>
0.144

> <VdW6>
-2.370

> <VdW12>
2.515

> <Bond>
0.080

> <Angle>
0.376

> <Pdih>
0.416

> <Idih>
0.000

> <Tether>
0.000

$$$$
VeraChem MOL file


 17 16  0  0  0  0  0  0  0  0999 V2000     
   19.4608   16.8118   22.2453 N   0  3  0  0  0  0  0  0  0  0  0  0
   18.7401   16.4408   21.6187 H   0  0  0  0  0  0  0  0  0  0  0  0
   19.0083   17.0026   23.1444 H   0  0  0  0  0  0  0  0  0  0  0  0
   20.1320   16.0539   22.4063 H   0  0  0  0  0  0  0  0  0  0  0  0
   20.1302   18.0456   21.6735 C   0  0  0  0  0  0  0  0  0  0  0  0
   20.6151   17.7628   20.7353 H   0  0  0  0  0  0  0  0  0  0  0  0
   20.9037   18.3645   22.3769 H   0  0  0  0  0  0  0  0  0  0  0  0
   19.1485   19.2057   21.4194 C   0  0  0  0  0  0  0  0  0  0  0  0
   18.3537   18.8630   20.7436 H   0  0  0  0  0  0  0  0  0  0  0  0
   18.6602   19.4886   22.3614 H   0  0  0  0  0  0  0  0  0  0  0  0
   19.8367   20.4444   20.7996 C   0  0  0  0  0  0  0  0  0  0  0  0
   19.0722   21.2000   20.5704 H   0  0  0  0  0  0  0  0  0  0  0  0
   20.2977   20.1706   19.8401 H   0  0  0  0  0  0  0  0  0  0  0  0
   20.9025   21.0710   21.7276 C   0  0  0  0  0  0  0  0  0  0  0  0
   20.4684   21.3485   22.6970 H   0  0  0  0  0  0  0  0  0  0  0  0
   21.3201   21.9800   21.2755 H   0  0  0  0  0  0  0  0  0  0  0  0
   21.7352   20.3800   21.9100 H   0  0  0  0  0  0  0  0  0  0  0  0
  1  2  1  0  0  0  0
  1  3  1  0  0  0  0
  1  4  1  0  0  0  0
  1  5  1  0  0  0  0
  5  6  1  0  0  0  0
  5  7  1  0  0  0  0
  5  8  1  0  0  0  0
  8  9  1  0  0  0  0
  8 10  1  0  0  0  0
  8 11  1  0  0  0  0
 11 12  1  0  0  0  0
 11 13  1  0  0  0  0
 11 14  1  0  0  0  0
 14 15  1  0  0  0  0
 14 16  1  0  0  0  0
 14 17  1  0  0  0  0
M  END
> <VConfSearch Rank>
56

> <Conf_Id>
36

> <Delta U+W>
0.275

> <U+W>
-15.590

> <U>
45.174

> <W>
-60.765

> <W(PB)>
-62.518

> <W(SA)>
1.754

> <Valence>
1.161

> <Coulomb>
43.789

> <VdW>
0.224

> <VdW6>
-2.897

> <VdW12>
3.121

> <Bond>
0.100

> <Angle>
0.500

> <Pdih>
0.561

> <Idih>
0.000

> <Tether>
0.000

$$$$
VeraChem MOL file


 17 16  0  0  0  0  0  0  0  0999 V2000     
   19.5096   20.7489   21.1916 N   0  3  0  0  0  0  0  0  0  0  0  0
   18.6741   20.1587   21.2134 H   0  0  0  0  0  0  0  0  0  0  0  0
   19.7606   20.8796   20.2070 H   0  0  0  0  0  0  0  0  0  0  0  0
   19.2395   21.6690   21.5541 H   0  0  0  0  0  0  0  0  0  0  0  0
   20.6484   20.1411   21.9876 C   0  0  0  0  0  0  0  0  0  0  0  0
   20.3499   20.0888   23.0380 H   0  0  0  0  0  0  0  0  0  0  0  0
   21.4950   20.8287   21.9108 H   0  0  0  0  0  0  0  0  0  0  0  0
   21.0890   18.7448   21.4997 C   0  0  0  0  0  0  0  0  0  0  0  0
   21.1504   18.7321   20.4035 H   0  0  0  0  0  0  0  0  0  0  0  0
   22.1115   18.5713   21.8606 H   0  0  0  0  0  0  0  0  0  0  0  0
   20.2014   17.5782   22.0036 C   0  0  0  0  0  0  0  0  0  0  0  0
   20.1992   17.5635   23.1026 H   0  0  0  0  0  0  0  0  0  0  0  0
   20.6622   16.6316   21.6881 H   0  0  0  0  0  0  0  0  0  0  0  0
   18.7454   17.6134   21.4862 C   0  0  0  0  0  0  0  0  0  0  0  0
   18.1760   18.4316   21.9422 H   0  0  0  0  0  0  0  0  0  0  0  0
   18.2281   16.6794   21.7416 H   0  0  0  0  0  0  0  0  0  0  0  0
   18.7129   17.7240   20.3944 H   0  0  0  0  0  0  0  0  0  0  0  0
  1  2  1  0  0  0  0
  1  3  1  0  0  0  0
  1  4  1  0  0  0  0
  1  5  1  0  0  0  0
  5  6  1  0  0  0  0
  5  7  1  0  0  0  0
  5  8  1  0  0  0  0
  8  9  1  0  0  0  0
  8 10  1  0  0  0  0
  8 11  1  0  0  0  0
 11 12  1  0  0  0  0
 11 13  1  0  0  0  0
 11 14  1  0  0  0  0
 14 15  1  0  0  0  0
 14 16  1  0  0  0  0
 14 17  1  0  0  0  0
M  END
> <VConfSearch Rank>
57

> <Conf_Id>
19

> <Delta U+W>
2.662

> <U+W>
-13.203

> <U>
47.423

> <W>
-60.626

> <W(PB)>
-62.328

> <W(SA)>
1.702

> <Valence>
2.414

> <Coulomb>
44.831

> <VdW>
0.178

> <VdW6>
-3.743

> <VdW12>
3.921

> <Bond>
0.138

> <Angle>
0.941

> <Pdih>
1.335

> <Idih>
0.000

> <Tether>
0.000

$$$$
VeraChem MOL file


 17 16  0  0  0  0  0  0  0  0999 V2000     
   20.0421   17.9083   20.1517 N   0  3  0  0  0  0  0  0  0  0  0  0
   20.5257   17.0952   19.7569 H   0  0  0  0  0  0  0  0  0  0  0  0
   19.5067   18.3345   19.3893 H   0  0  0  0  0  0  0  0  0  0  0  0
   19.3659   17.5555   20.8337 H   0  0  0  0  0  0  0  0  0  0  0  0
   21.0115   18.8920   20.7781 C   0  0  0  0  0  0  0  0  0  0  0  0
   21.6919   19.2184   19.9868 H   0  0  0  0  0  0  0  0  0  0  0  0
   21.6005   18.3666   21.5346 H   0  0  0  0  0  0  0  0  0  0  0  0
   20.3402   20.1313   21.4068 C   0  0  0  0  0  0  0  0  0  0  0  0
   21.0977   20.9232   21.4765 H   0  0  0  0  0  0  0  0  0  0  0  0
   19.5616   20.5176   20.7357 H   0  0  0  0  0  0  0  0  0  0  0  0
   19.7620   19.8985   22.8260 C   0  0  0  0  0  0  0  0  0  0  0  0
   19.4067   20.8622   23.2172 H   0  0  0  0  0  0  0  0  0  0  0  0
   20.5642   19.5730   23.5031 H   0  0  0  0  0  0  0  0  0  0  0  0
   18.5969   18.8845   22.8830 C   0  0  0  0  0  0  0  0  0  0  0  0
   17.8191   19.1293   22.1480 H   0  0  0  0  0  0  0  0  0  0  0  0
   18.1310   18.8957   23.8769 H   0  0  0  0  0  0  0  0  0  0  0  0
   18.9452   17.8609   22.7025 H   0  0  0  0  0  0  0  0  0  0  0  0
  1  2  1  0  0  0  0
  1  3  1  0  0  0  0
  1  4  1  0  0  0  0
  1  5  1  0  0  0  0
  5  6  1  0  0  0  0
  5  7  1  0  0  0  0
  5  8  1  0  0  0  0
  8  9  1  0  0  0  0
  8 10  1  0  0  0  0
  8 11  1  0  0  0  0
 11 12  1  0  0  0  0
 11 13  1  0  0  0  0
 11 14  1  0  0  0  0
 14 15  1  0  0  0  0
 14 16  1  0  0  0  0
 14 17  1  0  0  0  0
M  END
> <VConfSearch Rank>
58

> <Conf_Id>
44

> <Delta U+W>
2.712

> <U+W>
-13.153

> <U>
47.423

> <W>
-60.576

> <W(PB)>
-62.262

> <W(SA)>
1.687

> <Valence>
2.414

> <Coulomb>
44.831

> <VdW>
0.178

> <VdW6>
-3.743

> <VdW12>
3.922

> <Bond>
0.138

> <Angle>
0.941

> <Pdih>
1.335

> <Idih>
0.000

> <Tether>
0.000

$$$$
VeraChem MOL file


 17 16  0  0  0  0  0  0  0  0999 V2000     
   20.5550   20.8604   21.1273 N   0  3  0  0  0  0  0  0  0  0  0  0
   19.7008   20.9738   21.6803 H   0  0  0  0  0  0  0  0  0  0  0  0
   20.3231   21.1007   20.1589 H   0  0  0  0  0  0  0  0  0  0  0  0
   21.2212   21.5659   21.4576 H   0  0  0  0  0  0  0  0  0  0  0  0
   21.1168   19.4565   21.2429 C   0  0  0  0  0  0  0  0  0  0  0  0
   21.3692   19.2770   22.2912 H   0  0  0  0  0  0  0  0  0  0  0  0
   22.0421   19.4192   20.6615 H   0  0  0  0  0  0  0  0  0  0  0  0
   20.1555   18.3580   20.7438 C   0  0  0  0  0  0  0  0  0  0  0  0
   19.9403   18.5236   19.6798 H   0  0  0  0  0  0  0  0  0  0  0  0
   20.6678   17.3887   20.8047 H   0  0  0  0  0  0  0  0  0  0  0  0
   18.8240   18.2806   21.5315 C   0  0  0  0  0  0  0  0  0  0  0  0
   18.2022   17.4847   21.0981 H   0  0  0  0  0  0  0  0  0  0  0  0
   18.2555   19.2120   21.4048 H   0  0  0  0  0  0  0  0  0  0  0  0
   19.0270   17.9953   23.0373 C   0  0  0  0  0  0  0  0  0  0  0  0
   19.5927   17.0671   23.1903 H   0  0  0  0  0  0  0  0  0  0  0  0
   18.0586   17.8840   23.5420 H   0  0  0  0  0  0  0  0  0  0  0  0
   19.5670   18.8113   23.5338 H   0  0  0  0  0  0  0  0  0  0  0  0
  1  2  1  0  0  0  0
  1  3  1  0  0  0  0
  1  4  1  0  0  0  0
  1  5  1  0  0  0  0
  5  6  1  0  0  0  0
  5  7  1  0  0  0  0
  5  8  1  0  0  0  0
  8  9  1  0  0  0  0
  8 10  1  0  0  0  0
  8 11  1  0  0  0  0
 11 12  1  0  0  0  0
 11 13  1  0  0  0  0
 11 14  1  0  0  0  0
 14 15  1  0  0  0  0
 14 16  1  0  0  0  0
 14 17  1  0  0  0  0
M  END
> <VConfSearch Rank>
59

> <Conf_Id>
1

> <Delta U+W>
0.685

> <U+W>
-15.179

> <U>
45.697

> <W>
-60.876

> <W(PB)>
-62.586

> <W(SA)>
1.710

> <Valence>
1.263

> <Coulomb>
44.179

> <VdW>
0.255

> <VdW6>
-3.552

> <VdW12>
3.807

> <Bond>
0.125

> <Angle>
0.616

> <Pdih>
0.521

> <Idih>
0.000

> <Tether>
0.000

$$$$
VeraChem MOL file


 17 16  0  0  0  0  0  0  0  0999 V2000     
   19.1064   17.5609   20.5426 N   0  3  0  0  0  0  0  0  0  0  0  0
   18.2273   17.2420   20.9608 H   0  0  0  0  0  0  0  0  0  0  0  0
   19.8684   17.1498   21.0893 H   0  0  0  0  0  0  0  0  0  0  0  0
   19.1559   17.1506   19.6046 H   0  0  0  0  0  0  0  0  0  0  0  0
   19.1973   19.0742   20.5018 C   0  0  0  0  0  0  0  0  0  0  0  0
   18.3800   19.4400   19.8743 H   0  0  0  0  0  0  0  0  0  0  0  0
   20.1403   19.3448   20.0199 H   0  0  0  0  0  0  0  0  0  0  0  0
   19.1126   19.7408   21.8905 C   0  0  0  0  0  0  0  0  0  0  0  0
   19.1215   20.8308   21.7579 H   0  0  0  0  0  0  0  0  0  0  0  0
   18.1452   19.4966   22.3491 H   0  0  0  0  0  0  0  0  0  0  0  0
   20.2554   19.3357   22.8546 C   0  0  0  0  0  0  0  0  0  0  0  0
   20.2039   18.2598   23.0702 H   0  0  0  0  0  0  0  0  0  0  0  0
   20.1041   19.8453   23.8165 H   0  0  0  0  0  0  0  0  0  0  0  0
   21.6590   19.6915   22.3132 C   0  0  0  0  0  0  0  0  0  0  0  0
   22.4309   19.4473   23.0545 H   0  0  0  0  0  0  0  0  0  0  0  0
   21.7360   20.7637   22.0907 H   0  0  0  0  0  0  0  0  0  0  0  0
   21.8919   19.1341   21.3972 H   0  0  0  0  0  0  0  0  0  0  0  0
  1  2  1  0  0  0  0
  1  3  1  0  0  0  0
  1  4  1  0  0  0  0
  1  5  1  0  0  0  0
  5  6  1  0  0  0  0
  5  7  1  0  0  0  0
  5  8  1  0  0  0  0
  8  9  1  0  0  0  0
  8 10  1  0  0  0  0
  8 11  1  0  0  0  0
 11 12  1  0  0  0  0
 11 13  1  0  0  0  0
 11 14  1  0  0  0  0
 14 15  1  0  0  0  0
 14 16  1  0  0  0  0
 14 17  1  0  0  0  0
M  END
> <VConfSearch Rank>
60

> <Conf_Id>
43

> <Delta U+W>
0.642

> <U+W>
-15.222

> <U>
45.697

> <W>
-60.919

> <W(PB)>
-62.631

> <W(SA)>
1.712

> <Valence>
1.262

> <Coulomb>
44.179

> <VdW>
0.255

> <VdW6>
-3.552

> <VdW12>
3.807

> <Bond>
0.125

> <Angle>
0.616

> <Pdih>
0.521

> <Idih>
0.000

> <Tether>
0.000

$$$$
VeraChem MOL file


 17 16  0  0  0  0  0  0  0  0999 V2000     
   21.7740   18.7906   19.8105 N   0  3  0  0  0  0  0  0  0  0  0  0
   21.8408   19.7763   19.5395 H   0  0  0  0  0  0  0  0  0  0  0  0
   21.1963   18.3232   19.1051 H   0  0  0  0  0  0  0  0  0  0  0  0
   22.7169   18.3966   19.7296 H   0  0  0  0  0  0  0  0  0  0  0  0
   21.2111   18.6225   21.2078 C   0  0  0  0  0  0  0  0  0  0  0  0
   21.8908   19.1168   21.9072 H   0  0  0  0  0  0  0  0  0  0  0  0
   21.1978   17.5542   21.4402 H   0  0  0  0  0  0  0  0  0  0  0  0
   19.7942   19.2039   21.3650 C   0  0  0  0  0  0  0  0  0  0  0  0
   19.8084   20.2733   21.1158 H   0  0  0  0  0  0  0  0  0  0  0  0
   19.1178   18.7160   20.6505 H   0  0  0  0  0  0  0  0  0  0  0  0
   19.2589   19.0122   22.8010 C   0  0  0  0  0  0  0  0  0  0  0  0
   19.9373   19.4975   23.5169 H   0  0  0  0  0  0  0  0  0  0  0  0
   19.2475   17.9421   23.0522 H   0  0  0  0  0  0  0  0  0  0  0  0
   17.8379   19.5930   22.9663 C   0  0  0  0  0  0  0  0  0  0  0  0
   17.4761   19.4469   23.9924 H   0  0  0  0  0  0  0  0  0  0  0  0
   17.1288   19.1025   22.2867 H   0  0  0  0  0  0  0  0  0  0  0  0
   17.8240   20.6702   22.7551 H   0  0  0  0  0  0  0  0  0  0  0  0
  1  2  1  0  0  0  0
  1  3  1  0  0  0  0
  1  4  1  0  0  0  0
  1  5  1  0  0  0  0
  5  6  1  0  0  0  0
  5  7  1  0  0  0  0
  5  8  1  0  0  0  0
  8  9  1  0  0  0  0
  8 10  1  0  0  0  0
  8 11  1  0  0  0  0
 11 12  1  0  0  0  0
 11 13  1  0  0  0  0
 11 14  1  0  0  0  0
 14 15  1  0  0  0  0
 14 16  1  0  0  0  0
 14 17  1  0  0  0  0
M  END
> <VConfSearch Rank>
61

> <Conf_Id>
7

> <Delta U+W>
0.000

> <U+W>
-15.865

> <U>
44.664

> <W>
-60.529

> <W(PB)>
-62.309

> <W(SA)>
1.780

> <Valence>
0.872

> <Coulomb>
43.648

> <VdW>
0.144

> <VdW6>
-2.370

> <VdW12>
2.515

> <Bond>
0.080

> <Angle>
0.376

> <Pdih>
0.416

> <Idih>
0.000

> <Tether>
0.000

$$$$
VeraChem MOL file


 17 16  0  0  0  0  0  0  0  0999 V2000     
   20.6948   19.8745   23.7731 N   0  3  0  0  0  0  0  0  0  0  0  0
   21.7169   19.9431   23.7527 H   0  0  0  0  0  0  0  0  0  0  0  0
   20.4604   19.0378   24.3159 H   0  0  0  0  0  0  0  0  0  0  0  0
   20.3545   20.6799   24.3081 H   0  0  0  0  0  0  0  0  0  0  0  0
   20.1008   19.8318   22.3793 C   0  0  0  0  0  0  0  0  0  0  0  0
   20.3640   20.7634   21.8711 H   0  0  0  0  0  0  0  0  0  0  0  0
   19.0130   19.7910   22.4790 H   0  0  0  0  0  0  0  0  0  0  0  0
   20.5917   18.6317   21.5470 C   0  0  0  0  0  0  0  0  0  0  0  0
   21.6878   18.6600   21.4868 H   0  0  0  0  0  0  0  0  0  0  0  0
   20.3288   17.6961   22.0583 H   0  0  0  0  0  0  0  0  0  0  0  0
   20.0091   18.6212   20.1144 C   0  0  0  0  0  0  0  0  0  0  0  0
   20.4590   17.7908   19.5522 H   0  0  0  0  0  0  0  0  0  0  0  0
   20.2994   19.5424   19.5897 H   0  0  0  0  0  0  0  0  0  0  0  0
   18.4706   18.4720   20.0888 C   0  0  0  0  0  0  0  0  0  0  0  0
   18.1532   17.5609   20.6126 H   0  0  0  0  0  0  0  0  0  0  0  0
   18.1072   18.4076   19.0550 H   0  0  0  0  0  0  0  0  0  0  0  0
   17.9742   19.3293   20.5608 H   0  0  0  0  0  0  0  0  0  0  0  0
  1  2  1  0  0  0  0
  1  3  1  0  0  0  0
  1  4  1  0  0  0  0
  1  5  1  0  0  0  0
  5  6  1  0  0  0  0
  5  7  1  0  0  0  0
  5  8  1  0  0  0  0
  8  9  1  0  0  0  0
  8 10  1  0  0  0  0
  8 11  1  0  0  0  0
 11 12  1  0  0  0  0
 11 13  1  0  0  0  0
 11 14  1  0  0  0  0
 14 15  1  0  0  0  0
 14 16  1  0  0  0  0
 14 17  1  0  0  0  0
M  END
> <VConfSearch Rank>
62

> <Conf_Id>
36

> <Delta U+W>
0.275

> <U+W>
-15.590

> <U>
45.174

> <W>
-60.765

> <W(PB)>
-62.518

> <W(SA)>
1.754

> <Valence>
1.161

> <Coulomb>
43.789

> <VdW>
0.224

> <VdW6>
-2.897

> <VdW12>
3.121

> <Bond>
0.100

> <Angle>
0.500

> <Pdih>
0.561

> <Idih>
0.000

> <Tether>
0.000

$$$$
VeraChem MOL file


 17 16  0  0  0  0  0  0  0  0999 V2000     
   20.9182   20.3813   20.8586 N   0  3  0  0  0  0  0  0  0  0  0  0
   20.2940   19.9567   20.1680 H   0  0  0  0  0  0  0  0  0  0  0  0
   21.8564   20.0076   20.6866 H   0  0  0  0  0  0  0  0  0  0  0  0
   20.9563   21.3853   20.6551 H   0  0  0  0  0  0  0  0  0  0  0  0
   20.4549   20.1103   22.2770 C   0  0  0  0  0  0  0  0  0  0  0  0
   19.4826   20.5885   22.4230 H   0  0  0  0  0  0  0  0  0  0  0  0
   21.1727   20.5933   22.9456 H   0  0  0  0  0  0  0  0  0  0  0  0
   20.3601   18.6130   22.6383 C   0  0  0  0  0  0  0  0  0  0  0  0
   21.2444   18.0798   22.2648 H   0  0  0  0  0  0  0  0  0  0  0  0
   20.3980   18.5295   23.7326 H   0  0  0  0  0  0  0  0  0  0  0  0
   19.0643   17.9152   22.1518 C   0  0  0  0  0  0  0  0  0  0  0  0
   18.1884   18.4198   22.5834 H   0  0  0  0  0  0  0  0  0  0  0  0
   19.0521   16.8911   22.5508 H   0  0  0  0  0  0  0  0  0  0  0  0
   18.9138   17.8465   20.6151 C   0  0  0  0  0  0  0  0  0  0  0  0
   18.7119   18.8349   20.1860 H   0  0  0  0  0  0  0  0  0  0  0  0
   18.0697   17.1991   20.3440 H   0  0  0  0  0  0  0  0  0  0  0  0
   19.8152   17.4329   20.1444 H   0  0  0  0  0  0  0  0  0  0  0  0
  1  2  1  0  0  0  0
  1  3  1  0  0  0  0
  1  4  1  0  0  0  0
  1  5  1  0  0  0  0
  5  6  1  0  0  0  0
  5  7  1  0  0  0  0
  5  8  1  0  0  0  0
  8  9  1  0  0  0  0
  8 10  1  0  0  0  0
  8 11  1  0  0  0  0
 11 12  1  0  0  0  0
 11 13  1  0  0  0  0
 11 14  1  0  0  0  0
 14 15  1  0  0  0  0
 14 16  1  0  0  0  0
 14 17  1  0  0  0  0
M  END
> <VConfSearch Rank>
63

> <Conf_Id>
19

> <Delta U+W>
2.662

> <U+W>
-13.203

> <U>
47.423

> <W>
-60.626

> <W(PB)>
-62.328

> <W(SA)>
1.702

> <Valence>
2.414

> <Coulomb>
44.831

> <VdW>
0.178

> <VdW6>
-3.743

> <VdW12>
3.921

> <Bond>
0.138

> <Angle>
0.941

> <Pdih>
1.335

> <Idih>
0.000

> <Tether>
0.000

$$$$
VeraChem MOL file


 17 16  0  0  0  0  0  0  0  0999 V2000     
   19.0773   20.0803   22.9316 N   0  3  0  0  0  0  0  0  0  0  0  0
   18.2224   20.5469   23.2515 H   0  0  0  0  0  0  0  0  0  0  0  0
   19.8372   20.4048   23.5372 H   0  0  0  0  0  0  0  0  0  0  0  0
   18.9589   19.0794   23.1074 H   0  0  0  0  0  0  0  0  0  0  0  0
   19.3617   20.3645   21.4692 C   0  0  0  0  0  0  0  0  0  0  0  0
   19.4757   21.4474   21.3702 H   0  0  0  0  0  0  0  0  0  0  0  0
   18.4921   20.0612   20.8802 H   0  0  0  0  0  0  0  0  0  0  0  0
   20.6291   19.6736   20.9235 C   0  0  0  0  0  0  0  0  0  0  0  0
   20.9497   20.2215   20.0275 H   0  0  0  0  0  0  0  0  0  0  0  0
   21.4504   19.7707   21.6458 H   0  0  0  0  0  0  0  0  0  0  0  0
   20.4315   18.1878   20.5282 C   0  0  0  0  0  0  0  0  0  0  0  0
   21.3579   17.8287   20.0582 H   0  0  0  0  0  0  0  0  0  0  0  0
   19.6507   18.1108   19.7585 H   0  0  0  0  0  0  0  0  0  0  0  0
   20.0844   17.2531   21.7092 C   0  0  0  0  0  0  0  0  0  0  0  0
   20.7948   17.3761   22.5371 H   0  0  0  0  0  0  0  0  0  0  0  0
   20.1252   16.2039   21.3888 H   0  0  0  0  0  0  0  0  0  0  0  0
   19.0702   17.4362   22.0826 H   0  0  0  0  0  0  0  0  0  0  0  0
  1  2  1  0  0  0  0
  1  3  1  0  0  0  0
  1  4  1  0  0  0  0
  1  5  1  0  0  0  0
  5  6  1  0  0  0  0
  5  7  1  0  0  0  0
  5  8  1  0  0  0  0
  8  9  1  0  0  0  0
  8 10  1  0  0  0  0
  8 11  1  0  0  0  0
 11 12  1  0  0  0  0
 11 13  1  0  0  0  0
 11 14  1  0  0  0  0
 14 15  1  0  0  0  0
 14 16  1  0  0  0  0
 14 17  1  0  0  0  0
M  END
> <VConfSearch Rank>
64

> <Conf_Id>
44

> <Delta U+W>
2.712

> <U+W>
-13.153

> <U>
47.423

> <W>
-60.576

> <W(PB)>
-62.262

> <W(SA)>
1.687

> <Valence>
2.414

> <Coulomb>
44.831

> <VdW>
0.178

> <VdW6>
-3.743

> <VdW12>
3.922

> <Bond>
0.138

> <Angle>
0.941

> <Pdih>
1.335

> <Idih>
0.000

> <Tether>
0.000

$$$$
VeraChem MOL file


 17 16  0  0  0  0  0  0  0  0999 V2000     
   18.2436   19.6278   20.7089 N   0  3  0  0  0  0  0  0  0  0  0  0
   18.5841   20.4187   21.2630 H   0  0  0  0  0  0  0  0  0  0  0  0
   17.4149   19.2589   21.1849 H   0  0  0  0  0  0  0  0  0  0  0  0
   17.9269   20.0062   19.8104 H   0  0  0  0  0  0  0  0  0  0  0  0
   19.3119   18.5666   20.5288 C   0  0  0  0  0  0  0  0  0  0  0  0
   20.1504   19.0169   19.9913 H   0  0  0  0  0  0  0  0  0  0  0  0
   18.8932   17.7759   19.9003 H   0  0  0  0  0  0  0  0  0  0  0  0
   19.8116   17.9549   21.8540 C   0  0  0  0  0  0  0  0  0  0  0  0
   18.9705   17.4699   22.3669 H   0  0  0  0  0  0  0  0  0  0  0  0
   20.5301   17.1571   21.6236 H   0  0  0  0  0  0  0  0  0  0  0  0
   20.4754   18.9778   22.8092 C   0  0  0  0  0  0  0  0  0  0  0  0
   20.7844   18.4566   23.7262 H   0  0  0  0  0  0  0  0  0  0  0  0
   19.7419   19.7331   23.1225 H   0  0  0  0  0  0  0  0  0  0  0  0
   21.7077   19.6748   22.1884 C   0  0  0  0  0  0  0  0  0  0  0  0
   22.4571   18.9396   21.8678 H   0  0  0  0  0  0  0  0  0  0  0  0
   22.1835   20.3399   22.9207 H   0  0  0  0  0  0  0  0  0  0  0  0
   21.4316   20.2841   21.3186 H   0  0  0  0  0  0  0  0  0  0  0  0
  1  2  1  0  0  0  0
  1  3  1  0  0  0  0
  1  4  1  0  0  0  0
  1  5  1  0  0  0  0
  5  6  1  0  0  0  0
  5  7  1  0  0  0  0
  5  8  1  0  0  0  0
  8  9  1  0  0  0  0
  8 10  1  0  0  0  0
  8 11  1  0  0  0  0
 11 12  1  0  0  0  0
 11 13  1  0  0  0  0
 11 14  1  0  0  0  0
 14 15  1  0  0  0  0
 14 16  1  0  0  0  0
 14 17  1  0  0  0  0
M  END
> <VConfSearch Rank>
65

> <Conf_Id>
1

> <Delta U+W>
0.685

> <U+W>
-15.179

> <U>
45.697

> <W>
-60.876

> <W(PB)>
-62.586

> <W(SA)>
1.710

> <Valence>
1.263

> <Coulomb>
44.179

> <VdW>
0.255

> <VdW6>
-3.552

> <VdW12>
3.807

> <Bond>
0.125

> <Angle>
0.616

> <Pdih>
0.521

> <Idih>
0.000

> <Tether>
0.000

$$$$
VeraChem MOL file


 17 16  0  0  0  0  0  0  0  0999 V2000     
   18.5285   20.2694   22.2753 N   0  3  0  0  0  0  0  0  0  0  0  0
   17.6598   19.7729   22.4952 H   0  0  0  0  0  0  0  0  0  0  0  0
   18.5639   20.3816   21.2581 H   0  0  0  0  0  0  0  0  0  0  0  0
   18.4444   21.2086   22.6772 H   0  0  0  0  0  0  0  0  0  0  0  0
   19.7476   19.5374   22.8025 C   0  0  0  0  0  0  0  0  0  0  0  0
   19.6610   19.4876   23.8913 H   0  0  0  0  0  0  0  0  0  0  0  0
   20.6318   20.1327   22.5608 H   0  0  0  0  0  0  0  0  0  0  0  0
   19.9103   18.1112   22.2373 C   0  0  0  0  0  0  0  0  0  0  0  0
   20.7757   17.6386   22.7204 H   0  0  0  0  0  0  0  0  0  0  0  0
   19.0362   17.5096   22.5200 H   0  0  0  0  0  0  0  0  0  0  0  0
   20.0942   18.0599   20.7000 C   0  0  0  0  0  0  0  0  0  0  0  0
   19.1959   18.4457   20.1992 H   0  0  0  0  0  0  0  0  0  0  0  0
   20.1868   17.0096   20.3897 H   0  0  0  0  0  0  0  0  0  0  0  0
   21.3372   18.8390   20.2126 C   0  0  0  0  0  0  0  0  0  0  0  0
   21.4648   18.7213   19.1287 H   0  0  0  0  0  0  0  0  0  0  0  0
   22.2497   18.4704   20.6990 H   0  0  0  0  0  0  0  0  0  0  0  0
   21.2481   19.9127   20.4205 H   0  0  0  0  0  0  0  0  0  0  0  0
  1  2  1  0  0  0  0
  1  3  1  0  0  0  0
  1  4  1  0  0  0  0
  1  5  1  0  0  0  0
  5  6  1  0  0  0  0
  5  7  1  0  0  0  0
  5  8  1  0  0  0  0
  8  9  1  0  0  0  0
  8 10  1  0  0  0  0
  8 11  1  0  0  0  0
 11 12  1  0  0  0  0
 11 13  1  0  0  0  0
 11 14  1  0  0  0  0
 14 15  1  0  0  0  0
 14 16  1  0  0  0  0
 14 17  1  0  0  0  0
M  END
> <VConfSearch Rank>
66

> <Conf_Id>
43

> <Delta U+W>
0.642

> <U+W>
-15.222

> <U>
45.697

> <W>
-60.919

> <W(PB)>
-62.631

> <W(SA)>
1.712

> <Valence>
1.262

> <Coulomb>
44.179

> <VdW>
0.255

> <VdW6>
-3.552

> <VdW12>
3.807

> <Bond>
0.125

> <Angle>
0.616

> <Pdih>
0.521

> <Idih>
0.000

> <Tether>
0.000

$$$$
VeraChem MOL file


 17 16  0  0  0  0  0  0  0  0999 V2000     
   19.5490   17.7699   19.4219 N   0  3  0  0  0  0  0  0  0  0  0  0
   20.5208   17.7461   19.0983 H   0  0  0  0  0  0  0  0  0  0  0  0
   19.0795   18.5219   18.9082 H   0  0  0  0  0  0  0  0  0  0  0  0
   19.1153   16.8908   19.1220 H   0  0  0  0  0  0  0  0  0  0  0  0
   19.4545   17.9620   20.9224 C   0  0  0  0  0  0  0  0  0  0  0  0
   19.9467   17.1122   21.4031 H   0  0  0  0  0  0  0  0  0  0  0  0
   18.3967   17.9464   21.1987 H   0  0  0  0  0  0  0  0  0  0  0  0
   20.0968   19.2743   21.4077 C   0  0  0  0  0  0  0  0  0  0  0  0
   21.1550   19.2932   21.1149 H   0  0  0  0  0  0  0  0  0  0  0  0
   19.6103   20.1246   20.9113 H   0  0  0  0  0  0  0  0  0  0  0  0
   19.9789   19.4304   22.9398 C   0  0  0  0  0  0  0  0  0  0  0  0
   20.4628   18.5779   23.4372 H   0  0  0  0  0  0  0  0  0  0  0  0
   18.9199   19.4083   23.2339 H   0  0  0  0  0  0  0  0  0  0  0  0
   20.6211   20.7447   23.4340 C   0  0  0  0  0  0  0  0  0  0  0  0
   20.5269   20.8365   24.5239 H   0  0  0  0  0  0  0  0  0  0  0  0
   20.1346   21.6177   22.9798 H   0  0  0  0  0  0  0  0  0  0  0  0
   21.6896   20.7808   23.1846 H   0  0  0  0  0  0  0  0  0  0  0  0
  1  2  1  0  0  0  0
  1  3  1  0  0  0  0
  1  4  1  0  0  0  0
  1  5  1  0  0  0  0
  5  6  1  0  0  0  0
  5  7  1  0  0  0  0
  5  8  1  0  0  0  0
  8  9  1  0  0  0  0
  8 10  1  0  0  0  0
  8 11  1  0  0  0  0
 11 12  1  0  0  0  0
 11 13  1  0  0  0  0
 11 14  1  0  0  0  0
 14 15  1  0  0  0  0
 14 16  1  0  0  0  0
 14 17  1  0  0  0  0
M  END
> <VConfSearch Rank>
67

> <Conf_Id>
7

> <Delta U+W>
0.000

> <U+W>
-15.865

> <U>
44.664

> <W>
-60.529

> <W(PB)>
-62.309

> <W(SA)>
1.780

> <Valence>
0.872

> <Coulomb>
43.648

> <VdW>
0.144

> <VdW6>
-2.370

> <VdW12>
2.515

> <Bond>
0.080

> <Angle>
0.376

> <Pdih>
0.416

> <Idih>
0.000

> <Tether>
0.000

$$$$
VeraChem MOL file


 17 16  0  0  0  0  0  0  0  0999 V2000     
   18.1286   20.0941   20.3586 N   0  3  0  0  0  0  0  0  0  0  0  0
   18.4078   20.1477   19.3743 H   0  0  0  0  0  0  0  0  0  0  0  0
   18.1970   21.0414   20.7426 H   0  0  0  0  0  0  0  0  0  0  0  0
   17.1355   19.8401   20.3713 H   0  0  0  0  0  0  0  0  0  0  0  0
   18.9736   19.1042   21.1354 C   0  0  0  0  0  0  0  0  0  0  0  0
   18.8293   18.1154   20.6918 H   0  0  0  0  0  0  0  0  0  0  0  0
   18.6003   19.0772   22.1624 H   0  0  0  0  0  0  0  0  0  0  0  0
   20.4735   19.4567   21.1368 C   0  0  0  0  0  0  0  0  0  0  0  0
   20.8291   19.5207   20.0998 H   0  0  0  0  0  0  0  0  0  0  0  0
   20.6183   20.4506   21.5809 H   0  0  0  0  0  0  0  0  0  0  0  0
   21.3296   18.4185   21.8992 C   0  0  0  0  0  0  0  0  0  0  0  0
   22.3908   18.6844   21.7938 H   0  0  0  0  0  0  0  0  0  0  0  0
   21.2117   17.4290   21.4353 H   0  0  0  0  0  0  0  0  0  0  0  0
   20.9783   18.3324   23.4022 C   0  0  0  0  0  0  0  0  0  0  0  0
   21.0823   19.3108   23.8890 H   0  0  0  0  0  0  0  0  0  0  0  0
   21.6490   17.6306   23.9147 H   0  0  0  0  0  0  0  0  0  0  0  0
   19.9506   17.9801   23.5568 H   0  0  0  0  0  0  0  0  0  0  0  0
  1  2  1  0  0  0  0
  1  3  1  0  0  0  0
  1  4  1  0  0  0  0
  1  5  1  0  0  0  0
  5  6  1  0  0  0  0
  5  7  1  0  0  0  0
  5  8  1  0  0  0  0
  8  9  1  0  0  0  0
  8 10  1  0  0  0  0
  8 11  1  0  0  0  0
 11 12  1  0  0  0  0
 11 13  1  0  0  0  0
 11 14  1  0  0  0  0
 14 15  1  0  0  0  0
 14 16  1  0  0  0  0
 14 17  1  0  0  0  0
M  END
> <VConfSearch Rank>
68

> <Conf_Id>
36

> <Delta U+W>
0.275

> <U+W>
-15.590

> <U>
45.174

> <W>
-60.765

> <W(PB)>
-62.518

> <W(SA)>
1.754

> <Valence>
1.161

> <Coulomb>
43.789

> <VdW>
0.224

> <VdW6>
-2.897

> <VdW12>
3.121

> <Bond>
0.100

> <Angle>
0.500

> <Pdih>
0.561

> <Idih>
0.000

> <Tether>
0.000

$$$$
VeraChem MOL file


 17 16  0  0  0  0  0  0  0  0999 V2000     
   21.7969   18.9641   21.5747 N   0  3  0  0  0  0  0  0  0  0  0  0
   21.4304   18.4452   22.3768 H   0  0  0  0  0  0  0  0  0  0  0  0
   22.0964   19.8808   21.9202 H   0  0  0  0  0  0  0  0  0  0  0  0
   22.6407   18.4755   21.2583 H   0  0  0  0  0  0  0  0  0  0  0  0
   20.7680   19.0878   20.4675 C   0  0  0  0  0  0  0  0  0  0  0  0
   20.5377   18.0869   20.0927 H   0  0  0  0  0  0  0  0  0  0  0  0
   21.2368   19.6524   19.6569 H   0  0  0  0  0  0  0  0  0  0  0  0
   19.4654   19.8003   20.8885 C   0  0  0  0  0  0  0  0  0  0  0  0
   19.7007   20.6902   21.4873 H   0  0  0  0  0  0  0  0  0  0  0  0
   18.9769   20.1708   19.9775 H   0  0  0  0  0  0  0  0  0  0  0  0
   18.4528   18.8979   21.6389 C   0  0  0  0  0  0  0  0  0  0  0  0
   18.1772   18.0443   21.0037 H   0  0  0  0  0  0  0  0  0  0  0  0
   17.5282   19.4711   21.7953 H   0  0  0  0  0  0  0  0  0  0  0  0
   18.9495   18.3816   23.0084 C   0  0  0  0  0  0  0  0  0  0  0  0
   19.7449   17.6362   22.8930 H   0  0  0  0  0  0  0  0  0  0  0  0
   18.1290   17.8957   23.5522 H   0  0  0  0  0  0  0  0  0  0  0  0
   19.3219   19.2039   23.6332 H   0  0  0  0  0  0  0  0  0  0  0  0
  1  2  1  0  0  0  0
  1  3  1  0  0  0  0
  1  4  1  0  0  0  0
  1  5  1  0  0  0  0
  5  6  1  0  0  0  0
  5  7  1  0  0  0  0
  5  8  1  0  0  0  0
  8  9  1  0  0  0  0
  8 10  1  0  0  0  0
  8 11  1  0  0  0  0
 11 12  1  0  0  0  0
 11 13  1  0  0  0  0
 11 14  1  0  0  0  0
 14 15  1  0  0  0  0
 14 16  1  0  0  0  0
 14 17  1  0  0  0  0
M  END
> <VConfSearch Rank>
69

> <Conf_Id>
19

> <Delta U+W>
2.662

> <U+W>
-13.203

> <U>
47.423

> <W>
-60.626

> <W(PB)>
-62.328

> <W(SA)>
1.702

> <Valence>
2.414

> <Coulomb>
44.831

> <VdW>
0.178

> <VdW6>
-3.743

> <VdW12>
3.921

> <Bond>
0.138

> <Angle>
0.941

> <Pdih>
1.335

> <Idih>
0.000

> <Tether>
0.000

$$$$
VeraChem MOL file


 17 16  0  0  0  0  0  0  0  0999 V2000     
   20.9962   20.2913   22.4358 N   0  3  0  0  0  0  0  0  0  0  0  0
   21.5176   20.5327   23.2848 H   0  0  0  0  0  0  0  0  0  0  0  0
   20.9923   21.1262   21.8422 H   0  0  0  0  0  0  0  0  0  0  0  0
   21.5357   19.5747   21.9437 H   0  0  0  0  0  0  0  0  0  0  0  0
   19.5905   19.8184   22.7524 C   0  0  0  0  0  0  0  0  0  0  0  0
   19.0867   20.6381   23.2718 H   0  0  0  0  0  0  0  0  0  0  0  0
   19.6549   18.9714   23.4407 H   0  0  0  0  0  0  0  0  0  0  0  0
   18.7602   19.4225   21.5133 C   0  0  0  0  0  0  0  0  0  0  0  0
   17.6991   19.4704   21.7919 H   0  0  0  0  0  0  0  0  0  0  0  0
   18.8962   20.1660   20.7168 H   0  0  0  0  0  0  0  0  0  0  0  0
   19.0477   17.9975   20.9754 C   0  0  0  0  0  0  0  0  0  0  0  0
   18.3344   17.7822   20.1674 H   0  0  0  0  0  0  0  0  0  0  0  0
   18.8468   17.2576   21.7630 H   0  0  0  0  0  0  0  0  0  0  0  0
   20.4810   17.7962   20.4333 C   0  0  0  0  0  0  0  0  0  0  0  0
   20.7477   18.5789   19.7112 H   0  0  0  0  0  0  0  0  0  0  0  0
   20.5615   16.8288   19.9205 H   0  0  0  0  0  0  0  0  0  0  0  0
   21.2206   17.7938   21.2424 H   0  0  0  0  0  0  0  0  0  0  0  0
  1  2  1  0  0  0  0
  1  3  1  0  0  0  0
  1  4  1  0  0  0  0
  1  5  1  0  0  0  0
  5  6  1  0  0  0  0
  5  7  1  0  0  0  0
  5  8  1  0  0  0  0
  8  9  1  0  0  0  0
  8 10  1  0  0  0  0
  8 11  1  0  0  0  0
 11 12  1  0  0  0  0
 11 13  1  0  0  0  0
 11 14  1  0  0  0  0
 14 15  1  0  0  0  0
 14 16  1  0  0  0  0
 14 17  1  0  0  0  0
M  END
> <VConfSearch Rank>
70

> <Conf_Id>
44

> <Delta U+W>
2.712

> <U+W>
-13.153

> <U>
47.423

> <W>
-60.576

> <W(PB)>
-62.262

> <W(SA)>
1.687

> <Valence>
2.414

> <Coulomb>
44.831

> <VdW>
0.178

> <VdW6>
-3.743

> <VdW12>
3.922

> <Bond>
0.138

> <Angle>
0.941

> <Pdih>
1.335

> <Idih>
0.000

> <Tether>
0.000

$$$$
VeraChem MOL file


 17 16  0  0  0  0  0  0  0  0999 V2000     
   20.3883   17.2142   22.2287 N   0  3  0  0  0  0  0  0  0  0  0  0
   20.4129   17.8303   23.0462 H   0  0  0  0  0  0  0  0  0  0  0  0
   21.3579   16.9754   22.0002 H   0  0  0  0  0  0  0  0  0  0  0  0
   19.9292   16.3460   22.5221 H   0  0  0  0  0  0  0  0  0  0  0  0
   19.6742   17.8621   21.0582 C   0  0  0  0  0  0  0  0  0  0  0  0
   18.6425   18.0626   21.3587 H   0  0  0  0  0  0  0  0  0  0  0  0
   19.6529   17.1382   20.2391 H   0  0  0  0  0  0  0  0  0  0  0  0
   20.3366   19.1669   20.5695 C   0  0  0  0  0  0  0  0  0  0  0  0
   21.3583   18.9479   20.2319 H   0  0  0  0  0  0  0  0  0  0  0  0
   19.7933   19.5270   19.6858 H   0  0  0  0  0  0  0  0  0  0  0  0
   20.3771   20.2904   21.6352 C   0  0  0  0  0  0  0  0  0  0  0  0
   20.8763   21.1693   21.2038 H   0  0  0  0  0  0  0  0  0  0  0  0
   20.9950   19.9794   22.4885 H   0  0  0  0  0  0  0  0  0  0  0  0
   18.9730   20.7041   22.1325 C   0  0  0  0  0  0  0  0  0  0  0  0
   18.3357   21.0206   21.2966 H   0  0  0  0  0  0  0  0  0  0  0  0
   19.0455   21.5445   22.8349 H   0  0  0  0  0  0  0  0  0  0  0  0
   18.4700   19.8799   22.6536 H   0  0  0  0  0  0  0  0  0  0  0  0
  1  2  1  0  0  0  0
  1  3  1  0  0  0  0
  1  4  1  0  0  0  0
  1  5  1  0  0  0  0
  5  6  1  0  0  0  0
  5  7  1  0  0  0  0
  5  8  1  0  0  0  0
  8  9  1  0  0  0  0
  8 10  1  0  0  0  0
  8 11  1  0  0  0  0
 11 12  1  0  0  0  0
 11 13  1  0  0  0  0
 11 14  1  0  0  0  0
 14 15  1  0  0  0  0
 14 16  1  0  0  0  0
 14 17  1  0  0  0  0
M  END
> <VConfSearch Rank>
71

> <Conf_Id>
1

> <Delta U+W>
0.685

> <U+W>
-15.179

> <U>
45.697

> <W>
-60.876

> <W(PB)>
-62.586

> <W(SA)>
1.710

> <Valence>
1.263

> <Coulomb>
44.179

> <VdW>
0.255

> <VdW6>
-3.552

> <VdW12>
3.807

> <Bond>
0.125

> <Angle>
0.616

> <Pdih>
0.521

> <Idih>
0.000

> <Tether>
0.000

$$$$
VeraChem MOL file


 17 16  0  0  0  0  0  0  0  0999 V2000     
   21.7529   19.2885   20.8646 N   0  3  0  0  0  0  0  0  0  0  0  0
   21.8481   20.1992   20.4053 H   0  0  0  0  0  0  0  0  0  0  0  0
   21.2523   18.6735   20.2168 H   0  0  0  0  0  0  0  0  0  0  0  0
   22.6987   18.9073   20.9685 H   0  0  0  0  0  0  0  0  0  0  0  0
   21.0398   19.3994   22.1985 C   0  0  0  0  0  0  0  0  0  0  0  0
   21.6461   20.0364   22.8482 H   0  0  0  0  0  0  0  0  0  0  0  0
   20.9989   18.4027   22.6454 H   0  0  0  0  0  0  0  0  0  0  0  0
   19.6153   19.9827   22.0964 C   0  0  0  0  0  0  0  0  0  0  0  0
   19.2044   20.0854   23.1096 H   0  0  0  0  0  0  0  0  0  0  0  0
   19.6707   20.9991   21.6846 H   0  0  0  0  0  0  0  0  0  0  0  0
   18.6463   19.1322   21.2378 C   0  0  0  0  0  0  0  0  0  0  0  0
   18.9962   19.0963   20.1972 H   0  0  0  0  0  0  0  0  0  0  0  0
   17.6670   19.6304   21.2112 H   0  0  0  0  0  0  0  0  0  0  0  0
   18.4637   17.6944   21.7756 C   0  0  0  0  0  0  0  0  0  0  0  0
   17.7215   17.1507   21.1768 H   0  0  0  0  0  0  0  0  0  0  0  0
   18.1127   17.7037   22.8156 H   0  0  0  0  0  0  0  0  0  0  0  0
   19.4014   17.1261   21.7356 H   0  0  0  0  0  0  0  0  0  0  0  0
  1  2  1  0  0  0  0
  1  3  1  0  0  0  0
  1  4  1  0  0  0  0
  1  5  1  0  0  0  0
  5  6  1  0  0  0  0
  5  7  1  0  0  0  0
  5  8  1  0  0  0  0
  8  9  1  0  0  0  0
  8 10  1  0  0  0  0
  8 11  1  0  0  0  0
 11 12  1  0  0  0  0
 11 13  1  0  0  0  0
 11 14  1  0  0  0  0
 14 15  1  0  0  0  0
 14 16  1  0  0  0  0
 14 17  1  0  0  0  0
M  END
> <VConfSearch Rank>
72

> <Conf_Id>
43

> <Delta U+W>
0.642

> <U+W>
-15.222

> <U>
45.697

> <W>
-60.919

> <W(PB)>
-62.631

> <W(SA)>
1.712

> <Valence>
1.262

> <Coulomb>
44.179

> <VdW>
0.255

> <VdW6>
-3.552

> <VdW12>
3.807

> <Bond>
0.125

> <Angle>
0.616

> <Pdih>
0.521

> <Idih>
0.000

> <Tether>
0.000

$$$$
VeraChem MOL file


 17 16  0  0  0  0  0  0  0  0999 V2000     
   21.1626   16.8195   21.2732 N   0  3  0  0  0  0  0  0  0  0  0  0
   21.5189   16.9981   20.3293 H   0  0  0  0  0  0  0  0  0  0  0  0
   20.3282   16.2333   21.1737 H   0  0  0  0  0  0  0  0  0  0  0  0
   21.8680   16.2517   21.7536 H   0  0  0  0  0  0  0  0  0  0  0  0
   20.8681   18.1042   22.0215 C   0  0  0  0  0  0  0  0  0  0  0  0
   21.8040   18.6615   22.1169 H   0  0  0  0  0  0  0  0  0  0  0  0
   20.5236   17.8391   23.0248 H   0  0  0  0  0  0  0  0  0  0  0  0
   19.8114   18.9824   21.3269 C   0  0  0  0  0  0  0  0  0  0  0  0
   20.1538   19.2338   20.3142 H   0  0  0  0  0  0  0  0  0  0  0  0
   18.8778   18.4143   21.2192 H   0  0  0  0  0  0  0  0  0  0  0  0
   19.5415   20.2794   22.1209 C   0  0  0  0  0  0  0  0  0  0  0  0
   20.4763   20.8470   22.2319 H   0  0  0  0  0  0  0  0  0  0  0  0
   19.2018   20.0285   23.1358 H   0  0  0  0  0  0  0  0  0  0  0  0
   18.4825   21.1655   21.4300 C   0  0  0  0  0  0  0  0  0  0  0  0
   18.3052   22.0811   22.0092 H   0  0  0  0  0  0  0  0  0  0  0  0
   17.5250   20.6367   21.3358 H   0  0  0  0  0  0  0  0  0  0  0  0
   18.8095   21.4616   20.4248 H   0  0  0  0  0  0  0  0  0  0  0  0
  1  2  1  0  0  0  0
  1  3  1  0  0  0  0
  1  4  1  0  0  0  0
  1  5  1  0  0  0  0
  5  6  1  0  0  0  0
  5  7  1  0  0  0  0
  5  8  1  0  0  0  0
  8  9  1  0  0  0  0
  8 10  1  0  0  0  0
  8 11  1  0  0  0  0
 11 12  1  0  0  0  0
 11 13  1  0  0  0  0
 11 14  1  0  0  0  0
 14 15  1  0  0  0  0
 14 16  1  0  0  0  0
 14 17  1  0  0  0  0
M  END
> <VConfSearch Rank>
73

> <Conf_Id>
7

> <Delta U+W>
0.000

> <U+W>
-15.865

> <U>
44.664

> <W>
-60.529

> <W(PB)>
-62.309

> <W(SA)>
1.780

> <Valence>
0.872

> <Coulomb>
43.648

> <VdW>
0.144

> <VdW6>
-2.370

> <VdW12>
2.515

> <Bond>
0.080

> <Angle>
0.376

> <Pdih>
0.416

> <Idih>
0.000

> <Tether>
0.000

$$$$
VeraChem MOL file


 17 16  0  0  0  0  0  0  0  0999 V2000     
   18.7405   17.3893   20.3943 N   0  3  0  0  0  0  0  0  0  0  0  0
   19.4226   16.7994   19.9080 H   0  0  0  0  0  0  0  0  0  0  0  0
   18.3114   17.9964   19.6895 H   0  0  0  0  0  0  0  0  0  0  0  0
   18.0024   16.7667   20.7383 H   0  0  0  0  0  0  0  0  0  0  0  0
   19.3761   18.1844   21.5174 C   0  0  0  0  0  0  0  0  0  0  0  0
   19.7848   17.4765   22.2434 H   0  0  0  0  0  0  0  0  0  0  0  0
   18.5881   18.7619   22.0076 H   0  0  0  0  0  0  0  0  0  0  0  0
   20.4910   19.1319   21.0345 C   0  0  0  0  0  0  0  0  0  0  0  0
   21.2574   18.5471   20.5086 H   0  0  0  0  0  0  0  0  0  0  0  0
   20.0808   19.8418   20.3040 H   0  0  0  0  0  0  0  0  0  0  0  0
   21.1578   19.9082   22.1941 C   0  0  0  0  0  0  0  0  0  0  0  0
   21.9923   20.5008   21.7935 H   0  0  0  0  0  0  0  0  0  0  0  0
   21.5981   19.1992   22.9094 H   0  0  0  0  0  0  0  0  0  0  0  0
   20.1792   20.8501   22.9322 C   0  0  0  0  0  0  0  0  0  0  0  0
   19.7201   21.5658   22.2378 H   0  0  0  0  0  0  0  0  0  0  0  0
   20.7067   21.4246   23.7047 H   0  0  0  0  0  0  0  0  0  0  0  0
   19.3762   20.2898   23.4275 H   0  0  0  0  0  0  0  0  0  0  0  0
  1  2  1  0  0  0  0
  1  3  1  0  0  0  0
  1  4  1  0  0  0  0
  1  5  1  0  0  0  0
  5  6  1  0  0  0  0
  5  7  1  0  0  0  0
  5  8  1  0  0  0  0
  8  9  1  0  0  0  0
  8 10  1  0  0  0  0
  8 11  1  0  0  0  0
 11 12  1  0  0  0  0
 11 13  1  0  0  0  0
 11 14  1  0  0  0  0
 14 15  1  0  0  0  0
 14 16  1  0  0  0  0
 14 17  1  0  0  0  0
M  END
> <VConfSearch Rank>
74

> <Conf_Id>
36

> <Delta U+W>
0.275

> <U+W>
-15.590

> <U>
45.174

> <W>
-60.765

> <W(PB)>
-62.518

> <W(SA)>
1.754

> <Valence>
1.161

> <Coulomb>
43.789

> <VdW>
0.224

> <VdW6>
-2.897

> <VdW12>
3.121

> <Bond>
0.100

> <Angle>
0.500

> <Pdih>
0.561

> <Idih>
0.000

> <Tether>
0.000

$$$$
VeraChem MOL file


 17 16  0  0  0  0  0  0  0  0999 V2000     
   21.0956   17.9636   22.6348 N   0  3  0  0  0  0  0  0  0  0  0  0
   20.1226   17.8254   22.9194 H   0  0  0  0  0  0  0  0  0  0  0  0
   21.5182   18.6083   23.3095 H   0  0  0  0  0  0  0  0  0  0  0  0
   21.5736   17.0634   22.7444 H   0  0  0  0  0  0  0  0  0  0  0  0
   21.1973   18.4871   21.2151 C   0  0  0  0  0  0  0  0  0  0  0  0
   20.7943   17.7312   20.5357 H   0  0  0  0  0  0  0  0  0  0  0  0
   22.2613   18.6072   20.9940 H   0  0  0  0  0  0  0  0  0  0  0  0
   20.4803   19.8338   20.9827 C   0  0  0  0  0  0  0  0  0  0  0  0
   20.6946   20.5214   21.8115 H   0  0  0  0  0  0  0  0  0  0  0  0
   20.9174   20.2957   20.0874 H   0  0  0  0  0  0  0  0  0  0  0  0
   18.9507   19.7176   20.7603 C   0  0  0  0  0  0  0  0  0  0  0  0
   18.7514   19.0775   19.8893 H   0  0  0  0  0  0  0  0  0  0  0  0
   18.5621   20.7125   20.5014 H   0  0  0  0  0  0  0  0  0  0  0  0
   18.1661   19.1852   21.9810 C   0  0  0  0  0  0  0  0  0  0  0  0
   18.3651   18.1212   22.1543 H   0  0  0  0  0  0  0  0  0  0  0  0
   17.0861   19.2878   21.8133 H   0  0  0  0  0  0  0  0  0  0  0  0
   18.4164   19.7458   22.8911 H   0  0  0  0  0  0  0  0  0  0  0  0
  1  2  1  0  0  0  0
  1  3  1  0  0  0  0
  1  4  1  0  0  0  0
  1  5  1  0  0  0  0
  5  6  1  0  0  0  0
  5  7  1  0  0  0  0
  5  8  1  0  0  0  0
  8  9  1  0  0  0  0
  8 10  1  0  0  0  0
  8 11  1  0  0  0  0
 11 12  1  0  0  0  0
 11 13  1  0  0  0  0
 11 14  1  0  0  0  0
 14 15  1  0  0  0  0
 14 16  1  0  0  0  0
 14 17  1  0  0  0  0
M  END
> <VConfSearch Rank>
75

> <Conf_Id>
19

> <Delta U+W>
2.662

> <U+W>
-13.203

> <U>
47.423

> <W>
-60.626

> <W(PB)>
-62.328

> <W(SA)>
1.702

> <Valence>
2.414

> <Coulomb>
44.831

> <VdW>
0.178

> <VdW6>
-3.743

> <VdW12>
3.921

> <Bond>
0.138

> <Angle>
0.941

> <Pdih>
1.335

> <Idih>
0.000

> <Tether>
0.000

$$$$
VeraChem MOL file


 17 16  0  0  0  0  0  0  0  0999 V2000     
   20.2583   18.2479   23.2283 N   0  3  0  0  0  0  0  0  0  0  0  0
   19.8856   17.7343   24.0334 H   0  0  0  0  0  0  0  0  0  0  0  0
   21.2110   18.5336   23.4734 H   0  0  0  0  0  0  0  0  0  0  0  0
   20.3332   17.5829   22.4544 H   0  0  0  0  0  0  0  0  0  0  0  0
   19.3891   19.4367   22.8660 C   0  0  0  0  0  0  0  0  0  0  0  0
   19.3642   20.0929   23.7403 H   0  0  0  0  0  0  0  0  0  0  0  0
   18.3719   19.0809   22.6817 H   0  0  0  0  0  0  0  0  0  0  0  0
   19.8899   20.2409   21.6478 C   0  0  0  0  0  0  0  0  0  0  0  0
   19.4473   21.2443   21.7040 H   0  0  0  0  0  0  0  0  0  0  0  0
   20.9761   20.3867   21.7148 H   0  0  0  0  0  0  0  0  0  0  0  0
   19.5117   19.6295   20.2745 C   0  0  0  0  0  0  0  0  0  0  0  0
   19.8220   20.3301   19.4866 H   0  0  0  0  0  0  0  0  0  0  0  0
   18.4185   19.5476   20.1949 H   0  0  0  0  0  0  0  0  0  0  0  0
   20.1534   18.2526   19.9894 C   0  0  0  0  0  0  0  0  0  0  0  0
   21.2386   18.2770   20.1533 H   0  0  0  0  0  0  0  0  0  0  0  0
   19.9809   17.9613   18.9451 H   0  0  0  0  0  0  0  0  0  0  0  0
   19.7177   17.4677   20.6185 H   0  0  0  0  0  0  0  0  0  0  0  0
  1  2  1  0  0  0  0
  1  3  1  0  0  0  0
  1  4  1  0  0  0  0
  1  5  1  0  0  0  0
  5  6  1  0  0  0  0
  5  7  1  0  0  0  0
  5  8  1  0  0  0  0
  8  9  1  0  0  0  0
  8 10  1  0  0  0  0
  8 11  1  0  0  0  0
 11 12  1  0  0  0  0
 11 13  1  0  0  0  0
 11 14  1  0  0  0  0
 14 15  1  0  0  0  0
 14 16  1  0  0  0  0
 14 17  1  0  0  0  0
M  END
> <VConfSearch Rank>
76

> <Conf_Id>
44

> <Delta U+W>
2.712

> <U+W>
-13.153

> <U>
47.423

> <W>
-60.576

> <W(PB)>
-62.262

> <W(SA)>
1.687

> <Valence>
2.414

> <Coulomb>
44.831

> <VdW>
0.178

> <VdW6>
-3.743

> <VdW12>
3.922

> <Bond>
0.138

> <Angle>
0.941

> <Pdih>
1.335

> <Idih>
0.000

> <Tether>
0.000

$$$$
VeraChem MOL file


 17 16  0  0  0  0  0  0  0  0999 V2000     
   18.2414   19.1650   22.6558 N   0  3  0  0  0  0  0  0  0  0  0  0
   17.9949   19.3408   21.6776 H   0  0  0  0  0  0  0  0  0  0  0  0
   18.1749   20.0597   23.1503 H   0  0  0  0  0  0  0  0  0  0  0  0
   17.5135   18.5561   23.0431 H   0  0  0  0  0  0  0  0  0  0  0  0
   19.6207   18.5481   22.7854 C   0  0  0  0  0  0  0  0  0  0  0  0
   19.6135   17.5878   22.2633 H   0  0  0  0  0  0  0  0  0  0  0  0
   19.8004   18.3544   23.8464 H   0  0  0  0  0  0  0  0  0  0  0  0
   20.7542   19.4344   22.2290 C   0  0  0  0  0  0  0  0  0  0  0  0
   20.7793   20.3799   22.7868 H   0  0  0  0  0  0  0  0  0  0  0  0
   21.7148   18.9393   22.4233 H   0  0  0  0  0  0  0  0  0  0  0  0
   20.6333   19.7345   20.7141 C   0  0  0  0  0  0  0  0  0  0  0  0
   21.4706   20.3797   20.4133 H   0  0  0  0  0  0  0  0  0  0  0  0
   19.7198   20.3113   20.5151 H   0  0  0  0  0  0  0  0  0  0  0  0
   20.6438   18.4586   19.8413 C   0  0  0  0  0  0  0  0  0  0  0  0
   21.5491   17.8646   20.0217 H   0  0  0  0  0  0  0  0  0  0  0  0
   20.6224   18.7208   18.7756 H   0  0  0  0  0  0  0  0  0  0  0  0
   19.7718   17.8238   20.0433 H   0  0  0  0  0  0  0  0  0  0  0  0
  1  2  1  0  0  0  0
  1  3  1  0  0  0  0
  1  4  1  0  0  0  0
  1  5  1  0  0  0  0
  5  6  1  0  0  0  0
  5  7  1  0  0  0  0
  5  8  1  0  0  0  0
  8  9  1  0  0  0  0
  8 10  1  0  0  0  0
  8 11  1  0  0  0  0
 11 12  1  0  0  0  0
 11 13  1  0  0  0  0
 11 14  1  0  0  0  0
 14 15  1  0  0  0  0
 14 16  1  0  0  0  0
 14 17  1  0  0  0  0
M  END
> <VConfSearch Rank>
77

> <Conf_Id>
1

> <Delta U+W>
0.685

> <U+W>
-15.179

> <U>
45.697

> <W>
-60.876

> <W(PB)>
-62.586

> <W(SA)>
1.710

> <Valence>
1.263

> <Coulomb>
44.179

> <VdW>
0.255

> <VdW6>
-3.552

> <VdW12>
3.807

> <Bond>
0.125

> <Angle>
0.616

> <Pdih>
0.521

> <Idih>
0.000

> <Tether>
0.000

$$$$
VeraChem MOL file


 17 16  0  0  0  0  0  0  0  0999 V2000     
   18.8971   17.7361   22.7010 N   0  3  0  0  0  0  0  0  0  0  0  0
   19.5176   17.1179   23.2322 H   0  0  0  0  0  0  0  0  0  0  0  0
   18.8794   17.3914   21.7369 H   0  0  0  0  0  0  0  0  0  0  0  0
   17.9538   17.6094   23.0814 H   0  0  0  0  0  0  0  0  0  0  0  0
   19.3442   19.1835   22.7720 C   0  0  0  0  0  0  0  0  0  0  0  0
   19.3030   19.4937   23.8197 H   0  0  0  0  0  0  0  0  0  0  0  0
   18.6262   19.7884   22.2122 H   0  0  0  0  0  0  0  0  0  0  0  0
   20.7660   19.4237   22.2237 C   0  0  0  0  0  0  0  0  0  0  0  0
   21.0268   20.4797   22.3744 H   0  0  0  0  0  0  0  0  0  0  0  0
   21.4843   18.8437   22.8183 H   0  0  0  0  0  0  0  0  0  0  0  0
   20.9322   19.0669   20.7255 C   0  0  0  0  0  0  0  0  0  0  0  0
   20.7640   17.9922   20.5724 H   0  0  0  0  0  0  0  0  0  0  0  0
   21.9739   19.2558   20.4303 H   0  0  0  0  0  0  0  0  0  0  0  0
   19.9938   19.8774   19.8024 C   0  0  0  0  0  0  0  0  0  0  0  0
   20.1911   19.6404   18.7489 H   0  0  0  0  0  0  0  0  0  0  0  0
   20.1440   20.9565   19.9364 H   0  0  0  0  0  0  0  0  0  0  0  0
   18.9385   19.6513   20.0002 H   0  0  0  0  0  0  0  0  0  0  0  0
  1  2  1  0  0  0  0
  1  3  1  0  0  0  0
  1  4  1  0  0  0  0
  1  5  1  0  0  0  0
  5  6  1  0  0  0  0
  5  7  1  0  0  0  0
  5  8  1  0  0  0  0
  8  9  1  0  0  0  0
  8 10  1  0  0  0  0
  8 11  1  0  0  0  0
 11 12  1  0  0  0  0
 11 13  1  0  0  0  0
 11 14  1  0  0  0  0
 14 15  1  0  0  0  0
 14 16  1  0  0  0  0
 14 17  1  0  0  0  0
M  END
> <VConfSearch Rank>
78

> <Conf_Id>
43

> <Delta U+W>
0.642

> <U+W>
-15.222

> <U>
45.697

> <W>
-60.919

> <W(PB)>
-62.631

> <W(SA)>
1.712

> <Valence>
1.262

> <Coulomb>
44.179

> <VdW>
0.255

> <VdW6>
-3.552

> <VdW12>
3.807

> <Bond>
0.125

> <Angle>
0.616

> <Pdih>
0.521

> <Idih>
0.000

> <Tether>
0.000

$$$$
VeraChem MOL file


 17 16  0  0  0  0  0  0  0  0999 V2000     
   19.7947   16.5424   22.0695 N   0  3  0  0  0  0  0  0  0  0  0  0
   18.9555   16.5700   22.6565 H   0  0  0  0  0  0  0  0  0  0  0  0
   20.5999   16.4723   22.6991 H   0  0  0  0  0  0  0  0  0  0  0  0
   19.7564   15.6661   21.5389 H   0  0  0  0  0  0  0  0  0  0  0  0
   19.8900   17.7495   21.1578 C   0  0  0  0  0  0  0  0  0  0  0  0
   19.0188   17.7431   20.4971 H   0  0  0  0  0  0  0  0  0  0  0  0
   20.7871   17.6380   20.5428 H   0  0  0  0  0  0  0  0  0  0  0  0
   19.9495   19.0843   21.9227 C   0  0  0  0  0  0  0  0  0  0  0  0
   19.0545   19.1856   22.5509 H   0  0  0  0  0  0  0  0  0  0  0  0
   20.8168   19.0809   22.5963 H   0  0  0  0  0  0  0  0  0  0  0  0
   20.0458   20.2866   20.9580 C   0  0  0  0  0  0  0  0  0  0  0  0
   19.1796   20.2886   20.2812 H   0  0  0  0  0  0  0  0  0  0  0  0
   20.9398   20.1841   20.3266 H   0  0  0  0  0  0  0  0  0  0  0  0
   20.1059   21.6292   21.7181 C   0  0  0  0  0  0  0  0  0  0  0  0
   20.1739   22.4700   21.0156 H   0  0  0  0  0  0  0  0  0  0  0  0
   20.9821   21.6709   22.3783 H   0  0  0  0  0  0  0  0  0  0  0  0
   19.2080   21.7762   22.3325 H   0  0  0  0  0  0  0  0  0  0  0  0
  1  2  1  0  0  0  0
  1  3  1  0  0  0  0
  1  4  1  0  0  0  0
  1  5  1  0  0  0  0
  5  6  1  0  0  0  0
  5  7  1  0  0  0  0
  5  8  1  0  0  0  0
  8  9  1  0  0  0  0
  8 10  1  0  0  0  0
  8 11  1  0  0  0  0
 11 12  1  0  0  0  0
 11 13  1  0  0  0  0
 11 14  1  0  0  0  0
 14 15  1  0  0  0  0
 14 16  1  0  0  0  0
 14 17  1  0  0  0  0
M  END
> <VConfSearch Rank>
79

> <Conf_Id>
7

> <Delta U+W>
0.000

> <U+W>
-15.865

> <U>
44.664

> <W>
-60.529

> <W(PB)>
-62.309

> <W(SA)>
1.780

> <Valence>
0.872

> <Coulomb>
43.648

> <VdW>
0.144

> <VdW6>
-2.370

> <VdW12>
2.515

> <Bond>
0.080

> <Angle>
0.376

> <Pdih>
0.416

> <Idih>
0.000

> <Tether>
0.000

$$$$
VeraChem MOL file


 17 16  0  0  0  0  0  0  0  0999 V2000     
   19.0438   19.9433   23.7004 N   0  3  0  0  0  0  0  0  0  0  0  0
   19.0123   20.9662   23.6516 H   0  0  0  0  0  0  0  0  0  0  0  0
   19.8361   19.6952   24.3008 H   0  0  0  0  0  0  0  0  0  0  0  0
   18.1950   19.6440   24.1911 H   0  0  0  0  0  0  0  0  0  0  0  0
   19.1531   19.3123   22.3267 C   0  0  0  0  0  0  0  0  0  0  0  0
   18.2651   19.5933   21.7541 H   0  0  0  0  0  0  0  0  0  0  0  0
   19.1495   18.2267   22.4545 H   0  0  0  0  0  0  0  0  0  0  0  0
   20.4195   19.7413   21.5610 C   0  0  0  0  0  0  0  0  0  0  0  0
   20.4334   20.8358   21.4732 H   0  0  0  0  0  0  0  0  0  0  0  0
   21.3114   19.4606   22.1369 H   0  0  0  0  0  0  0  0  0  0  0  0
   20.4996   19.1218   20.1461 C   0  0  0  0  0  0  0  0  0  0  0  0
   21.3788   19.5291   19.6274 H   0  0  0  0  0  0  0  0  0  0  0  0
   19.6238   19.4291   19.5572 H   0  0  0  0  0  0  0  0  0  0  0  0
   20.5962   17.5790   20.1666 C   0  0  0  0  0  0  0  0  0  0  0  0
   21.4609   17.2450   20.7546 H   0  0  0  0  0  0  0  0  0  0  0  0
   20.7127   17.1871   19.1478 H   0  0  0  0  0  0  0  0  0  0  0  0
   19.6941   17.1239   20.5947 H   0  0  0  0  0  0  0  0  0  0  0  0
  1  2  1  0  0  0  0
  1  3  1  0  0  0  0
  1  4  1  0  0  0  0
  1  5  1  0  0  0  0
  5  6  1  0  0  0  0
  5  7  1  0  0  0  0
  5  8  1  0  0  0  0
  8  9  1  0  0  0  0
  8 10  1  0  0  0  0
  8 11  1  0  0  0  0
 11 12  1  0  0  0  0
 11 13  1  0  0  0  0
 11 14  1  0  0  0  0
 14 15  1  0  0  0  0
 14 16  1  0  0  0  0
 14 17  1  0  0  0  0
M  END
> <VConfSearch Rank>
80

> <Conf_Id>
36

> <Delta U+W>
0.275

> <U+W>
-15.590

> <U>
45.174

> <W>
-60.765

> <W(PB)>
-62.518

> <W(SA)>
1.754

> <Valence>
1.161

> <Coulomb>
43.789

> <VdW>
0.224

> <VdW6>
-2.897

> <VdW12>
3.121

> <Bond>
0.100

> <Angle>
0.500

> <Pdih>
0.561

> <Idih>
0.000

> <Tether>
0.000

$$$$
VeraChem MOL file


 17 16  0  0  0  0  0  0  0  0999 V2000     
   19.0354   20.5282   21.0863 N   0  3  0  0  0  0  0  0  0  0  0  0
   18.8365   19.7512   20.4511 H   0  0  0  0  0  0  0  0  0  0  0  0
   19.7308   21.1232   20.6261 H   0  0  0  0  0  0  0  0  0  0  0  0
   18.1762   21.0817   21.1655 H   0  0  0  0  0  0  0  0  0  0  0  0
   19.5183   20.0396   22.4384 C   0  0  0  0  0  0  0  0  0  0  0  0
   18.7135   19.4697   22.9104 H   0  0  0  0  0  0  0  0  0  0  0  0
   19.7079   20.9261   23.0497 H   0  0  0  0  0  0  0  0  0  0  0  0
   20.8012   19.1837   22.3825 C   0  0  0  0  0  0  0  0  0  0  0  0
   21.5292   19.6422   21.7003 H   0  0  0  0  0  0  0  0  0  0  0  0
   21.2641   19.2088   23.3780 H   0  0  0  0  0  0  0  0  0  0  0  0
   20.5674   17.6991   22.0031 C   0  0  0  0  0  0  0  0  0  0  0  0
   19.8865   17.2346   22.7302 H   0  0  0  0  0  0  0  0  0  0  0  0
   21.5226   17.1635   22.0963 H   0  0  0  0  0  0  0  0  0  0  0  0
   20.0197   17.4834   20.5739 C   0  0  0  0  0  0  0  0  0  0  0  0
   18.9792   17.8172   20.4872 H   0  0  0  0  0  0  0  0  0  0  0  0
   20.0383   16.4164   20.3163 H   0  0  0  0  0  0  0  0  0  0  0  0
   20.6263   18.0161   19.8300 H   0  0  0  0  0  0  0  0  0  0  0  0
  1  2  1  0  0  0  0
  1  3  1  0  0  0  0
  1  4  1  0  0  0  0
  1  5  1  0  0  0  0
  5  6  1  0  0  0  0
  5  7  1  0  0  0  0
  5  8  1  0  0  0  0
  8  9  1  0  0  0  0
  8 10  1  0  0  0  0
  8 11  1  0  0  0  0
 11 12  1  0  0  0  0
 11 13  1  0  0  0  0
 11 14  1  0  0  0  0
 14 15  1  0  0  0  0
 14 16  1  0  0  0  0
 14 17  1  0  0  0  0
M  END
> <VConfSearch Rank>
81

> <Conf_Id>
19

> <Delta U+W>
2.662

> <U+W>
-13.203

> <U>
47.423

> <W>
-60.626

> <W(PB)>
-62.328

> <W(SA)>
1.702

> <Valence>
2.414

> <Coulomb>
44.831

> <VdW>
0.178

> <VdW6>
-3.743

> <VdW12>
3.921

> <Bond>
0.138

> <Angle>
0.941

> <Pdih>
1.335

> <Idih>
0.000

> <Tether>
0.000

$$$$
VeraChem MOL file


 17 16  0  0  0  0  0  0  0  0999 V2000     
   18.4371   19.5118   20.5192 N   0  3  0  0  0  0  0  0  0  0  0  0
   17.8460   20.2653   20.1536 H   0  0  0  0  0  0  0  0  0  0  0  0
   17.9715   18.6295   20.2865 H   0  0  0  0  0  0  0  0  0  0  0  0
   19.3155   19.5359   19.9952 H   0  0  0  0  0  0  0  0  0  0  0  0
   18.6687   19.6502   22.0116 C   0  0  0  0  0  0  0  0  0  0  0  0
   17.6874   19.6127   22.4924 H   0  0  0  0  0  0  0  0  0  0  0  0
   19.1031   20.6344   22.2067 H   0  0  0  0  0  0  0  0  0  0  0  0
   19.5681   18.5527   22.6185 C   0  0  0  0  0  0  0  0  0  0  0  0
   19.3658   18.5124   23.6971 H   0  0  0  0  0  0  0  0  0  0  0  0
   19.2814   17.5700   22.2214 H   0  0  0  0  0  0  0  0  0  0  0  0
   21.0881   18.7889   22.4274 C   0  0  0  0  0  0  0  0  0  0  0  0
   21.6316   18.0123   22.9837 H   0  0  0  0  0  0  0  0  0  0  0  0
   21.3738   19.7465   22.8850 H   0  0  0  0  0  0  0  0  0  0  0  0
   21.5592   18.7608   20.9556 C   0  0  0  0  0  0  0  0  0  0  0  0
   21.2071   17.8568   20.4416 H   0  0  0  0  0  0  0  0  0  0  0  0
   22.6559   18.7656   20.9069 H   0  0  0  0  0  0  0  0  0  0  0  0
   21.2088   19.6410   20.4041 H   0  0  0  0  0  0  0  0  0  0  0  0
  1  2  1  0  0  0  0
  1  3  1  0  0  0  0
  1  4  1  0  0  0  0
  1  5  1  0  0  0  0
  5  6  1  0  0  0  0
  5  7  1  0  0  0  0
  5  8  1  0  0  0  0
  8  9  1  0  0  0  0
  8 10  1  0  0  0  0
  8 11  1  0  0  0  0
 11 12  1  0  0  0  0
 11 13  1  0  0  0  0
 11 14  1  0  0  0  0
 14 15  1  0  0  0  0
 14 16  1  0  0  0  0
 14 17  1  0  0  0  0
M  END
> <VConfSearch Rank>
82

> <Conf_Id>
44

> <Delta U+W>
2.712

> <U+W>
-13.153

> <U>
47.423

> <W>
-60.576

> <W(PB)>
-62.262

> <W(SA)>
1.687

> <Valence>
2.414

> <Coulomb>
44.831

> <VdW>
0.178

> <VdW6>
-3.743

> <VdW12>
3.922

> <Bond>
0.138

> <Angle>
0.941

> <Pdih>
1.335

> <Idih>
0.000

> <Tether>
0.000

$$$$
VeraChem MOL file


 17 16  0  0  0  0  0  0  0  0999 V2000     
   19.1938   17.1914   21.6862 N   0  3  0  0  0  0  0  0  0  0  0  0
   18.7085   17.6694   20.9217 H   0  0  0  0  0  0  0  0  0  0  0  0
   18.5222   17.0867   22.4526 H   0  0  0  0  0  0  0  0  0  0  0  0
   19.4170   16.2474   21.3550 H   0  0  0  0  0  0  0  0  0  0  0  0
   20.4359   17.9448   22.1214 C   0  0  0  0  0  0  0  0  0  0  0  0
   21.1188   17.9945   21.2693 H   0  0  0  0  0  0  0  0  0  0  0  0
   20.9204   17.3614   22.9090 H   0  0  0  0  0  0  0  0  0  0  0  0
   20.1501   19.3684   22.6427 C   0  0  0  0  0  0  0  0  0  0  0  0
   19.4965   19.3054   23.5228 H   0  0  0  0  0  0  0  0  0  0  0  0
   21.0925   19.8100   22.9929 H   0  0  0  0  0  0  0  0  0  0  0  0
   19.5076   20.3072   21.5913 C   0  0  0  0  0  0  0  0  0  0  0  0
   19.3286   21.2875   22.0548 H   0  0  0  0  0  0  0  0  0  0  0  0
   18.5200   19.9259   21.2980 H   0  0  0  0  0  0  0  0  0  0  0  0
   20.3860   20.4991   20.3338 C   0  0  0  0  0  0  0  0  0  0  0  0
   21.3798   20.8813   20.6012 H   0  0  0  0  0  0  0  0  0  0  0  0
   19.9237   21.2205   19.6476 H   0  0  0  0  0  0  0  0  0  0  0  0
   20.5172   19.5580   19.7852 H   0  0  0  0  0  0  0  0  0  0  0  0
  1  2  1  0  0  0  0
  1  3  1  0  0  0  0
  1  4  1  0  0  0  0
  1  5  1  0  0  0  0
  5  6  1  0  0  0  0
  5  7  1  0  0  0  0
  5  8  1  0  0  0  0
  8  9  1  0  0  0  0
  8 10  1  0  0  0  0
  8 11  1  0  0  0  0
 11 12  1  0  0  0  0
 11 13  1  0  0  0  0
 11 14  1  0  0  0  0
 14 15  1  0  0  0  0
 14 16  1  0  0  0  0
 14 17  1  0  0  0  0
M  END
> <VConfSearch Rank>
83

> <Conf_Id>
1

> <Delta U+W>
0.685

> <U+W>
-15.179

> <U>
45.697

> <W>
-60.876

> <W(PB)>
-62.586

> <W(SA)>
1.710

> <Valence>
1.263

> <Coulomb>
44.179

> <VdW>
0.255

> <VdW6>
-3.552

> <VdW12>
3.807

> <Bond>
0.125

> <Angle>
0.616

> <Pdih>
0.521

> <Idih>
0.000

> <Tether>
0.000

$$$$
VeraChem MOL file


 17 16  0  0  0  0  0  0  0  0999 V2000     
   21.8901   19.2134   21.3702 N   0  3  0  0  0  0  0  0  0  0  0  0
   22.3817   18.3554   21.6377 H   0  0  0  0  0  0  0  0  0  0  0  0
   21.6410   19.7017   22.2350 H   0  0  0  0  0  0  0  0  0  0  0  0
   22.5683   19.8037   20.8779 H   0  0  0  0  0  0  0  0  0  0  0  0
   20.6702   18.9240   20.5170 C   0  0  0  0  0  0  0  0  0  0  0  0
   21.0133   18.4389   19.5992 H   0  0  0  0  0  0  0  0  0  0  0  0
   20.2128   19.8784   20.2439 H   0  0  0  0  0  0  0  0  0  0  0  0
   19.6249   18.0254   21.2096 C   0  0  0  0  0  0  0  0  0  0  0  0
   18.8139   17.8181   20.4989 H   0  0  0  0  0  0  0  0  0  0  0  0
   20.0821   17.0548   21.4431 H   0  0  0  0  0  0  0  0  0  0  0  0
   19.0263   18.6358   22.5014 C   0  0  0  0  0  0  0  0  0  0  0  0
   19.8125   18.7641   23.2578 H   0  0  0  0  0  0  0  0  0  0  0  0
   18.3075   17.9230   22.9293 H   0  0  0  0  0  0  0  0  0  0  0  0
   18.3118   19.9850   22.2589 C   0  0  0  0  0  0  0  0  0  0  0  0
   17.8480   20.3471   23.1856 H   0  0  0  0  0  0  0  0  0  0  0  0
   17.5195   19.8822   21.5062 H   0  0  0  0  0  0  0  0  0  0  0  0
   19.0121   20.7570   21.9159 H   0  0  0  0  0  0  0  0  0  0  0  0
  1  2  1  0  0  0  0
  1  3  1  0  0  0  0
  1  4  1  0  0  0  0
  1  5  1  0  0  0  0
  5  6  1  0  0  0  0
  5  7  1  0  0  0  0
  5  8  1  0  0  0  0
  8  9  1  0  0  0  0
  8 10  1  0  0  0  0
  8 11  1  0  0  0  0
 11 12  1  0  0  0  0
 11 13  1  0  0  0  0
 11 14  1  0  0  0  0
 14 15  1  0  0  0  0
 14 16  1  0  0  0  0
 14 17  1  0  0  0  0
M  END
> <VConfSearch Rank>
84

> <Conf_Id>
43

> <Delta U+W>
0.642

> <U+W>
-15.222

> <U>
45.697

> <W>
-60.919

> <W(PB)>
-62.631

> <W(SA)>
1.712

> <Valence>
1.262

> <Coulomb>
44.179

> <VdW>
0.255

> <VdW6>
-3.552

> <VdW12>
3.807

> <Bond>
0.125

> <Angle>
0.616

> <Pdih>
0.521

> <Idih>
0.000

> <Tether>
0.000

$$$$
VeraChem MOL file


 17 16  0  0  0  0  0  0  0  0999 V2000     
   19.6933   17.1282   23.2706 N   0  3  0  0  0  0  0  0  0  0  0  0
   20.2359   17.5391   24.0364 H   0  0  0  0  0  0  0  0  0  0  0  0
   20.3048   16.4580   22.7946 H   0  0  0  0  0  0  0  0  0  0  0  0
   18.9375   16.5856   23.7011 H   0  0  0  0  0  0  0  0  0  0  0  0
   19.1601   18.1835   22.3223 C   0  0  0  0  0  0  0  0  0  0  0  0
   18.4950   18.8412   22.8885 H   0  0  0  0  0  0  0  0  0  0  0  0
   18.5691   17.6786   21.5533 H   0  0  0  0  0  0  0  0  0  0  0  0
   20.2698   19.0180   21.6572 C   0  0  0  0  0  0  0  0  0  0  0  0
   20.8707   19.5110   22.4330 H   0  0  0  0  0  0  0  0  0  0  0  0
   20.9444   18.3525   21.1022 H   0  0  0  0  0  0  0  0  0  0  0  0
   19.6845   20.0798   20.7005 C   0  0  0  0  0  0  0  0  0  0  0  0
   19.0066   20.7442   21.2548 H   0  0  0  0  0  0  0  0  0  0  0  0
   19.0802   19.5871   19.9256 H   0  0  0  0  0  0  0  0  0  0  0  0
   20.7919   20.9209   20.0296 C   0  0  0  0  0  0  0  0  0  0  0  0
   20.3559   21.6687   19.3546 H   0  0  0  0  0  0  0  0  0  0  0  0
   21.4665   20.2874   19.4389 H   0  0  0  0  0  0  0  0  0  0  0  0
   21.3923   21.4536   20.7787 H   0  0  0  0  0  0  0  0  0  0  0  0
  1  2  1  0  0  0  0
  1  3  1  0  0  0  0
  1  4  1  0  0  0  0
  1  5  1  0  0  0  0
  5  6  1  0  0  0  0
  5  7  1  0  0  0  0
  5  8  1  0  0  0  0
  8  9  1  0  0  0  0
  8 10  1  0  0  0  0
  8 11  1  0  0  0  0
 11 12  1  0  0  0  0
 11 13  1  0  0  0  0
 11 14  1  0  0  0  0
 14 15  1  0  0  0  0
 14 16  1  0  0  0  0
 14 17  1  0  0  0  0
M  END
> <VConfSearch Rank>
85

> <Conf_Id>
7

> <Delta U+W>
0.000

> <U+W>
-15.865

> <U>
44.664

> <W>
-60.529

> <W(PB)>
-62.309

> <W(SA)>
1.780

> <Valence>
0.872

> <Coulomb>
43.648

> <VdW>
0.144

> <VdW6>
-2.370

> <VdW12>
2.515

> <Bond>
0.080

> <Angle>
0.376

> <Pdih>
0.416

> <Idih>
0.000

> <Tether>
0.000

$$$$
VeraChem MOL file


 17 16  0  0  0  0  0  0  0  0999 V2000     
   22.2062   19.7711   22.0497 N   0  3  0  0  0  0  0  0  0  0  0  0
   22.2805   20.0740   23.0256 H   0  0  0  0  0  0  0  0  0  0  0  0
   22.2130   20.6166   21.4711 H   0  0  0  0  0  0  0  0  0  0  0  0
   23.0660   19.2567   21.8329 H   0  0  0  0  0  0  0  0  0  0  0  0
   20.9694   18.9286   21.8093 C   0  0  0  0  0  0  0  0  0  0  0  0
   21.0435   18.0338   22.4331 H   0  0  0  0  0  0  0  0  0  0  0  0
   20.9735   18.6175   20.7614 H   0  0  0  0  0  0  0  0  0  0  0  0
   19.6576   19.6725   22.1254 C   0  0  0  0  0  0  0  0  0  0  0  0
   19.6809   20.0155   23.1683 H   0  0  0  0  0  0  0  0  0  0  0  0
   19.5840   20.5722   21.5000 H   0  0  0  0  0  0  0  0  0  0  0  0
   18.4054   18.7899   21.9136 C   0  0  0  0  0  0  0  0  0  0  0  0
   17.5154   19.3508   22.2319 H   0  0  0  0  0  0  0  0  0  0  0  0
   18.4616   17.9053   22.5637 H   0  0  0  0  0  0  0  0  0  0  0  0
   18.2218   18.3440   20.4448 C   0  0  0  0  0  0  0  0  0  0  0  0
   18.1686   19.2103   19.7727 H   0  0  0  0  0  0  0  0  0  0  0  0
   17.2912   17.7732   20.3293 H   0  0  0  0  0  0  0  0  0  0  0  0
   19.0470   17.7019   20.1119 H   0  0  0  0  0  0  0  0  0  0  0  0
  1  2  1  0  0  0  0
  1  3  1  0  0  0  0
  1  4  1  0  0  0  0
  1  5  1  0  0  0  0
  5  6  1  0  0  0  0
  5  7  1  0  0  0  0
  5  8  1  0  0  0  0
  8  9  1  0  0  0  0
  8 10  1  0  0  0  0
  8 11  1  0  0  0  0
 11 12  1  0  0  0  0
 11 13  1  0  0  0  0
 11 14  1  0  0  0  0
 14 15  1  0  0  0  0
 14 16  1  0  0  0  0
 14 17  1  0  0  0  0
M  END
> <VConfSearch Rank>
86

> <Conf_Id>
36

> <Delta U+W>
0.275

> <U+W>
-15.590

> <U>
45.174

> <W>
-60.765

> <W(PB)>
-62.518

> <W(SA)>
1.754

> <Valence>
1.161

> <Coulomb>
43.789

> <VdW>
0.224

> <VdW6>
-2.897

> <VdW12>
3.121

> <Bond>
0.100

> <Angle>
0.500

> <Pdih>
0.561

> <Idih>
0.000

> <Tether>
0.000

$$$$
VeraChem MOL file


 17 16  0  0  0  0  0  0  0  0999 V2000     
   21.4824   18.8711   22.6299 N   0  3  0  0  0  0  0  0  0  0  0  0
   20.7923   18.1718   22.9156 H   0  0  0  0  0  0  0  0  0  0  0  0
   21.4307   19.6391   23.3058 H   0  0  0  0  0  0  0  0  0  0  0  0
   22.4080   18.4435   22.7360 H   0  0  0  0  0  0  0  0  0  0  0  0
   21.2421   19.3515   21.2116 C   0  0  0  0  0  0  0  0  0  0  0  0
   21.3767   18.5069   20.5305 H   0  0  0  0  0  0  0  0  0  0  0  0
   22.0158   20.0914   20.9892 H   0  0  0  0  0  0  0  0  0  0  0  0
   19.8557   19.9900   20.9844 C   0  0  0  0  0  0  0  0  0  0  0  0
   19.6128   20.6659   21.8150 H   0  0  0  0  0  0  0  0  0  0  0  0
   19.9213   20.6236   20.0899 H   0  0  0  0  0  0  0  0  0  0  0  0
   18.7076   18.9722   20.7641 C   0  0  0  0  0  0  0  0  0  0  0  0
   18.9335   18.3433   19.8915 H   0  0  0  0  0  0  0  0  0  0  0  0
   17.7953   19.5295   20.5089 H   0  0  0  0  0  0  0  0  0  0  0  0
   18.4089   18.0718   21.9843 C   0  0  0  0  0  0  0  0  0  0  0  0
   19.2117   17.3449   22.1541 H   0  0  0  0  0  0  0  0  0  0  0  0
   17.4865   17.5001   21.8187 H   0  0  0  0  0  0  0  0  0  0  0  0
   18.2718   18.6681   22.8958 H   0  0  0  0  0  0  0  0  0  0  0  0
  1  2  1  0  0  0  0
  1  3  1  0  0  0  0
  1  4  1  0  0  0  0
  1  5  1  0  0  0  0
  5  6  1  0  0  0  0
  5  7  1  0  0  0  0
  5  8  1  0  0  0  0
  8  9  1  0  0  0  0
  8 10  1  0  0  0  0
  8 11  1  0  0  0  0
 11 12  1  0  0  0  0
 11 13  1  0  0  0  0
 11 14  1  0  0  0  0
 14 15  1  0  0  0  0
 14 16  1  0  0  0  0
 14 17  1  0  0  0  0
M  END
> <VConfSearch Rank>
87

> <Conf_Id>
19

> <Delta U+W>
2.662

> <U+W>
-13.203

> <U>
47.423

> <W>
-60.626

> <W(PB)>
-62.328

> <W(SA)>
1.702

> <Valence>
2.414

> <Coulomb>
44.831

> <VdW>
0.178

> <VdW6>
-3.743

> <VdW12>
3.921

> <Bond>
0.138

> <Angle>
0.941

> <Pdih>
1.335

> <Idih>
0.000

> <Tether>
0.000

$$$$
VeraChem MOL file


 17 16  0  0  0  0  0  0  0  0999 V2000     
   20.7129   17.7042   22.5594 N   0  3  0  0  0  0  0  0  0  0  0  0
   20.6594   17.0686   23.3619 H   0  0  0  0  0  0  0  0  0  0  0  0
   21.6723   17.6534   22.2037 H   0  0  0  0  0  0  0  0  0  0  0  0
   20.1018   17.3243   21.8321 H   0  0  0  0  0  0  0  0  0  0  0  0
   20.3257   19.1215   22.9354 C   0  0  0  0  0  0  0  0  0  0  0  0
   21.0244   19.4491   23.7101 H   0  0  0  0  0  0  0  0  0  0  0  0
   19.3228   19.1046   23.3704 H   0  0  0  0  0  0  0  0  0  0  0  0
   20.3695   20.1235   21.7625 C   0  0  0  0  0  0  0  0  0  0  0  0
   20.4541   21.1326   22.1872 H   0  0  0  0  0  0  0  0  0  0  0  0
   21.2810   19.9687   21.1702 H   0  0  0  0  0  0  0  0  0  0  0  0
   19.1197   20.0954   20.8461 C   0  0  0  0  0  0  0  0  0  0  0  0
   19.2077   20.9120   20.1157 H   0  0  0  0  0  0  0  0  0  0  0  0
   18.2211   20.3144   21.4398 H   0  0  0  0  0  0  0  0  0  0  0  0
   18.9194   18.7686   20.0791 C   0  0  0  0  0  0  0  0  0  0  0  0
   19.8344   18.4719   19.5500 H   0  0  0  0  0  0  0  0  0  0  0  0
   18.1231   18.8778   19.3314 H   0  0  0  0  0  0  0  0  0  0  0  0
   18.6200   17.9563   20.7516 H   0  0  0  0  0  0  0  0  0  0  0  0
  1  2  1  0  0  0  0
  1  3  1  0  0  0  0
  1  4  1  0  0  0  0
  1  5  1  0  0  0  0
  5  6  1  0  0  0  0
  5  7  1  0  0  0  0
  5  8  1  0  0  0  0
  8  9  1  0  0  0  0
  8 10  1  0  0  0  0
  8 11  1  0  0  0  0
 11 12  1  0  0  0  0
 11 13  1  0  0  0  0
 11 14  1  0  0  0  0
 14 15  1  0  0  0  0
 14 16  1  0  0  0  0
 14 17  1  0  0  0  0
M  END
> <VConfSearch Rank>
88

> <Conf_Id>
44

> <Delta U+W>
2.712

> <U+W>
-13.153

> <U>
47.423

> <W>
-60.576

> <W(PB)>
-62.262

> <W(SA)>
1.687

> <Valence>
2.414

> <Coulomb>
44.831

> <VdW>
0.178

> <VdW6>
-3.743

> <VdW12>
3.922

> <Bond>
0.138

> <Angle>
0.941

> <Pdih>
1.335

> <Idih>
0.000

> <Tether>
0.000

$$$$
VeraChem MOL file


 17 16  0  0  0  0  0  0  0  0999 V2000     
   18.6770   19.4004   20.0914 N   0  3  0  0  0  0  0  0  0  0  0  0
   18.4757   18.4541   20.4268 H   0  0  0  0  0  0  0  0  0  0  0  0
   19.1474   19.3072   19.1862 H   0  0  0  0  0  0  0  0  0  0  0  0
   17.7748   19.8528   19.9128 H   0  0  0  0  0  0  0  0  0  0  0  0
   19.5132   20.1827   21.0857 C   0  0  0  0  0  0  0  0  0  0  0  0
   18.9433   20.2698   22.0143 H   0  0  0  0  0  0  0  0  0  0  0  0
   19.6564   21.1886   20.6816 H   0  0  0  0  0  0  0  0  0  0  0  0
   20.8892   19.5488   21.3772 C   0  0  0  0  0  0  0  0  0  0  0  0
   21.4694   19.5031   20.4461 H   0  0  0  0  0  0  0  0  0  0  0  0
   21.4458   20.2127   22.0519 H   0  0  0  0  0  0  0  0  0  0  0  0
   20.8111   18.1346   22.0043 C   0  0  0  0  0  0  0  0  0  0  0  0
   21.8325   17.7605   22.1617 H   0  0  0  0  0  0  0  0  0  0  0  0
   20.3374   17.4356   21.3016 H   0  0  0  0  0  0  0  0  0  0  0  0
   20.0543   18.1108   23.3520 C   0  0  0  0  0  0  0  0  0  0  0  0
   20.5102   18.8018   24.0729 H   0  0  0  0  0  0  0  0  0  0  0  0
   20.0803   17.1048   23.7905 H   0  0  0  0  0  0  0  0  0  0  0  0
   19.0005   18.3907   23.2286 H   0  0  0  0  0  0  0  0  0  0  0  0
  1  2  1  0  0  0  0
  1  3  1  0  0  0  0
  1  4  1  0  0  0  0
  1  5  1  0  0  0  0
  5  6  1  0  0  0  0
  5  7  1  0  0  0  0
  5  8  1  0  0  0  0
  8  9  1  0  0  0  0
  8 10  1  0  0  0  0
  8 11  1  0  0  0  0
 11 12  1  0  0  0  0
 11 13  1  0  0  0  0
 11 14  1  0  0  0  0
 14 15  1  0  0  0  0
 14 16  1  0  0  0  0
 14 17  1  0  0  0  0
M  END
> <VConfSearch Rank>
89

> <Conf_Id>
1

> <Delta U+W>
0.685

> <U+W>
-15.179

> <U>
45.697

> <W>
-60.876

> <W(PB)>
-62.586

> <W(SA)>
1.710

> <Valence>
1.263

> <Coulomb>
44.179

> <VdW>
0.255

> <VdW6>
-3.552

> <VdW12>
3.807

> <Bond>
0.125

> <Angle>
0.616

> <Pdih>
0.521

> <Idih>
0.000

> <Tether>
0.000

$$$$
VeraChem MOL file


 17 16  0  0  0  0  0  0  0  0999 V2000     
   18.8291   20.5267   22.3081 N   0  3  0  0  0  0  0  0  0  0  0  0
   19.2988   21.4286   22.1839 H   0  0  0  0  0  0  0  0  0  0  0  0
   19.2654   20.0663   23.1119 H   0  0  0  0  0  0  0  0  0  0  0  0
   17.8591   20.7299   22.5698 H   0  0  0  0  0  0  0  0  0  0  0  0
   18.9087   19.6706   21.0588 C   0  0  0  0  0  0  0  0  0  0  0  0
   18.3934   20.2047   20.2558 H   0  0  0  0  0  0  0  0  0  0  0  0
   18.3656   18.7412   21.2490 H   0  0  0  0  0  0  0  0  0  0  0  0
   20.3508   19.3491   20.6151 C   0  0  0  0  0  0  0  0  0  0  0  0
   20.3110   18.7846   19.6740 H   0  0  0  0  0  0  0  0  0  0  0  0
   20.8752   20.2865   20.3872 H   0  0  0  0  0  0  0  0  0  0  0  0
   21.1661   18.5443   21.6577 C   0  0  0  0  0  0  0  0  0  0  0  0
   21.2935   19.1350   22.5750 H   0  0  0  0  0  0  0  0  0  0  0  0
   22.1778   18.3763   21.2624 H   0  0  0  0  0  0  0  0  0  0  0  0
   20.5284   17.1788   22.0020 C   0  0  0  0  0  0  0  0  0  0  0  0
   21.1710   16.6168   22.6920 H   0  0  0  0  0  0  0  0  0  0  0  0
   20.3916   16.5685   21.0999 H   0  0  0  0  0  0  0  0  0  0  0  0
   19.5506   17.3000   22.4851 H   0  0  0  0  0  0  0  0  0  0  0  0
  1  2  1  0  0  0  0
  1  3  1  0  0  0  0
  1  4  1  0  0  0  0
  1  5  1  0  0  0  0
  5  6  1  0  0  0  0
  5  7  1  0  0  0  0
  5  8  1  0  0  0  0
  8  9  1  0  0  0  0
  8 10  1  0  0  0  0
  8 11  1  0  0  0  0
 11 12  1  0  0  0  0
 11 13  1  0  0  0  0
 11 14  1  0  0  0  0
 14 15  1  0  0  0  0
 14 16  1  0  0  0  0
 14 17  1  0  0  0  0
M  END
> <VConfSearch Rank>
90

> <Conf_Id>
43

> <Delta U+W>
0.642

> <U+W>
-15.222

> <U>
45.697

> <W>
-60.919

> <W(PB)>
-62.631

> <W(SA)>
1.712

> <Valence>
1.262

> <Coulomb>
44.179

> <VdW>
0.255

> <VdW6>
-3.552

> <VdW12>
3.807

> <Bond>
0.125

> <Angle>
0.616

> <Pdih>
0.521

> <Idih>
0.000

> <Tether>
0.000

$$$$
VeraChem MOL file


 17 16  0  0  0  0  0  0  0  0999 V2000     
   20.3073   17.0868   20.0002 N   0  3  0  0  0  0  0  0  0  0  0  0
   19.6855   17.4103   19.2530 H   0  0  0  0  0  0  0  0  0  0  0  0
   19.7903   16.3852   20.5390 H   0  0  0  0  0  0  0  0  0  0  0  0
   21.0857   16.5975   19.5468 H   0  0  0  0  0  0  0  0  0  0  0  0
   20.7905   18.2291   20.8714 C   0  0  0  0  0  0  0  0  0  0  0  0
   21.3568   18.9191   20.2399 H   0  0  0  0  0  0  0  0  0  0  0  0
   21.4695   17.8168   21.6227 H   0  0  0  0  0  0  0  0  0  0  0  0
   19.6458   18.9867   21.5686 C   0  0  0  0  0  0  0  0  0  0  0  0
   18.9577   19.3860   20.8116 H   0  0  0  0  0  0  0  0  0  0  0  0
   19.0702   18.2876   22.1898 H   0  0  0  0  0  0  0  0  0  0  0  0
   20.1808   20.1407   22.4447 C   0  0  0  0  0  0  0  0  0  0  0  0
   20.7599   20.8391   21.8240 H   0  0  0  0  0  0  0  0  0  0  0  0
   20.8721   19.7420   23.2006 H   0  0  0  0  0  0  0  0  0  0  0  0
   19.0381   20.9053   23.1473 C   0  0  0  0  0  0  0  0  0  0  0  0
   19.4386   21.7203   23.7641 H   0  0  0  0  0  0  0  0  0  0  0  0
   18.4615   20.2397   23.8028 H   0  0  0  0  0  0  0  0  0  0  0  0
   18.3483   21.3454   22.4153 H   0  0  0  0  0  0  0  0  0  0  0  0
  1  2  1  0  0  0  0
  1  3  1  0  0  0  0
  1  4  1  0  0  0  0
  1  5  1  0  0  0  0
  5  6  1  0  0  0  0
  5  7  1  0  0  0  0
  5  8  1  0  0  0  0
  8  9  1  0  0  0  0
  8 10  1  0  0  0  0
  8 11  1  0  0  0  0
 11 12  1  0  0  0  0
 11 13  1  0  0  0  0
 11 14  1  0  0  0  0
 14 15  1  0  0  0  0
 14 16  1  0  0  0  0
 14 17  1  0  0  0  0
M  END
> <VConfSearch Rank>
91

> <Conf_Id>
7

> <Delta U+W>
0.000

> <U+W>
-15.865

> <U>
44.664

> <W>
-60.529

> <W(PB)>
-62.309

> <W(SA)>
1.780

> <Valence>
0.872

> <Coulomb>
43.648

> <VdW>
0.144

> <VdW6>
-2.370

> <VdW12>
2.515

> <Bond>
0.080

> <Angle>
0.376

> <Pdih>
0.416

> <Idih>
0.000

> <Tether>
0.000

$$$$
VeraChem MOL file


 17 16  0  0  0  0  0  0  0  0999 V2000     
   21.3177   17.3889   22.6121 N   0  3  0  0  0  0  0  0  0  0  0  0
   22.1193   17.2195   21.9970 H   0  0  0  0  0  0  0  0  0  0  0  0
   20.6754   16.5996   22.4932 H   0  0  0  0  0  0  0  0  0  0  0  0
   21.6679   17.3438   23.5744 H   0  0  0  0  0  0  0  0  0  0  0  0
   20.6467   18.7158   22.3179 C   0  0  0  0  0  0  0  0  0  0  0  0
   21.3772   19.5101   22.4933 H   0  0  0  0  0  0  0  0  0  0  0  0
   19.8258   18.8419   23.0286 H   0  0  0  0  0  0  0  0  0  0  0  0
   20.1077   18.8172   20.8781 C   0  0  0  0  0  0  0  0  0  0  0  0
   20.9324   18.6494   20.1726 H   0  0  0  0  0  0  0  0  0  0  0  0
   19.3752   18.0184   20.7014 H   0  0  0  0  0  0  0  0  0  0  0  0
   19.4607   20.1896   20.5786 C   0  0  0  0  0  0  0  0  0  0  0  0
   19.1717   20.2244   19.5188 H   0  0  0  0  0  0  0  0  0  0  0  0
   20.2023   20.9881   20.7228 H   0  0  0  0  0  0  0  0  0  0  0  0
   18.2158   20.4738   21.4501 C   0  0  0  0  0  0  0  0  0  0  0  0
   17.4606   19.6863   21.3289 H   0  0  0  0  0  0  0  0  0  0  0  0
   17.7542   21.4273   21.1626 H   0  0  0  0  0  0  0  0  0  0  0  0
   18.4749   20.5395   22.5144 H   0  0  0  0  0  0  0  0  0  0  0  0
  1  2  1  0  0  0  0
  1  3  1  0  0  0  0
  1  4  1  0  0  0  0
  1  5  1  0  0  0  0
  5  6  1  0  0  0  0
  5  7  1  0  0  0  0
  5  8  1  0  0  0  0
  8  9  1  0  0  0  0
  8 10  1  0  0  0  0
  8 11  1  0  0  0  0
 11 12  1  0  0  0  0
 11 13  1  0  0  0  0
 11 14  1  0  0  0  0
 14 15  1  0  0  0  0
 14 16  1  0  0  0  0
 14 17  1  0  0  0  0
M  END
> <VConfSearch Rank>
92

> <Conf_Id>
36

> <Delta U+W>
0.275

> <U+W>
-15.590

> <U>
45.174

> <W>
-60.765

> <W(PB)>
-62.518

> <W(SA)>
1.754

> <Valence>
1.161

> <Coulomb>
43.789

> <VdW>
0.224

> <VdW6>
-2.897

> <VdW12>
3.121

> <Bond>
0.100

> <Angle>
0.500

> <Pdih>
0.561

> <Idih>
0.000

> <Tether>
0.000

$$$$
VeraChem MOL file


 17 16  0  0  0  0  0  0  0  0999 V2000     
   18.8746   17.6748   20.8265 N   0  3  0  0  0  0  0  0  0  0  0  0
   19.5522   18.0473   20.1565 H   0  0  0  0  0  0  0  0  0  0  0  0
   17.9750   18.1219   20.6254 H   0  0  0  0  0  0  0  0  0  0  0  0
   18.7630   16.6768   20.6209 H   0  0  0  0  0  0  0  0  0  0  0  0
   19.3130   17.9101   22.2592 C   0  0  0  0  0  0  0  0  0  0  0  0
   20.2389   17.3561   22.4353 H   0  0  0  0  0  0  0  0  0  0  0  0
   18.5382   17.4868   22.9043 H   0  0  0  0  0  0  0  0  0  0  0  0
   19.5154   19.3956   22.6249 C   0  0  0  0  0  0  0  0  0  0  0  0
   18.6887   19.9971   22.2242 H   0  0  0  0  0  0  0  0  0  0  0  0
   19.4497   19.4835   23.7175 H   0  0  0  0  0  0  0  0  0  0  0  0
   20.8774   19.9872   22.1803 C   0  0  0  0  0  0  0  0  0  0  0  0
   21.6962   19.4151   22.6388 H   0  0  0  0  0  0  0  0  0  0  0  0
   20.9586   21.0076   22.5805 H   0  0  0  0  0  0  0  0  0  0  0  0
   21.0814   20.0414   20.6492 C   0  0  0  0  0  0  0  0  0  0  0  0
   21.2173   19.0395   20.2257 H   0  0  0  0  0  0  0  0  0  0  0  0
   21.9825   20.6191   20.4056 H   0  0  0  0  0  0  0  0  0  0  0  0
   20.2312   20.5249   20.1506 H   0  0  0  0  0  0  0  0  0  0  0  0
  1  2  1  0  0  0  0
  1  3  1  0  0  0  0
  1  4  1  0  0  0  0
  1  5  1  0  0  0  0
  5  6  1  0  0  0  0
  5  7  1  0  0  0  0
  5  8  1  0  0  0  0
  8  9  1  0  0  0  0
  8 10  1  0  0  0  0
  8 11  1  0  0  0  0
 11 12  1  0  0  0  0
 11 13  1  0  0  0  0
 11 14  1  0  0  0  0
 14 15  1  0  0  0  0
 14 16  1  0  0  0  0
 14 17  1  0  0  0  0
M  END
> <VConfSearch Rank>
93

> <Conf_Id>
19

> <Delta U+W>
2.662

> <U+W>
-13.203

> <U>
47.423

> <W>
-60.626

> <W(PB)>
-62.328

> <W(SA)>
1.702

> <Valence>
2.414

> <Coulomb>
44.831

> <VdW>
0.178

> <VdW6>
-3.743

> <VdW12>
3.921

> <Bond>
0.138

> <Angle>
0.941

> <Pdih>
1.335

> <Idih>
0.000

> <Tether>
0.000

$$$$
VeraChem MOL file


 17 16  0  0  0  0  0  0  0  0999 V2000     
   19.1047   20.7435   21.7556 N   0  3  0  0  0  0  0  0  0  0  0  0
   18.8274   21.5013   22.3878 H   0  0  0  0  0  0  0  0  0  0  0  0
   18.6728   20.9410   20.8479 H   0  0  0  0  0  0  0  0  0  0  0  0
   20.1175   20.8120   21.6282 H   0  0  0  0  0  0  0  0  0  0  0  0
   18.6958   19.3846   22.2904 C   0  0  0  0  0  0  0  0  0  0  0  0
   17.6074   19.3960   22.3942 H   0  0  0  0  0  0  0  0  0  0  0  0
   19.1288   19.2577   23.2863 H   0  0  0  0  0  0  0  0  0  0  0  0
   19.1024   18.1996   21.3893 C   0  0  0  0  0  0  0  0  0  0  0  0
   18.4576   17.3482   21.6444 H   0  0  0  0  0  0  0  0  0  0  0  0
   18.8878   18.4357   20.3386 H   0  0  0  0  0  0  0  0  0  0  0  0
   20.5760   17.7462   21.5497 C   0  0  0  0  0  0  0  0  0  0  0  0
   20.7265   16.8393   20.9473 H   0  0  0  0  0  0  0  0  0  0  0  0
   20.7608   17.4522   22.5926 H   0  0  0  0  0  0  0  0  0  0  0  0
   21.6199   18.8017   21.1195 C   0  0  0  0  0  0  0  0  0  0  0  0
   21.4065   19.1866   20.1138 H   0  0  0  0  0  0  0  0  0  0  0  0
   22.6238   18.3580   21.1001 H   0  0  0  0  0  0  0  0  0  0  0  0
   21.6537   19.6433   21.8211 H   0  0  0  0  0  0  0  0  0  0  0  0
  1  2  1  0  0  0  0
  1  3  1  0  0  0  0
  1  4  1  0  0  0  0
  1  5  1  0  0  0  0
  5  6  1  0  0  0  0
  5  7  1  0  0  0  0
  5  8  1  0  0  0  0
  8  9  1  0  0  0  0
  8 10  1  0  0  0  0
  8 11  1  0  0  0  0
 11 12  1  0  0  0  0
 11 13  1  0  0  0  0
 11 14  1  0  0  0  0
 14 15  1  0  0  0  0
 14 16  1  0  0  0  0
 14 17  1  0  0  0  0
M  END
> <VConfSearch Rank>
94

> <Conf_Id>
44

> <Delta U+W>
2.712

> <U+W>
-13.153

> <U>
47.423

> <W>
-60.576

> <W(PB)>
-62.262

> <W(SA)>
1.687

> <Valence>
2.414

> <Coulomb>
44.831

> <VdW>
0.178

> <VdW6>
-3.743

> <VdW12>
3.922

> <Bond>
0.138

> <Angle>
0.941

> <Pdih>
1.335

> <Idih>
0.000

> <Tether>
0.000

$$$$
VeraChem MOL file


 17 16  0  0  0  0  0  0  0  0999 V2000     
   21.6363   19.9232   21.1371 N   0  3  0  0  0  0  0  0  0  0  0  0
   20.8949   20.6164   21.0019 H   0  0  0  0  0  0  0  0  0  0  0  0
   21.9643   19.6453   20.2073 H   0  0  0  0  0  0  0  0  0  0  0  0
   22.4161   20.4048   21.5961 H   0  0  0  0  0  0  0  0  0  0  0  0
   21.1534   18.7344   21.9455 C   0  0  0  0  0  0  0  0  0  0  0  0
   20.8476   19.0956   22.9308 H   0  0  0  0  0  0  0  0  0  0  0  0
   22.0014   18.0579   22.0818 H   0  0  0  0  0  0  0  0  0  0  0  0
   19.9879   17.9665   21.2882 C   0  0  0  0  0  0  0  0  0  0  0  0
   20.3176   17.5732   20.3174 H   0  0  0  0  0  0  0  0  0  0  0  0
   19.7502   17.0916   21.9076 H   0  0  0  0  0  0  0  0  0  0  0  0
   18.7065   18.8143   21.0911 C   0  0  0  0  0  0  0  0  0  0  0  0
   17.9415   18.1916   20.6064 H   0  0  0  0  0  0  0  0  0  0  0  0
   18.9053   19.6437   20.3987 H   0  0  0  0  0  0  0  0  0  0  0  0
   18.1370   19.3682   22.4172 C   0  0  0  0  0  0  0  0  0  0  0  0
   17.9289   18.5568   23.1267 H   0  0  0  0  0  0  0  0  0  0  0  0
   17.1967   19.9054   22.2378 H   0  0  0  0  0  0  0  0  0  0  0  0
   18.8331   20.0698   22.8939 H   0  0  0  0  0  0  0  0  0  0  0  0
  1  2  1  0  0  0  0
  1  3  1  0  0  0  0
  1  4  1  0  0  0  0
  1  5  1  0  0  0  0
  5  6  1  0  0  0  0
  5  7  1  0  0  0  0
  5  8  1  0  0  0  0
  8  9  1  0  0  0  0
  8 10  1  0  0  0  0
  8 11  1  0  0  0  0
 11 12  1  0  0  0  0
 11 13  1  0  0  0  0
 11 14  1  0  0  0  0
 14 15  1  0  0  0  0
 14 16  1  0  0  0  0
 14 17  1  0  0  0  0
M  END
> <VConfSearch Rank>
95

> <Conf_Id>
1

> <Delta U+W>
0.685

> <U+W>
-15.179

> <U>
45.697

> <W>
-60.876

> <W(PB)>
-62.586

> <W(SA)>
1.710

> <Valence>
1.263

> <Coulomb>
44.179

> <VdW>
0.255

> <VdW6>
-3.552

> <VdW12>
3.807

> <Bond>
0.125

> <Angle>
0.616

> <Pdih>
0.521

> <Idih>
0.000

> <Tether>
0.000

$$$$
VeraChem MOL file


 17 16  0  0  0  0  0  0  0  0999 V2000     
   18.2538   18.2881   20.8247 N   0  3  0  0  0  0  0  0  0  0  0  0
   17.4260   18.7761   21.1798 H   0  0  0  0  0  0  0  0  0  0  0  0
   18.5601   17.6401   21.5559 H   0  0  0  0  0  0  0  0  0  0  0  0
   17.9455   17.7186   20.0302 H   0  0  0  0  0  0  0  0  0  0  0  0
   19.3552   19.2540   20.4326 C   0  0  0  0  0  0  0  0  0  0  0  0
   18.9723   19.8863   19.6268 H   0  0  0  0  0  0  0  0  0  0  0  0
   20.1918   18.6724   20.0369 H   0  0  0  0  0  0  0  0  0  0  0  0
   19.8439   20.1455   21.5929 C   0  0  0  0  0  0  0  0  0  0  0  0
   20.5894   20.8514   21.2035 H   0  0  0  0  0  0  0  0  0  0  0  0
   19.0062   20.7553   21.9564 H   0  0  0  0  0  0  0  0  0  0  0  0
   20.4581   19.3578   22.7769 C   0  0  0  0  0  0  0  0  0  0  0  0
   19.6970   18.7130   23.2368 H   0  0  0  0  0  0  0  0  0  0  0  0
   20.7623   20.0707   23.5562 H   0  0  0  0  0  0  0  0  0  0  0  0
   21.6829   18.5077   22.3682 C   0  0  0  0  0  0  0  0  0  0  0  0
   22.1240   18.0204   23.2474 H   0  0  0  0  0  0  0  0  0  0  0  0
   22.4595   19.1311   21.9064 H   0  0  0  0  0  0  0  0  0  0  0  0
   21.4080   17.7195   21.6562 H   0  0  0  0  0  0  0  0  0  0  0  0
  1  2  1  0  0  0  0
  1  3  1  0  0  0  0
  1  4  1  0  0  0  0
  1  5  1  0  0  0  0
  5  6  1  0  0  0  0
  5  7  1  0  0  0  0
  5  8  1  0  0  0  0
  8  9  1  0  0  0  0
  8 10  1  0  0  0  0
  8 11  1  0  0  0  0
 11 12  1  0  0  0  0
 11 13  1  0  0  0  0
 11 14  1  0  0  0  0
 14 15  1  0  0  0  0
 14 16  1  0  0  0  0
 14 17  1  0  0  0  0
M  END
> <VConfSearch Rank>
96

> <Conf_Id>
43

> <Delta U+W>
0.642

> <U+W>
-15.222

> <U>
45.697

> <W>
-60.919

> <W(PB)>
-62.631

> <W(SA)>
1.712

> <Valence>
1.262

> <Coulomb>
44.179

> <VdW>
0.255

> <VdW6>
-3.552

> <VdW12>
3.807

> <Bond>
0.125

> <Angle>
0.616

> <Pdih>
0.521

> <Idih>
0.000

> <Tether>
0.000

$$$$
VeraChem MOL file


 17 16  0  0  0  0  0  0  0  0999 V2000     
   20.3183   17.7525   23.7807 N   0  3  0  0  0  0  0  0  0  0  0  0
   20.0653   16.8265   23.4227 H   0  0  0  0  0  0  0  0  0  0  0  0
   19.5038   18.1117   24.2880 H   0  0  0  0  0  0  0  0  0  0  0  0
   21.0598   17.6096   24.4740 H   0  0  0  0  0  0  0  0  0  0  0  0
   20.7558   18.6897   22.6727 C   0  0  0  0  0  0  0  0  0  0  0  0
   21.6423   18.2605   22.1980 H   0  0  0  0  0  0  0  0  0  0  0  0
   21.0387   19.6425   23.1284 H   0  0  0  0  0  0  0  0  0  0  0  0
   19.6648   18.9269   21.6126 C   0  0  0  0  0  0  0  0  0  0  0  0
   19.3723   17.9663   21.1681 H   0  0  0  0  0  0  0  0  0  0  0  0
   18.7708   19.3436   22.0954 H   0  0  0  0  0  0  0  0  0  0  0  0
   20.1509   19.8858   20.5036 C   0  0  0  0  0  0  0  0  0  0  0  0
   21.0477   19.4708   20.0222 H   0  0  0  0  0  0  0  0  0  0  0  0
   20.4469   20.8465   20.9483 H   0  0  0  0  0  0  0  0  0  0  0  0
   19.0617   20.1284   19.4365 C   0  0  0  0  0  0  0  0  0  0  0  0
   19.4264   20.8115   18.6584 H   0  0  0  0  0  0  0  0  0  0  0  0
   18.1638   20.5757   19.8826 H   0  0  0  0  0  0  0  0  0  0  0  0
   18.7693   19.1891   18.9493 H   0  0  0  0  0  0  0  0  0  0  0  0
  1  2  1  0  0  0  0
  1  3  1  0  0  0  0
  1  4  1  0  0  0  0
  1  5  1  0  0  0  0
  5  6  1  0  0  0  0
  5  7  1  0  0  0  0
  5  8  1  0  0  0  0
  8  9  1  0  0  0  0
  8 10  1  0  0  0  0
  8 11  1  0  0  0  0
 11 12  1  0  0  0  0
 11 13  1  0  0  0  0
 11 14  1  0  0  0  0
 14 15  1  0  0  0  0
 14 16  1  0  0  0  0
 14 17  1  0  0  0  0
M  END
> <VConfSearch Rank>
97

> <Conf_Id>
7

> <Delta U+W>
0.000

> <U+W>
-15.865

> <U>
44.664

> <W>
-60.529

> <W(PB)>
-62.309

> <W(SA)>
1.780

> <Valence>
0.872

> <Coulomb>
43.648

> <VdW>
0.144

> <VdW6>
-2.370

> <VdW12>
2.515

> <Bond>
0.080

> <Angle>
0.376

> <Pdih>
0.416

> <Idih>
0.000

> <Tether>
0.000

$$$$
VeraChem MOL file


 17 16  0  0  0  0  0  0  0  0999 V2000     
   19.4439   19.3040   23.9760 N   0  3  0  0  0  0  0  0  0  0  0  0
   20.0479   20.0301   24.3728 H   0  0  0  0  0  0  0  0  0  0  0  0
   19.8222   18.4006   24.2769 H   0  0  0  0  0  0  0  0  0  0  0  0
   18.5268   19.4049   24.4228 H   0  0  0  0  0  0  0  0  0  0  0  0
   19.3499   19.4057   22.4667 C   0  0  0  0  0  0  0  0  0  0  0  0
   18.9127   20.3769   22.2200 H   0  0  0  0  0  0  0  0  0  0  0  0
   18.6686   18.6247   22.1192 H   0  0  0  0  0  0  0  0  0  0  0  0
   20.7124   19.2578   21.7626 C   0  0  0  0  0  0  0  0  0  0  0  0
   21.4012   20.0214   22.1478 H   0  0  0  0  0  0  0  0  0  0  0  0
   21.1523   18.2830   22.0117 H   0  0  0  0  0  0  0  0  0  0  0  0
   20.6087   19.4026   20.2263 C   0  0  0  0  0  0  0  0  0  0  0  0
   21.6193   19.3678   19.7955 H   0  0  0  0  0  0  0  0  0  0  0  0
   20.1995   20.3911   19.9742 H   0  0  0  0  0  0  0  0  0  0  0  0
   19.7438   18.3005   19.5725 C   0  0  0  0  0  0  0  0  0  0  0  0
   20.1284   17.3011   19.8141 H   0  0  0  0  0  0  0  0  0  0  0  0
   19.7480   18.4055   18.4798 H   0  0  0  0  0  0  0  0  0  0  0  0
   18.6999   18.3560   19.9060 H   0  0  0  0  0  0  0  0  0  0  0  0
  1  2  1  0  0  0  0
  1  3  1  0  0  0  0
  1  4  1  0  0  0  0
  1  5  1  0  0  0  0
  5  6  1  0  0  0  0
  5  7  1  0  0  0  0
  5  8  1  0  0  0  0
  8  9  1  0  0  0  0
  8 10  1  0  0  0  0
  8 11  1  0  0  0  0
 11 12  1  0  0  0  0
 11 13  1  0  0  0  0
 11 14  1  0  0  0  0
 14 15  1  0  0  0  0
 14 16  1  0  0  0  0
 14 17  1  0  0  0  0
M  END
> <VConfSearch Rank>
98

> <Conf_Id>
36

> <Delta U+W>
0.275

> <U+W>
-15.590

> <U>
45.174

> <W>
-60.765

> <W(PB)>
-62.518

> <W(SA)>
1.754

> <Valence>
1.161

> <Coulomb>
43.789

> <VdW>
0.224

> <VdW6>
-2.897

> <VdW12>
3.121

> <Bond>
0.100

> <Angle>
0.500

> <Pdih>
0.561

> <Idih>
0.000

> <Tether>
0.000

$$$$
VeraChem MOL file


 17 16  0  0  0  0  0  0  0  0999 V2000     
   21.2685   18.6685   20.3428 N   0  3  0  0  0  0  0  0  0  0  0  0
   20.7540   19.5269   20.1302 H   0  0  0  0  0  0  0  0  0  0  0  0
   20.9038   17.9375   19.7246 H   0  0  0  0  0  0  0  0  0  0  0  0
   22.2448   18.8262   20.0728 H   0  0  0  0  0  0  0  0  0  0  0  0
   21.1423   18.2848   21.8046 C   0  0  0  0  0  0  0  0  0  0  0  0
   21.6071   19.0668   22.4111 H   0  0  0  0  0  0  0  0  0  0  0  0
   21.7151   17.3639   21.9441 H   0  0  0  0  0  0  0  0  0  0  0  0
   19.6917   18.0510   22.2763 C   0  0  0  0  0  0  0  0  0  0  0  0
   19.1448   17.4595   21.5300 H   0  0  0  0  0  0  0  0  0  0  0  0
   19.7298   17.4317   23.1823 H   0  0  0  0  0  0  0  0  0  0  0  0
   18.9098   19.3454   22.6165 C   0  0  0  0  0  0  0  0  0  0  0  0
   19.4348   19.8967   23.4093 H   0  0  0  0  0  0  0  0  0  0  0  0
   17.9358   19.0606   23.0384 H   0  0  0  0  0  0  0  0  0  0  0  0
   18.6689   20.2820   21.4108 C   0  0  0  0  0  0  0  0  0  0  0  0
   19.5984   20.7606   21.0811 H   0  0  0  0  0  0  0  0  0  0  0  0
   17.9730   21.0852   21.6860 H   0  0  0  0  0  0  0  0  0  0  0  0
   18.2307   19.7374   20.5643 H   0  0  0  0  0  0  0  0  0  0  0  0
  1  2  1  0  0  0  0
  1  3  1  0  0  0  0
  1  4  1  0  0  0  0
  1  5  1  0  0  0  0
  5  6  1  0  0  0  0
  5  7  1  0  0  0  0
  5  8  1  0  0  0  0
  8  9  1  0  0  0  0
  8 10  1  0  0  0  0
  8 11  1  0  0  0  0
 11 12  1  0  0  0  0
 11 13  1  0  0  0  0
 11 14  1  0  0  0  0
 14 15  1  0  0  0  0
 14 16  1  0  0  0  0
 14 17  1  0  0  0  0
M  END
> <VConfSearch Rank>
99

> <Conf_Id>
19

> <Delta U+W>
2.662

> <U+W>
-13.203

> <U>
47.423

> <W>
-60.626

> <W(PB)>
-62.328

> <W(SA)>
1.702

> <Valence>
2.414

> <Coulomb>
44.831

> <VdW>
0.178

> <VdW6>
-3.743

> <VdW12>
3.921

> <Bond>
0.138

> <Angle>
0.941

> <Pdih>
1.335

> <Idih>
0.000

> <Tether>
0.000

$$$$
VeraChem MOL file


 17 16  0  0  0  0  0  0  0  0999 V2000     
   20.5428   18.4891   19.9606 N   0  3  0  0  0  0  0  0  0  0  0  0
   20.6124   17.7170   19.2900 H   0  0  0  0  0  0  0  0  0  0  0  0
   21.2098   19.2057   19.6589 H   0  0  0  0  0  0  0  0  0  0  0  0
   19.6063   18.8897   19.8637 H   0  0  0  0  0  0  0  0  0  0  0  0
   20.8135   18.0295   21.3803 C   0  0  0  0  0  0  0  0  0  0  0  0
   21.8272   17.6201   21.3961 H   0  0  0  0  0  0  0  0  0  0  0  0
   20.1188   17.2208   21.6228 H   0  0  0  0  0  0  0  0  0  0  0  0
   20.7056   19.1460   22.4401 C   0  0  0  0  0  0  0  0  0  0  0  0
   21.2705   18.8237   23.3249 H   0  0  0  0  0  0  0  0  0  0  0  0
   21.2041   20.0556   22.0795 H   0  0  0  0  0  0  0  0  0  0  0  0
   19.2576   19.4672   22.8903 C   0  0  0  0  0  0  0  0  0  0  0  0
   19.3043   20.1932   23.7142 H   0  0  0  0  0  0  0  0  0  0  0  0
   18.7913   18.5637   23.3077 H   0  0  0  0  0  0  0  0  0  0  0  0
   18.3552   20.0447   21.7762 C   0  0  0  0  0  0  0  0  0  0  0  0
   18.8364   20.8938   21.2736 H   0  0  0  0  0  0  0  0  0  0  0  0
   17.4082   20.4024   22.2008 H   0  0  0  0  0  0  0  0  0  0  0  0
   18.1051   19.2848   21.0268 H   0  0  0  0  0  0  0  0  0  0  0  0
  1  2  1  0  0  0  0
  1  3  1  0  0  0  0
  1  4  1  0  0  0  0
  1  5  1  0  0  0  0
  5  6  1  0  0  0  0
  5  7  1  0  0  0  0
  5  8  1  0  0  0  0
  8  9  1  0  0  0  0
  8 10  1  0  0  0  0
  8 11  1  0  0  0  0
 11 12  1  0  0  0  0
 11 13  1  0  0  0  0
 11 14  1  0  0  0  0
 14 15  1  0  0  0  0
 14 16  1  0  0  0  0
 14 17  1  0  0  0  0
M  END
> <VConfSearch Rank>
100

> <Conf_Id>
44

> <Delta U+W>
2.712

> <U+W>
-13.153

> <U>
47.423

> <W>
-60.576

> <W(PB)>
-62.262

> <W(SA)>
1.687

> <Valence>
2.414

> <Coulomb>
44.831

> <VdW>
0.178

> <VdW6>
-3.743

> <VdW12>
3.922

> <Bond>
0.138

> <Angle>
0.941

> <Pdih>
1.335

> <Idih>
0.000

> <Tether>
0.000

$$$$
VeraChem MOL file


 17 16  0  0  0  0  0  0  0  0999 V2000     
   20.0786   20.3346   23.0962 N   0  3  0  0  0  0  0  0  0  0  0  0
   19.4095   19.6170   23.3894 H   0  0  0  0  0  0  0  0  0  0  0  0
   19.5448   21.1893   22.9123 H   0  0  0  0  0  0  0  0  0  0  0  0
   20.6821   20.5280   23.9018 H   0  0  0  0  0  0  0  0  0  0  0  0
   20.8785   19.8955   21.8849 C   0  0  0  0  0  0  0  0  0  0  0  0
   21.4439   19.0007   22.1576 H   0  0  0  0  0  0  0  0  0  0  0  0
   21.5937   20.6893   21.6526 H   0  0  0  0  0  0  0  0  0  0  0  0
   20.0148   19.6059   20.6398 C   0  0  0  0  0  0  0  0  0  0  0  0
   19.4824   20.5214   20.3497 H   0  0  0  0  0  0  0  0  0  0  0  0
   20.6793   19.3599   19.8009 H   0  0  0  0  0  0  0  0  0  0  0  0
   18.9939   18.4573   20.8346 C   0  0  0  0  0  0  0  0  0  0  0  0
   18.4184   18.3344   19.9064 H   0  0  0  0  0  0  0  0  0  0  0  0
   18.2642   18.7281   21.6099 H   0  0  0  0  0  0  0  0  0  0  0  0
   19.6601   17.1096   21.1946 C   0  0  0  0  0  0  0  0  0  0  0  0
   20.3941   16.8163   20.4329 H   0  0  0  0  0  0  0  0  0  0  0  0
   18.9075   16.3130   21.2584 H   0  0  0  0  0  0  0  0  0  0  0  0
   20.1729   17.1585   22.1635 H   0  0  0  0  0  0  0  0  0  0  0  0
  1  2  1  0  0  0  0
  1  3  1  0  0  0  0
  1  4  1  0  0  0  0
  1  5  1  0  0  0  0
  5  6  1  0  0  0  0
  5  7  1  0  0  0  0
  5  8  1  0  0  0  0
  8  9  1  0  0  0  0
  8 10  1  0  0  0  0
  8 11  1  0  0  0  0
 11 12  1  0  0  0  0
 11 13  1  0  0  0  0
 11 14  1  0  0  0  0
 14 15  1  0  0  0  0
 14 16  1  0  0  0  0
 14 17  1  0  0  0  0
M  END
> <VConfSearch Rank>
101

> <Conf_Id>
1

> <Delta U+W>
0.685

> <U+W>
-15.179

> <U>
45.697

> <W>
-60.876

> <W(PB)>
-62.586

> <W(SA)>
1.710

> <Valence>
1.263

> <Coulomb>
44.179

> <VdW>
0.255

> <VdW6>
-3.552

> <VdW12>
3.807

> <Bond>
0.125

> <Angle>
0.616

> <Pdih>
0.521

> <Idih>
0.000

> <Tether>
0.000

$$$$
VeraChem MOL file


 17 16  0  0  0  0  0  0  0  0999 V2000     
   19.1060   20.8114   21.2832 N   0  3  0  0  0  0  0  0  0  0  0  0
   19.8187   21.5330   21.1391 H   0  0  0  0  0  0  0  0  0  0  0  0
   19.0566   20.6316   22.2901 H   0  0  0  0  0  0  0  0  0  0  0  0
   18.2077   21.2212   21.0080 H   0  0  0  0  0  0  0  0  0  0  0  0
   19.4131   19.5487   20.5015 C   0  0  0  0  0  0  0  0  0  0  0  0
   19.4132   19.8066   19.4390 H   0  0  0  0  0  0  0  0  0  0  0  0
   18.6030   18.8359   20.6760 H   0  0  0  0  0  0  0  0  0  0  0  0
   20.7640   18.9012   20.8700 C   0  0  0  0  0  0  0  0  0  0  0  0
   20.9299   18.0367   20.2135 H   0  0  0  0  0  0  0  0  0  0  0  0
   21.5744   19.6097   20.6530 H   0  0  0  0  0  0  0  0  0  0  0  0
   20.8619   18.4450   22.3471 C   0  0  0  0  0  0  0  0  0  0  0  0
   20.7897   19.3133   23.0160 H   0  0  0  0  0  0  0  0  0  0  0  0
   21.8576   18.0123   22.5185 H   0  0  0  0  0  0  0  0  0  0  0  0
   19.7881   17.4013   22.7309 C   0  0  0  0  0  0  0  0  0  0  0  0
   19.9355   17.0590   23.7634 H   0  0  0  0  0  0  0  0  0  0  0  0
   19.8407   16.5218   22.0761 H   0  0  0  0  0  0  0  0  0  0  0  0
   18.7758   17.8192   22.6623 H   0  0  0  0  0  0  0  0  0  0  0  0
  1  2  1  0  0  0  0
  1  3  1  0  0  0  0
  1  4  1  0  0  0  0
  1  5  1  0  0  0  0
  5  6  1  0  0  0  0
  5  7  1  0  0  0  0
  5  8  1  0  0  0  0
  8  9  1  0  0  0  0
  8 10  1  0  0  0  0
  8 11  1  0  0  0  0
 11 12  1  0  0  0  0
 11 13  1  0  0  0  0
 11 14  1  0  0  0  0
 14 15  1  0  0  0  0
 14 16  1  0  0  0  0
 14 17  1  0  0  0  0
M  END
> <VConfSearch Rank>
102

> <Conf_Id>
43

> <Delta U+W>
0.642

> <U+W>
-15.222

> <U>
45.697

> <W>
-60.919

> <W(PB)>
-62.631

> <W(SA)>
1.712

> <Valence>
1.262

> <Coulomb>
44.179

> <VdW>
0.255

> <VdW6>
-3.552

> <VdW12>
3.807

> <Bond>
0.125

> <Angle>
0.616

> <Pdih>
0.521

> <Idih>
0.000

> <Tether>
0.000

$$$$
VeraChem MOL file


 17 16  0  0  0  0  0  0  0  0999 V2000     
   18.0770   19.8868   23.1432 N   0  3  0  0  0  0  0  0  0  0  0  0
   17.4239   19.1141   22.9816 H   0  0  0  0  0  0  0  0  0  0  0  0
   17.7645   20.6711   22.5627 H   0  0  0  0  0  0  0  0  0  0  0  0
   17.9585   20.1755   24.1197 H   0  0  0  0  0  0  0  0  0  0  0  0
   19.5091   19.4924   22.8419 C   0  0  0  0  0  0  0  0  0  0  0  0
   19.7833   18.6759   23.5155 H   0  0  0  0  0  0  0  0  0  0  0  0
   20.1495   20.3501   23.0650 H   0  0  0  0  0  0  0  0  0  0  0  0
   19.7230   19.0528   21.3820 C   0  0  0  0  0  0  0  0  0  0  0  0
   19.0671   18.2013   21.1571 H   0  0  0  0  0  0  0  0  0  0  0  0
   19.4323   19.8698   20.7082 H   0  0  0  0  0  0  0  0  0  0  0  0
   21.1932   18.6600   21.1179 C   0  0  0  0  0  0  0  0  0  0  0  0
   21.4859   17.8445   21.7944 H   0  0  0  0  0  0  0  0  0  0  0  0
   21.8506   19.5110   21.3460 H   0  0  0  0  0  0  0  0  0  0  0  0
   21.4154   18.2178   19.6553 C   0  0  0  0  0  0  0  0  0  0  0  0
   22.4651   17.9431   19.4884 H   0  0  0  0  0  0  0  0  0  0  0  0
   21.1638   19.0254   18.9556 H   0  0  0  0  0  0  0  0  0  0  0  0
   20.7962   17.3458   19.4075 H   0  0  0  0  0  0  0  0  0  0  0  0
  1  2  1  0  0  0  0
  1  3  1  0  0  0  0
  1  4  1  0  0  0  0
  1  5  1  0  0  0  0
  5  6  1  0  0  0  0
  5  7  1  0  0  0  0
  5  8  1  0  0  0  0
  8  9  1  0  0  0  0
  8 10  1  0  0  0  0
  8 11  1  0  0  0  0
 11 12  1  0  0  0  0
 11 13  1  0  0  0  0
 11 14  1  0  0  0  0
 14 15  1  0  0  0  0
 14 16  1  0  0  0  0
 14 17  1  0  0  0  0
M  END
> <VConfSearch Rank>
103

> <Conf_Id>
7

> <Delta U+W>
0.000

> <U+W>
-15.865

> <U>
44.664

> <W>
-60.529

> <W(PB)>
-62.309

> <W(SA)>
1.780

> <Valence>
0.872

> <Coulomb>
43.648

> <VdW>
0.144

> <VdW6>
-2.370

> <VdW12>
2.515

> <Bond>
0.080

> <Angle>
0.376

> <Pdih>
0.416

> <Idih>
0.000

> <Tether>
0.000

$$$$
VeraChem MOL file


 17 16  0  0  0  0  0  0  0  0999 V2000     
   17.7215   19.3529   20.6765 N   0  3  0  0  0  0  0  0  0  0  0  0
   17.2806   20.1790   21.0922 H   0  0  0  0  0  0  0  0  0  0  0  0
   17.2881   18.5313   21.1087 H   0  0  0  0  0  0  0  0  0  0  0  0
   17.4558   19.3418   19.6865 H   0  0  0  0  0  0  0  0  0  0  0  0
   19.2265   19.3614   20.8562 C   0  0  0  0  0  0  0  0  0  0  0  0
   19.6226   20.2443   20.3474 H   0  0  0  0  0  0  0  0  0  0  0  0
   19.6286   18.4723   20.3635 H   0  0  0  0  0  0  0  0  0  0  0  0
   19.6610   19.3776   22.3344 C   0  0  0  0  0  0  0  0  0  0  0  0
   19.2192   20.2525   22.8296 H   0  0  0  0  0  0  0  0  0  0  0  0
   19.2617   18.4917   22.8459 H   0  0  0  0  0  0  0  0  0  0  0  0
   21.1975   19.4259   22.5039 C   0  0  0  0  0  0  0  0  0  0  0  0
   21.4359   19.5167   23.5730 H   0  0  0  0  0  0  0  0  0  0  0  0
   21.5952   20.3297   22.0210 H   0  0  0  0  0  0  0  0  0  0  0  0
   21.9079   18.1770   21.9333 C   0  0  0  0  0  0  0  0  0  0  0  0
   21.5240   17.2583   22.3957 H   0  0  0  0  0  0  0  0  0  0  0  0
   22.9869   18.2247   22.1295 H   0  0  0  0  0  0  0  0  0  0  0  0
   21.7725   18.0967   20.8474 H   0  0  0  0  0  0  0  0  0  0  0  0
  1  2  1  0  0  0  0
  1  3  1  0  0  0  0
  1  4  1  0  0  0  0
  1  5  1  0  0  0  0
  5  6  1  0  0  0  0
  5  7  1  0  0  0  0
  5  8  1  0  0  0  0
  8  9  1  0  0  0  0
  8 10  1  0  0  0  0
  8 11  1  0  0  0  0
 11 12  1  0  0  0  0
 11 13  1  0  0  0  0
 11 14  1  0  0  0  0
 14 15  1  0  0  0  0
 14 16  1  0  0  0  0
 14 17  1  0  0  0  0
M  END
> <VConfSearch Rank>
104

> <Conf_Id>
36

> <Delta U+W>
0.275

> <U+W>
-15.590

> <U>
45.174

> <W>
-60.765

> <W(PB)>
-62.518

> <W(SA)>
1.754

> <Valence>
1.161

> <Coulomb>
43.789

> <VdW>
0.224

> <VdW6>
-2.897

> <VdW12>
3.121

> <Bond>
0.100

> <Angle>
0.500

> <Pdih>
0.561

> <Idih>
0.000

> <Tether>
0.000

$$$$
VeraChem MOL file


 17 16  0  0  0  0  0  0  0  0999 V2000     
   19.5859   20.8102   21.6911 N   0  3  0  0  0  0  0  0  0  0  0  0
   19.0311   20.3601   20.9586 H   0  0  0  0  0  0  0  0  0  0  0  0
   20.3743   21.2739   21.2299 H   0  0  0  0  0  0  0  0  0  0  0  0
   19.0045   21.5488   22.1001 H   0  0  0  0  0  0  0  0  0  0  0  0
   20.0508   19.8144   22.7362 C   0  0  0  0  0  0  0  0  0  0  0  0
   19.1722   19.4032   23.2405 H   0  0  0  0  0  0  0  0  0  0  0  0
   20.6329   20.3734   23.4739 H   0  0  0  0  0  0  0  0  0  0  0  0
   20.9173   18.6662   22.1773 C   0  0  0  0  0  0  0  0  0  0  0  0
   21.6546   19.0634   21.4672 H   0  0  0  0  0  0  0  0  0  0  0  0
   21.4971   18.2479   23.0109 H   0  0  0  0  0  0  0  0  0  0  0  0
   20.1128   17.5106   21.5292 C   0  0  0  0  0  0  0  0  0  0  0  0
   19.4233   17.0800   22.2690 H   0  0  0  0  0  0  0  0  0  0  0  0
   20.8141   16.7070   21.2639 H   0  0  0  0  0  0  0  0  0  0  0  0
   19.3237   17.9131   20.2627 C   0  0  0  0  0  0  0  0  0  0  0  0
   18.4721   18.5585   20.5074 H   0  0  0  0  0  0  0  0  0  0  0  0
   18.9197   17.0210   19.7665 H   0  0  0  0  0  0  0  0  0  0  0  0
   19.9668   18.4330   19.5407 H   0  0  0  0  0  0  0  0  0  0  0  0
  1  2  1  0  0  0  0
  1  3  1  0  0  0  0
  1  4  1  0  0  0  0
  1  5  1  0  0  0  0
  5  6  1  0  0  0  0
  5  7  1  0  0  0  0
  5  8  1  0  0  0  0
  8  9  1  0  0  0  0
  8 10  1  0  0  0  0
  8 11  1  0  0  0  0
 11 12  1  0  0  0  0
 11 13  1  0  0  0  0
 11 14  1  0  0  0  0
 14 15  1  0  0  0  0
 14 16  1  0  0  0  0
 14 17  1  0  0  0  0
M  END
> <VConfSearch Rank>
105

> <Conf_Id>
19

> <Delta U+W>
2.662

> <U+W>
-13.203

> <U>
47.423

> <W>
-60.626

> <W(PB)>
-62.328

> <W(SA)>
1.702

> <Valence>
2.414

> <Coulomb>
44.831

> <VdW>
0.178

> <VdW6>
-3.743

> <VdW12>
3.921

> <Bond>
0.138

> <Angle>
0.941

> <Pdih>
1.335

> <Idih>
0.000

> <Tether>
0.000

$$$$
VeraChem MOL file


 17 16  0  0  0  0  0  0  0  0999 V2000     
   18.9557   20.6525   21.3381 N   0  3  0  0  0  0  0  0  0  0  0  0
   19.0126   21.6745   21.2831 H   0  0  0  0  0  0  0  0  0  0  0  0
   17.9608   20.4123   21.3824 H   0  0  0  0  0  0  0  0  0  0  0  0
   19.3157   20.2821   20.4549 H   0  0  0  0  0  0  0  0  0  0  0  0
   19.7204   20.1082   22.5294 C   0  0  0  0  0  0  0  0  0  0  0  0
   19.2738   20.5492   23.4247 H   0  0  0  0  0  0  0  0  0  0  0  0
   20.7563   20.4516   22.4644 H   0  0  0  0  0  0  0  0  0  0  0  0
   19.6868   18.5705   22.6561 C   0  0  0  0  0  0  0  0  0  0  0  0
   19.9167   18.3154   23.6991 H   0  0  0  0  0  0  0  0  0  0  0  0
   18.6693   18.2007   22.4728 H   0  0  0  0  0  0  0  0  0  0  0  0
   20.7016   17.8286   21.7492 C   0  0  0  0  0  0  0  0  0  0  0  0
   20.6668   16.7579   21.9948 H   0  0  0  0  0  0  0  0  0  0  0  0
   21.7218   18.1616   21.9866 H   0  0  0  0  0  0  0  0  0  0  0  0
   20.4452   17.9946   20.2341 C   0  0  0  0  0  0  0  0  0  0  0  0
   19.4038   17.7599   19.9780 H   0  0  0  0  0  0  0  0  0  0  0  0
   21.0900   17.3146   19.6623 H   0  0  0  0  0  0  0  0  0  0  0  0
   20.6721   19.0127   19.8968 H   0  0  0  0  0  0  0  0  0  0  0  0
  1  2  1  0  0  0  0
  1  3  1  0  0  0  0
  1  4  1  0  0  0  0
  1  5  1  0  0  0  0
  5  6  1  0  0  0  0
  5  7  1  0  0  0  0
  5  8  1  0  0  0  0
  8  9  1  0  0  0  0
  8 10  1  0  0  0  0
  8 11  1  0  0  0  0
 11 12  1  0  0  0  0
 11 13  1  0  0  0  0
 11 14  1  0  0  0  0
 14 15  1  0  0  0  0
 14 16  1  0  0  0  0
 14 17  1  0  0  0  0
M  END
> <VConfSearch Rank>
106

> <Conf_Id>
44

> <Delta U+W>
2.712

> <U+W>
-13.153

> <U>
47.423

> <W>
-60.576

> <W(PB)>
-62.262

> <W(SA)>
1.687

> <Valence>
2.414

> <Coulomb>
44.831

> <VdW>
0.178

> <VdW6>
-3.743

> <VdW12>
3.922

> <Bond>
0.138

> <Angle>
0.941

> <Pdih>
1.335

> <Idih>
0.000

> <Tether>
0.000

$$$$
VeraChem MOL file


 17 16  0  0  0  0  0  0  0  0999 V2000     
   21.1242   17.6967   20.7675 N   0  3  0  0  0  0  0  0  0  0  0  0
   20.6468   18.1859   20.0051 H   0  0  0  0  0  0  0  0  0  0  0  0
   20.7279   16.7534   20.8171 H   0  0  0  0  0  0  0  0  0  0  0  0
   22.1051   17.5932   20.4886 H   0  0  0  0  0  0  0  0  0  0  0  0
   20.9871   18.4379   22.0834 C   0  0  0  0  0  0  0  0  0  0  0  0
   21.4538   19.4198   21.9702 H   0  0  0  0  0  0  0  0  0  0  0  0
   21.5489   17.8819   22.8388 H   0  0  0  0  0  0  0  0  0  0  0  0
   19.5276   18.6068   22.5539 C   0  0  0  0  0  0  0  0  0  0  0  0
   19.0803   17.6152   22.7038 H   0  0  0  0  0  0  0  0  0  0  0  0
   19.5300   19.0930   23.5385 H   0  0  0  0  0  0  0  0  0  0  0  0
   18.6435   19.4280   21.5826 C   0  0  0  0  0  0  0  0  0  0  0  0
   17.6248   19.4823   21.9914 H   0  0  0  0  0  0  0  0  0  0  0  0
   18.5561   18.9070   20.6195 H   0  0  0  0  0  0  0  0  0  0  0  0
   19.1692   20.8634   21.3521 C   0  0  0  0  0  0  0  0  0  0  0  0
   19.2645   21.4060   22.3016 H   0  0  0  0  0  0  0  0  0  0  0  0
   18.4791   21.4280   20.7119 H   0  0  0  0  0  0  0  0  0  0  0  0
   20.1497   20.8603   20.8596 H   0  0  0  0  0  0  0  0  0  0  0  0
  1  2  1  0  0  0  0
  1  3  1  0  0  0  0
  1  4  1  0  0  0  0
  1  5  1  0  0  0  0
  5  6  1  0  0  0  0
  5  7  1  0  0  0  0
  5  8  1  0  0  0  0
  8  9  1  0  0  0  0
  8 10  1  0  0  0  0
  8 11  1  0  0  0  0
 11 12  1  0  0  0  0
 11 13  1  0  0  0  0
 11 14  1  0  0  0  0
 14 15  1  0  0  0  0
 14 16  1  0  0  0  0
 14 17  1  0  0  0  0
M  END
> <VConfSearch Rank>
107

> <Conf_Id>
1

> <Delta U+W>
0.685

> <U+W>
-15.179

> <U>
45.697

> <W>
-60.876

> <W(PB)>
-62.586

> <W(SA)>
1.710

> <Valence>
1.263

> <Coulomb>
44.179

> <VdW>
0.255

> <VdW6>
-3.552

> <VdW12>
3.807

> <Bond>
0.125

> <Angle>
0.616

> <Pdih>
0.521

> <Idih>
0.000

> <Tether>
0.000

$$$$
VeraChem MOL file


 17 16  0  0  0  0  0  0  0  0999 V2000     
   20.1399   20.1246   23.2428 N   0  3  0  0  0  0  0  0  0  0  0  0
   20.4606   21.0726   23.0240 H   0  0  0  0  0  0  0  0  0  0  0  0
   20.9551   19.5080   23.1835 H   0  0  0  0  0  0  0  0  0  0  0  0
   19.8400   20.1306   24.2230 H   0  0  0  0  0  0  0  0  0  0  0  0
   19.0272   19.6756   22.3153 C   0  0  0  0  0  0  0  0  0  0  0  0
   18.1808   20.3529   22.4584 H   0  0  0  0  0  0  0  0  0  0  0  0
   18.7137   18.6741   22.6211 H   0  0  0  0  0  0  0  0  0  0  0  0
   19.4255   19.6636   20.8250 C   0  0  0  0  0  0  0  0  0  0  0  0
   18.5451   19.3903   20.2283 H   0  0  0  0  0  0  0  0  0  0  0  0
   19.6995   20.6814   20.5170 H   0  0  0  0  0  0  0  0  0  0  0  0
   20.5876   18.6952   20.4912 C   0  0  0  0  0  0  0  0  0  0  0  0
   21.5027   19.0104   21.0106 H   0  0  0  0  0  0  0  0  0  0  0  0
   20.8092   18.7655   19.4170 H   0  0  0  0  0  0  0  0  0  0  0  0
   20.2696   17.2239   20.8431 C   0  0  0  0  0  0  0  0  0  0  0  0
   21.0916   16.5670   20.5304 H   0  0  0  0  0  0  0  0  0  0  0  0
   19.3580   16.8846   20.3342 H   0  0  0  0  0  0  0  0  0  0  0  0
   20.1299   17.0879   21.9229 H   0  0  0  0  0  0  0  0  0  0  0  0
  1  2  1  0  0  0  0
  1  3  1  0  0  0  0
  1  4  1  0  0  0  0
  1  5  1  0  0  0  0
  5  6  1  0  0  0  0
  5  7  1  0  0  0  0
  5  8  1  0  0  0  0
  8  9  1  0  0  0  0
  8 10  1  0  0  0  0
  8 11  1  0  0  0  0
 11 12  1  0  0  0  0
 11 13  1  0  0  0  0
 11 14  1  0  0  0  0
 14 15  1  0  0  0  0
 14 16  1  0  0  0  0
 14 17  1  0  0  0  0
M  END
> <VConfSearch Rank>
108

> <Conf_Id>
43

> <Delta U+W>
0.642

> <U+W>
-15.222

> <U>
45.697

> <W>
-60.919

> <W(PB)>
-62.631

> <W(SA)>
1.712

> <Valence>
1.262

> <Coulomb>
44.179

> <VdW>
0.255

> <VdW6>
-3.552

> <VdW12>
3.807

> <Bond>
0.125

> <Angle>
0.616

> <Pdih>
0.521

> <Idih>
0.000

> <Tether>
0.000

$$$$
VeraChem MOL file


 17 16  0  0  0  0  0  0  0  0999 V2000     
   18.3113   17.8131   20.0779 N   0  3  0  0  0  0  0  0  0  0  0  0
   18.2190   18.5387   19.3604 H   0  0  0  0  0  0  0  0  0  0  0  0
   17.4887   17.8836   20.6845 H   0  0  0  0  0  0  0  0  0  0  0  0
   18.2477   16.9104   19.5962 H   0  0  0  0  0  0  0  0  0  0  0  0
   19.6046   17.9462   20.8570 C   0  0  0  0  0  0  0  0  0  0  0  0
   20.4350   17.8306   20.1551 H   0  0  0  0  0  0  0  0  0  0  0  0
   19.6497   17.1262   21.5789 H   0  0  0  0  0  0  0  0  0  0  0  0
   19.7333   19.2919   21.5937 C   0  0  0  0  0  0  0  0  0  0  0  0
   19.6721   20.1133   20.8675 H   0  0  0  0  0  0  0  0  0  0  0  0
   18.8896   19.4113   22.2865 H   0  0  0  0  0  0  0  0  0  0  0  0
   21.0631   19.3862   22.3737 C   0  0  0  0  0  0  0  0  0  0  0  0
   21.9080   19.2635   21.6813 H   0  0  0  0  0  0  0  0  0  0  0  0
   21.1265   18.5624   23.0986 H   0  0  0  0  0  0  0  0  0  0  0  0
   21.1993   20.7336   23.1153 C   0  0  0  0  0  0  0  0  0  0  0  0
   22.1497   20.7807   23.6626 H   0  0  0  0  0  0  0  0  0  0  0  0
   20.3865   20.8696   23.8406 H   0  0  0  0  0  0  0  0  0  0  0  0
   21.1742   21.5763   22.4121 H   0  0  0  0  0  0  0  0  0  0  0  0
  1  2  1  0  0  0  0
  1  3  1  0  0  0  0
  1  4  1  0  0  0  0
  1  5  1  0  0  0  0
  5  6  1  0  0  0  0
  5  7  1  0  0  0  0
  5  8  1  0  0  0  0
  8  9  1  0  0  0  0
  8 10  1  0  0  0  0
  8 11  1  0  0  0  0
 11 12  1  0  0  0  0
 11 13  1  0  0  0  0
 11 14  1  0  0  0  0
 14 15  1  0  0  0  0
 14 16  1  0  0  0  0
 14 17  1  0  0  0  0
M  END
> <VConfSearch Rank>
109

> <Conf_Id>
7

> <Delta U+W>
0.000

> <U+W>
-15.865

> <U>
44.664

> <W>
-60.529

> <W(PB)>
-62.309

> <W(SA)>
1.780

> <Valence>
0.872

> <Coulomb>
43.648

> <VdW>
0.144

> <VdW6>
-2.370

> <VdW12>
2.515

> <Bond>
0.080

> <Angle>
0.376

> <Pdih>
0.416

> <Idih>
0.000

> <Tether>
0.000

$$$$
VeraChem MOL file


 17 16  0  0  0  0  0  0  0  0999 V2000     
   21.9354   17.8505   21.1215 N   0  3  0  0  0  0  0  0  0  0  0  0
   22.6338   18.0499   21.8441 H   0  0  0  0  0  0  0  0  0  0  0  0
   22.2154   18.3667   20.2821 H   0  0  0  0  0  0  0  0  0  0  0  0
   22.0173   16.8535   20.8975 H   0  0  0  0  0  0  0  0  0  0  0  0
   20.5341   18.2142   21.5705 C   0  0  0  0  0  0  0  0  0  0  0  0
   20.2919   17.6073   22.4471 H   0  0  0  0  0  0  0  0  0  0  0  0
   19.8437   17.9461   20.7665 H   0  0  0  0  0  0  0  0  0  0  0  0
   20.3758   19.7075   21.9152 C   0  0  0  0  0  0  0  0  0  0  0  0
   21.1009   19.9755   22.6951 H   0  0  0  0  0  0  0  0  0  0  0  0
   20.6207   20.3170   21.0352 H   0  0  0  0  0  0  0  0  0  0  0  0
   18.9527   20.0580   22.4092 C   0  0  0  0  0  0  0  0  0  0  0  0
   18.9303   21.1141   22.7127 H   0  0  0  0  0  0  0  0  0  0  0  0
   18.7187   19.4729   23.3097 H   0  0  0  0  0  0  0  0  0  0  0  0
   17.8649   19.8184   21.3372 C   0  0  0  0  0  0  0  0  0  0  0  0
   18.0786   20.3880   20.4233 H   0  0  0  0  0  0  0  0  0  0  0  0
   16.8822   20.1372   21.7081 H   0  0  0  0  0  0  0  0  0  0  0  0
   17.7889   18.7569   21.0697 H   0  0  0  0  0  0  0  0  0  0  0  0
  1  2  1  0  0  0  0
  1  3  1  0  0  0  0
  1  4  1  0  0  0  0
  1  5  1  0  0  0  0
  5  6  1  0  0  0  0
  5  7  1  0  0  0  0
  5  8  1  0  0  0  0
  8  9  1  0  0  0  0
  8 10  1  0  0  0  0
  8 11  1  0  0  0  0
 11 12  1  0  0  0  0
 11 13  1  0  0  0  0
 11 14  1  0  0  0  0
 14 15  1  0  0  0  0
 14 16  1  0  0  0  0
 14 17  1  0  0  0  0
M  END
> <VConfSearch Rank>
110

> <Conf_Id>
36

> <Delta U+W>
0.275

> <U+W>
-15.590

> <U>
45.174

> <W>
-60.765

> <W(PB)>
-62.518

> <W(SA)>
1.754

> <Valence>
1.161

> <Coulomb>
43.789

> <VdW>
0.224

> <VdW6>
-2.897

> <VdW12>
3.121

> <Bond>
0.100

> <Angle>
0.500

> <Pdih>
0.561

> <Idih>
0.000

> <Tether>
0.000

$$$$
VeraChem MOL file


 17 16  0  0  0  0  0  0  0  0999 V2000     
   18.8688   18.8019   20.0926 N   0  3  0  0  0  0  0  0  0  0  0  0
   19.8454   18.9693   19.8374 H   0  0  0  0  0  0  0  0  0  0  0  0
   18.3728   19.6919   19.9863 H   0  0  0  0  0  0  0  0  0  0  0  0
   18.4797   18.1595   19.3950 H   0  0  0  0  0  0  0  0  0  0  0  0
   18.7420   18.2508   21.4998 C   0  0  0  0  0  0  0  0  0  0  0  0
   19.2295   17.2729   21.5359 H   0  0  0  0  0  0  0  0  0  0  0  0
   17.6755   18.1039   21.6908 H   0  0  0  0  0  0  0  0  0  0  0  0
   19.3273   19.1669   22.5951 C   0  0  0  0  0  0  0  0  0  0  0  0
   19.0315   20.2083   22.4114 H   0  0  0  0  0  0  0  0  0  0  0  0
   18.8633   18.8860   23.5499 H   0  0  0  0  0  0  0  0  0  0  0  0
   20.8648   19.0650   22.7644 C   0  0  0  0  0  0  0  0  0  0  0  0
   21.1417   18.0302   23.0103 H   0  0  0  0  0  0  0  0  0  0  0  0
   21.1584   19.6724   23.6321 H   0  0  0  0  0  0  0  0  0  0  0  0
   21.6756   19.5372   21.5361 C   0  0  0  0  0  0  0  0  0  0  0  0
   21.5789   18.8381   20.6973 H   0  0  0  0  0  0  0  0  0  0  0  0
   22.7432   19.5963   21.7848 H   0  0  0  0  0  0  0  0  0  0  0  0
   21.3550   20.5339   21.2060 H   0  0  0  0  0  0  0  0  0  0  0  0
  1  2  1  0  0  0  0
  1  3  1  0  0  0  0
  1  4  1  0  0  0  0
  1  5  1  0  0  0  0
  5  6  1  0  0  0  0
  5  7  1  0  0  0  0
  5  8  1  0  0  0  0
  8  9  1  0  0  0  0
  8 10  1  0  0  0  0
  8 11  1  0  0  0  0
 11 12  1  0  0  0  0
 11 13  1  0  0  0  0
 11 14  1  0  0  0  0
 14 15  1  0  0  0  0
 14 16  1  0  0  0  0
 14 17  1  0  0  0  0
M  END
> <VConfSearch Rank>
111

> <Conf_Id>
19

> <Delta U+W>
2.662

> <U+W>
-13.203

> <U>
47.423

> <W>
-60.626

> <W(PB)>
-62.328

> <W(SA)>
1.702

> <Valence>
2.414

> <Coulomb>
44.831

> <VdW>
0.178

> <VdW6>
-3.743

> <VdW12>
3.921

> <Bond>
0.138

> <Angle>
0.941

> <Pdih>
1.335

> <Idih>
0.000

> <Tether>
0.000

$$$$
VeraChem MOL file


 17 16  0  0  0  0  0  0  0  0999 V2000     
   19.3008   20.5568   20.6606 N   0  3  0  0  0  0  0  0  0  0  0  0
   19.2716   21.5806   20.6180 H   0  0  0  0  0  0  0  0  0  0  0  0
   18.6391   20.2113   19.9590 H   0  0  0  0  0  0  0  0  0  0  0  0
   20.2355   20.2687   20.3603 H   0  0  0  0  0  0  0  0  0  0  0  0
   18.9718   20.0403   22.0480 C   0  0  0  0  0  0  0  0  0  0  0  0
   17.9637   20.3888   22.2883 H   0  0  0  0  0  0  0  0  0  0  0  0
   19.6650   20.4936   22.7617 H   0  0  0  0  0  0  0  0  0  0  0  0
   19.0172   18.5034   22.1801 C   0  0  0  0  0  0  0  0  0  0  0  0
   18.4168   18.2247   23.0563 H   0  0  0  0  0  0  0  0  0  0  0  0
   18.5240   18.0375   21.3166 H   0  0  0  0  0  0  0  0  0  0  0  0
   20.4391   17.9163   22.3704 C   0  0  0  0  0  0  0  0  0  0  0  0
   20.3457   16.8374   22.5583 H   0  0  0  0  0  0  0  0  0  0  0  0
   20.8973   18.3433   23.2736 H   0  0  0  0  0  0  0  0  0  0  0  0
   21.3837   18.1260   21.1652 C   0  0  0  0  0  0  0  0  0  0  0  0
   20.9150   17.7953   20.2291 H   0  0  0  0  0  0  0  0  0  0  0  0
   22.3058   17.5456   21.2990 H   0  0  0  0  0  0  0  0  0  0  0  0
   21.6772   19.1772   21.0622 H   0  0  0  0  0  0  0  0  0  0  0  0
  1  2  1  0  0  0  0
  1  3  1  0  0  0  0
  1  4  1  0  0  0  0
  1  5  1  0  0  0  0
  5  6  1  0  0  0  0
  5  7  1  0  0  0  0
  5  8  1  0  0  0  0
  8  9  1  0  0  0  0
  8 10  1  0  0  0  0
  8 11  1  0  0  0  0
 11 12  1  0  0  0  0
 11 13  1  0  0  0  0
 11 14  1  0  0  0  0
 14 15  1  0  0  0  0
 14 16  1  0  0  0  0
 14 17  1  0  0  0  0
M  END
> <VConfSearch Rank>
112

> <Conf_Id>
44

> <Delta U+W>
2.712

> <U+W>
-13.153

> <U>
47.423

> <W>
-60.576

> <W(PB)>
-62.262

> <W(SA)>
1.687

> <Valence>
2.414

> <Coulomb>
44.831

> <VdW>
0.178

> <VdW6>
-3.743

> <VdW12>
3.922

> <Bond>
0.138

> <Angle>
0.941

> <Pdih>
1.335

> <Idih>
0.000

> <Tether>
0.000

$$$$
VeraChem MOL file


 17 16  0  0  0  0  0  0  0  0999 V2000     
   19.4806   17.3650   20.6233 N   0  3  0  0  0  0  0  0  0  0  0  0
   18.6232   17.9233   20.6633 H   0  0  0  0  0  0  0  0  0  0  0  0
   19.3586   16.5762   21.2654 H   0  0  0  0  0  0  0  0  0  0  0  0
   19.5385   16.9730   19.6780 H   0  0  0  0  0  0  0  0  0  0  0  0
   20.7052   18.1906   20.9675 C   0  0  0  0  0  0  0  0  0  0  0  0
   20.7921   18.9927   20.2301 H   0  0  0  0  0  0  0  0  0  0  0  0
   21.5814   17.5440   20.8683 H   0  0  0  0  0  0  0  0  0  0  0  0
   20.6721   18.7913   22.3881 C   0  0  0  0  0  0  0  0  0  0  0  0
   20.6258   17.9767   23.1229 H   0  0  0  0  0  0  0  0  0  0  0  0
   21.6204   19.3140   22.5706 H   0  0  0  0  0  0  0  0  0  0  0  0
   19.4962   19.7700   22.6310 C   0  0  0  0  0  0  0  0  0  0  0  0
   19.5464   20.1332   23.6671 H   0  0  0  0  0  0  0  0  0  0  0  0
   18.5386   19.2392   22.5420 H   0  0  0  0  0  0  0  0  0  0  0  0
   19.5101   20.9829   21.6726 C   0  0  0  0  0  0  0  0  0  0  0  0
   20.4584   21.5314   21.7439 H   0  0  0  0  0  0  0  0  0  0  0  0
   18.7004   21.6806   21.9227 H   0  0  0  0  0  0  0  0  0  0  0  0
   19.3705   20.6747   20.6288 H   0  0  0  0  0  0  0  0  0  0  0  0
  1  2  1  0  0  0  0
  1  3  1  0  0  0  0
  1  4  1  0  0  0  0
  1  5  1  0  0  0  0
  5  6  1  0  0  0  0
  5  7  1  0  0  0  0
  5  8  1  0  0  0  0
  8  9  1  0  0  0  0
  8 10  1  0  0  0  0
  8 11  1  0  0  0  0
 11 12  1  0  0  0  0
 11 13  1  0  0  0  0
 11 14  1  0  0  0  0
 14 15  1  0  0  0  0
 14 16  1  0  0  0  0
 14 17  1  0  0  0  0
M  END
> <VConfSearch Rank>
113

> <Conf_Id>
1

> <Delta U+W>
0.685

> <U+W>
-15.179

> <U>
45.697

> <W>
-60.876

> <W(PB)>
-62.586

> <W(SA)>
1.710

> <Valence>
1.263

> <Coulomb>
44.179

> <VdW>
0.255

> <VdW6>
-3.552

> <VdW12>
3.807

> <Bond>
0.125

> <Angle>
0.616

> <Pdih>
0.521

> <Idih>
0.000

> <Tether>
0.000

$$$$
VeraChem MOL file


 17 16  0  0  0  0  0  0  0  0999 V2000     
   18.6401   18.6640   20.1299 N   0  3  0  0  0  0  0  0  0  0  0  0
   17.6758   18.6294   20.4739 H   0  0  0  0  0  0  0  0  0  0  0  0
   19.0806   17.7724   20.3735 H   0  0  0  0  0  0  0  0  0  0  0  0
   18.5900   18.7034   19.1069 H   0  0  0  0  0  0  0  0  0  0  0  0
   19.4033   19.8427   20.7030 C   0  0  0  0  0  0  0  0  0  0  0  0
   18.9011   20.7564   20.3736 H   0  0  0  0  0  0  0  0  0  0  0  0
   20.4088   19.8367   20.2745 H   0  0  0  0  0  0  0  0  0  0  0  0
   19.4939   19.8365   22.2430 C   0  0  0  0  0  0  0  0  0  0  0  0
   20.0033   20.7532   22.5685 H   0  0  0  0  0  0  0  0  0  0  0  0
   18.4808   19.8838   22.6638 H   0  0  0  0  0  0  0  0  0  0  0  0
   20.2356   18.6076   22.8255 C   0  0  0  0  0  0  0  0  0  0  0  0
   19.6868   17.6867   22.5857 H   0  0  0  0  0  0  0  0  0  0  0  0
   20.2375   18.6825   23.9220 H   0  0  0  0  0  0  0  0  0  0  0  0
   21.6944   18.4888   22.3278 C   0  0  0  0  0  0  0  0  0  0  0  0
   22.1999   17.6450   22.8149 H   0  0  0  0  0  0  0  0  0  0  0  0
   22.2648   19.3983   22.5571 H   0  0  0  0  0  0  0  0  0  0  0  0
   21.7391   18.3206   21.2444 H   0  0  0  0  0  0  0  0  0  0  0  0
  1  2  1  0  0  0  0
  1  3  1  0  0  0  0
  1  4  1  0  0  0  0
  1  5  1  0  0  0  0
  5  6  1  0  0  0  0
  5  7  1  0  0  0  0
  5  8  1  0  0  0  0
  8  9  1  0  0  0  0
  8 10  1  0  0  0  0
  8 11  1  0  0  0  0
 11 12  1  0  0  0  0
 11 13  1  0  0  0  0
 11 14  1  0  0  0  0
 14 15  1  0  0  0  0
 14 16  1  0  0  0  0
 14 17  1  0  0  0  0
M  END
> <VConfSearch Rank>
114

> <Conf_Id>
43

> <Delta U+W>
0.642

> <U+W>
-15.222

> <U>
45.697

> <W>
-60.919

> <W(PB)>
-62.631

> <W(SA)>
1.712

> <Valence>
1.262

> <Coulomb>
44.179

> <VdW>
0.255

> <VdW6>
-3.552

> <VdW12>
3.807

> <Bond>
0.125

> <Angle>
0.616

> <Pdih>
0.521

> <Idih>
0.000

> <Tether>
0.000

$$$$
VeraChem MOL file


 17 16  0  0  0  0  0  0  0  0999 V2000     
   17.6513   18.1275   20.9677 N   0  3  0  0  0  0  0  0  0  0  0  0
   17.6064   17.3906   21.6781 H   0  0  0  0  0  0  0  0  0  0  0  0
   17.9268   17.6807   20.0879 H   0  0  0  0  0  0  0  0  0  0  0  0
   16.6946   18.4724   20.8379 H   0  0  0  0  0  0  0  0  0  0  0  0
   18.6026   19.2396   21.3622 C   0  0  0  0  0  0  0  0  0  0  0  0
   18.2317   19.6887   22.2876 H   0  0  0  0  0  0  0  0  0  0  0  0
   18.5762   20.0006   20.5776 H   0  0  0  0  0  0  0  0  0  0  0  0
   20.0500   18.7561   21.5656 C   0  0  0  0  0  0  0  0  0  0  0  0
   20.0704   17.9810   22.3433 H   0  0  0  0  0  0  0  0  0  0  0  0
   20.4138   18.2920   20.6392 H   0  0  0  0  0  0  0  0  0  0  0  0
   20.9850   19.9184   21.9661 C   0  0  0  0  0  0  0  0  0  0  0  0
   20.6195   20.3855   22.8917 H   0  0  0  0  0  0  0  0  0  0  0  0
   20.9625   20.6961   21.1896 H   0  0  0  0  0  0  0  0  0  0  0  0
   22.4388   19.4410   22.1720 C   0  0  0  0  0  0  0  0  0  0  0  0
   23.0863   20.2808   22.4557 H   0  0  0  0  0  0  0  0  0  0  0  0
   22.8441   18.9999   21.2520 H   0  0  0  0  0  0  0  0  0  0  0  0
   22.4984   18.6868   22.9674 H   0  0  0  0  0  0  0  0  0  0  0  0
  1  2  1  0  0  0  0
  1  3  1  0  0  0  0
  1  4  1  0  0  0  0
  1  5  1  0  0  0  0
  5  6  1  0  0  0  0
  5  7  1  0  0  0  0
  5  8  1  0  0  0  0
  8  9  1  0  0  0  0
  8 10  1  0  0  0  0
  8 11  1  0  0  0  0
 11 12  1  0  0  0  0
 11 13  1  0  0  0  0
 11 14  1  0  0  0  0
 14 15  1  0  0  0  0
 14 16  1  0  0  0  0
 14 17  1  0  0  0  0
M  END
> <VConfSearch Rank>
115

> <Conf_Id>
7

> <Delta U+W>
0.000

> <U+W>
-15.865

> <U>
44.664

> <W>
-60.529

> <W(PB)>
-62.309

> <W(SA)>
1.780

> <Valence>
0.872

> <Coulomb>
43.648

> <VdW>
0.144

> <VdW6>
-2.370

> <VdW12>
2.515

> <Bond>
0.080

> <Angle>
0.376

> <Pdih>
0.416

> <Idih>
0.000

> <Tether>
0.000

$$$$
VeraChem MOL file


 17 16  0  0  0  0  0  0  0  0999 V2000     
   17.8820   20.0029   20.7164 N   0  3  0  0  0  0  0  0  0  0  0  0
   17.8433   21.0040   20.9312 H   0  0  0  0  0  0  0  0  0  0  0  0
   17.2288   19.5338   21.3512 H   0  0  0  0  0  0  0  0  0  0  0  0
   17.5082   19.8887   19.7688 H   0  0  0  0  0  0  0  0  0  0  0  0
   19.2880   19.4500   20.8383 C   0  0  0  0  0  0  0  0  0  0  0  0
   19.9204   19.9724   20.1156 H   0  0  0  0  0  0  0  0  0  0  0  0
   19.2575   18.3919   20.5656 H   0  0  0  0  0  0  0  0  0  0  0  0
   19.8806   19.6054   22.2520 C   0  0  0  0  0  0  0  0  0  0  0  0
   19.8697   20.6672   22.5320 H   0  0  0  0  0  0  0  0  0  0  0  0
   19.2445   19.0821   22.9782 H   0  0  0  0  0  0  0  0  0  0  0  0
   21.3293   19.0732   22.3533 C   0  0  0  0  0  0  0  0  0  0  0  0
   21.7184   19.2864   23.3589 H   0  0  0  0  0  0  0  0  0  0  0  0
   21.9744   19.6192   21.6505 H   0  0  0  0  0  0  0  0  0  0  0  0
   21.4354   17.5548   22.0831 C   0  0  0  0  0  0  0  0  0  0  0  0
   20.7947   16.9857   22.7692 H   0  0  0  0  0  0  0  0  0  0  0  0
   22.4677   17.2097   22.2255 H   0  0  0  0  0  0  0  0  0  0  0  0
   21.1426   17.3065   21.0551 H   0  0  0  0  0  0  0  0  0  0  0  0
  1  2  1  0  0  0  0
  1  3  1  0  0  0  0
  1  4  1  0  0  0  0
  1  5  1  0  0  0  0
  5  6  1  0  0  0  0
  5  7  1  0  0  0  0
  5  8  1  0  0  0  0
  8  9  1  0  0  0  0
  8 10  1  0  0  0  0
  8 11  1  0  0  0  0
 11 12  1  0  0  0  0
 11 13  1  0  0  0  0
 11 14  1  0  0  0  0
 14 15  1  0  0  0  0
 14 16  1  0  0  0  0
 14 17  1  0  0  0  0
M  END
> <VConfSearch Rank>
116

> <Conf_Id>
36

> <Delta U+W>
0.275

> <U+W>
-15.590

> <U>
45.174

> <W>
-60.765

> <W(PB)>
-62.518

> <W(SA)>
1.754

> <Valence>
1.161

> <Coulomb>
43.789

> <VdW>
0.224

> <VdW6>
-2.897

> <VdW12>
3.121

> <Bond>
0.100

> <Angle>
0.500

> <Pdih>
0.561

> <Idih>
0.000

> <Tether>
0.000

$$$$
VeraChem MOL file


 17 16  0  0  0  0  0  0  0  0999 V2000     
   20.3662   17.3201   20.8998 N   0  3  0  0  0  0  0  0  0  0  0  0
   20.3061   18.0285   20.1640 H   0  0  0  0  0  0  0  0  0  0  0  0
   19.4906   16.7887   20.8788 H   0  0  0  0  0  0  0  0  0  0  0  0
   21.1141   16.6711   20.6346 H   0  0  0  0  0  0  0  0  0  0  0  0
   20.6153   17.9423   22.2603 C   0  0  0  0  0  0  0  0  0  0  0  0
   21.5906   18.4360   22.2439 H   0  0  0  0  0  0  0  0  0  0  0  0
   20.6635   17.1229   22.9827 H   0  0  0  0  0  0  0  0  0  0  0  0
   19.5301   18.9441   22.7080 C   0  0  0  0  0  0  0  0  0  0  0  0
   18.5327   18.5390   22.4916 H   0  0  0  0  0  0  0  0  0  0  0  0
   19.5879   19.0340   23.8009 H   0  0  0  0  0  0  0  0  0  0  0  0
   19.6780   20.3641   22.1045 C   0  0  0  0  0  0  0  0  0  0  0  0
   20.6554   20.7835   22.3815 H   0  0  0  0  0  0  0  0  0  0  0  0
   18.9250   21.0171   22.5678 H   0  0  0  0  0  0  0  0  0  0  0  0
   19.5067   20.4272   20.5697 C   0  0  0  0  0  0  0  0  0  0  0  0
   20.3541   19.9641   20.0509 H   0  0  0  0  0  0  0  0  0  0  0  0
   19.4559   21.4716   20.2351 H   0  0  0  0  0  0  0  0  0  0  0  0
   18.5811   19.9302   20.2511 H   0  0  0  0  0  0  0  0  0  0  0  0
  1  2  1  0  0  0  0
  1  3  1  0  0  0  0
  1  4  1  0  0  0  0
  1  5  1  0  0  0  0
  5  6  1  0  0  0  0
  5  7  1  0  0  0  0
  5  8  1  0  0  0  0
  8  9  1  0  0  0  0
  8 10  1  0  0  0  0
  8 11  1  0  0  0  0
 11 12  1  0  0  0  0
 11 13  1  0  0  0  0
 11 14  1  0  0  0  0
 14 15  1  0  0  0  0
 14 16  1  0  0  0  0
 14 17  1  0  0  0  0
M  END
> <VConfSearch Rank>
117

> <Conf_Id>
19

> <Delta U+W>
2.662

> <U+W>
-13.203

> <U>
47.423

> <W>
-60.626

> <W(PB)>
-62.328

> <W(SA)>
1.702

> <Valence>
2.414

> <Coulomb>
44.831

> <VdW>
0.178

> <VdW6>
-3.743

> <VdW12>
3.921

> <Bond>
0.138

> <Angle>
0.941

> <Pdih>
1.335

> <Idih>
0.000

> <Tether>
0.000

$$$$
VeraChem MOL file


 17 16  0  0  0  0  0  0  0  0999 V2000     
   18.0267   19.1310   21.4842 N   0  3  0  0  0  0  0  0  0  0  0  0
   17.1519   18.5973   21.4574 H   0  0  0  0  0  0  0  0  0  0  0  0
   17.7952   20.0941   21.2228 H   0  0  0  0  0  0  0  0  0  0  0  0
   18.3389   19.1503   22.4584 H   0  0  0  0  0  0  0  0  0  0  0  0
   19.0789   18.5359   20.5683 C   0  0  0  0  0  0  0  0  0  0  0  0
   18.6685   18.5548   19.5550 H   0  0  0  0  0  0  0  0  0  0  0  0
   19.2350   17.4912   20.8501 H   0  0  0  0  0  0  0  0  0  0  0  0
   20.4271   19.2868   20.5788 C   0  0  0  0  0  0  0  0  0  0  0  0
   20.9572   19.0364   19.6503 H   0  0  0  0  0  0  0  0  0  0  0  0
   20.2537   20.3705   20.5436 H   0  0  0  0  0  0  0  0  0  0  0  0
   21.3538   18.9274   21.7683 C   0  0  0  0  0  0  0  0  0  0  0  0
   22.3182   19.4335   21.6208 H   0  0  0  0  0  0  0  0  0  0  0  0
   21.5710   17.8501   21.7552 H   0  0  0  0  0  0  0  0  0  0  0  0
   20.7969   19.3237   23.1546 C   0  0  0  0  0  0  0  0  0  0  0  0
   20.4809   20.3748   23.1716 H   0  0  0  0  0  0  0  0  0  0  0  0
   21.5682   19.1954   23.9252 H   0  0  0  0  0  0  0  0  0  0  0  0
   19.9471   18.6936   23.4419 H   0  0  0  0  0  0  0  0  0  0  0  0
  1  2  1  0  0  0  0
  1  3  1  0  0  0  0
  1  4  1  0  0  0  0
  1  5  1  0  0  0  0
  5  6  1  0  0  0  0
  5  7  1  0  0  0  0
  5  8  1  0  0  0  0
  8  9  1  0  0  0  0
  8 10  1  0  0  0  0
  8 11  1  0  0  0  0
 11 12  1  0  0  0  0
 11 13  1  0  0  0  0
 11 14  1  0  0  0  0
 14 15  1  0  0  0  0
 14 16  1  0  0  0  0
 14 17  1  0  0  0  0
M  END
> <VConfSearch Rank>
118

> <Conf_Id>
44

> <Delta U+W>
2.712

> <U+W>
-13.153

> <U>
47.423

> <W>
-60.576

> <W(PB)>
-62.262

> <W(SA)>
1.687

> <Valence>
2.414

> <Coulomb>
44.831

> <VdW>
0.178

> <VdW6>
-3.743

> <VdW12>
3.922

> <Bond>
0.138

> <Angle>
0.941

> <Pdih>
1.335

> <Idih>
0.000

> <Tether>
0.000

$$$$
VeraChem MOL file


 17 16  0  0  0  0  0  0  0  0999 V2000     
   18.0731   19.7726   21.6314 N   0  3  0  0  0  0  0  0  0  0  0  0
   18.0113   18.8184   21.2652 H   0  0  0  0  0  0  0  0  0  0  0  0
   17.9079   20.4096   20.8464 H   0  0  0  0  0  0  0  0  0  0  0  0
   17.2913   19.8943   22.2830 H   0  0  0  0  0  0  0  0  0  0  0  0
   19.4097   20.0325   22.2993 C   0  0  0  0  0  0  0  0  0  0  0  0
   19.5082   19.3426   23.1414 H   0  0  0  0  0  0  0  0  0  0  0  0
   19.3907   21.0508   22.6971 H   0  0  0  0  0  0  0  0  0  0  0  0
   20.6189   19.8759   21.3542 C   0  0  0  0  0  0  0  0  0  0  0  0
   20.5315   20.6007   20.5340 H   0  0  0  0  0  0  0  0  0  0  0  0
   21.5310   20.1446   21.9035 H   0  0  0  0  0  0  0  0  0  0  0  0
   20.7792   18.4516   20.7668 C   0  0  0  0  0  0  0  0  0  0  0  0
   21.6522   18.4404   20.0992 H   0  0  0  0  0  0  0  0  0  0  0  0
   19.9136   18.2029   20.1378 H   0  0  0  0  0  0  0  0  0  0  0  0
   20.9631   17.3662   21.8521 C   0  0  0  0  0  0  0  0  0  0  0  0
   21.8244   17.5921   22.4941 H   0  0  0  0  0  0  0  0  0  0  0  0
   21.1380   16.3858   21.3904 H   0  0  0  0  0  0  0  0  0  0  0  0
   20.0745   17.2778   22.4897 H   0  0  0  0  0  0  0  0  0  0  0  0
  1  2  1  0  0  0  0
  1  3  1  0  0  0  0
  1  4  1  0  0  0  0
  1  5  1  0  0  0  0
  5  6  1  0  0  0  0
  5  7  1  0  0  0  0
  5  8  1  0  0  0  0
  8  9  1  0  0  0  0
  8 10  1  0  0  0  0
  8 11  1  0  0  0  0
 11 12  1  0  0  0  0
 11 13  1  0  0  0  0
 11 14  1  0  0  0  0
 14 15  1  0  0  0  0
 14 16  1  0  0  0  0
 14 17  1  0  0  0  0
M  END
> <VConfSearch Rank>
119

> <Conf_Id>
1

> <Delta U+W>
0.685

> <U+W>
-15.179

> <U>
45.697

> <W>
-60.876

> <W(PB)>
-62.586

> <W(SA)>
1.710

> <Valence>
1.263

> <Coulomb>
44.179

> <VdW>
0.255

> <VdW6>
-3.552

> <VdW12>
3.807

> <Bond>
0.125

> <Angle>
0.616

> <Pdih>
0.521

> <Idih>
0.000

> <Tether>
0.000

$$$$
VeraChem MOL file


 17 16  0  0  0  0  0  0  0  0999 V2000     
   19.9957   18.1703   23.3886 N   0  3  0  0  0  0  0  0  0  0  0  0
   19.8165   17.1635   23.3293 H   0  0  0  0  0  0  0  0  0  0  0  0
   19.0905   18.6436   23.3172 H   0  0  0  0  0  0  0  0  0  0  0  0
   20.3557   18.3536   24.3306 H   0  0  0  0  0  0  0  0  0  0  0  0
   20.9600   18.6375   22.3155 C   0  0  0  0  0  0  0  0  0  0  0  0
   21.9109   18.1218   22.4750 H   0  0  0  0  0  0  0  0  0  0  0  0
   21.1292   19.7085   22.4540 H   0  0  0  0  0  0  0  0  0  0  0  0
   20.4690   18.3700   20.8777 C   0  0  0  0  0  0  0  0  0  0  0  0
   21.2540   18.6798   20.1751 H   0  0  0  0  0  0  0  0  0  0  0  0
   20.3412   17.2887   20.7358 H   0  0  0  0  0  0  0  0  0  0  0  0
   19.1484   19.0953   20.5178 C   0  0  0  0  0  0  0  0  0  0  0  0
   18.3307   18.7281   21.1529 H   0  0  0  0  0  0  0  0  0  0  0  0
   18.8715   18.8351   19.4866 H   0  0  0  0  0  0  0  0  0  0  0  0
   19.2501   20.6332   20.6376 C   0  0  0  0  0  0  0  0  0  0  0  0
   18.3154   21.1075   20.3113 H   0  0  0  0  0  0  0  0  0  0  0  0
   20.0610   21.0251   20.0100 H   0  0  0  0  0  0  0  0  0  0  0  0
   19.4362   20.9464   21.6726 H   0  0  0  0  0  0  0  0  0  0  0  0
  1  2  1  0  0  0  0
  1  3  1  0  0  0  0
  1  4  1  0  0  0  0
  1  5  1  0  0  0  0
  5  6  1  0  0  0  0
  5  7  1  0  0  0  0
  5  8  1  0  0  0  0
  8  9  1  0  0  0  0
  8 10  1  0  0  0  0
  8 11  1  0  0  0  0
 11 12  1  0  0  0  0
 11 13  1  0  0  0  0
 11 14  1  0  0  0  0
 14 15  1  0  0  0  0
 14 16  1  0  0  0  0
 14 17  1  0  0  0  0
M  END
> <VConfSearch Rank>
120

> <Conf_Id>
43

> <Delta U+W>
0.642

> <U+W>
-15.222

> <U>
45.697

> <W>
-60.919

> <W(PB)>
-62.631

> <W(SA)>
1.712

> <Valence>
1.262

> <Coulomb>
44.179

> <VdW>
0.255

> <VdW6>
-3.552

> <VdW12>
3.807

> <Bond>
0.125

> <Angle>
0.616

> <Pdih>
0.521

> <Idih>
0.000

> <Tether>
0.000

$$$$
VeraChem MOL file


 17 16  0  0  0  0  0  0  0  0999 V2000     
   19.5858   17.2071   19.8665 N   0  3  0  0  0  0  0  0  0  0  0  0
   19.4528   16.4335   20.5250 H   0  0  0  0  0  0  0  0  0  0  0  0
   20.5504   17.1496   19.5259 H   0  0  0  0  0  0  0  0  0  0  0  0
   18.9765   17.0206   19.0635 H   0  0  0  0  0  0  0  0  0  0  0  0
   19.2867   18.5508   20.5009 C   0  0  0  0  0  0  0  0  0  0  0  0
   18.2382   18.5517   20.8111 H   0  0  0  0  0  0  0  0  0  0  0  0
   19.4184   19.3217   19.7368 H   0  0  0  0  0  0  0  0  0  0  0  0
   20.1848   18.8635   21.7116 C   0  0  0  0  0  0  0  0  0  0  0  0
   20.0614   18.0791   22.4703 H   0  0  0  0  0  0  0  0  0  0  0  0
   21.2375   18.8466   21.3996 H   0  0  0  0  0  0  0  0  0  0  0  0
   19.8475   20.2392   22.3274 C   0  0  0  0  0  0  0  0  0  0  0  0
   18.7929   20.2579   22.6369 H   0  0  0  0  0  0  0  0  0  0  0  0
   19.9677   21.0244   21.5676 H   0  0  0  0  0  0  0  0  0  0  0  0
   20.7444   20.5597   23.5425 C   0  0  0  0  0  0  0  0  0  0  0  0
   20.4892   21.5402   23.9651 H   0  0  0  0  0  0  0  0  0  0  0  0
   21.8042   20.5823   23.2567 H   0  0  0  0  0  0  0  0  0  0  0  0
   20.6202   19.8097   24.3345 H   0  0  0  0  0  0  0  0  0  0  0  0
  1  2  1  0  0  0  0
  1  3  1  0  0  0  0
  1  4  1  0  0  0  0
  1  5  1  0  0  0  0
  5  6  1  0  0  0  0
  5  7  1  0  0  0  0
  5  8  1  0  0  0  0
  8  9  1  0  0  0  0
  8 10  1  0  0  0  0
  8 11  1  0  0  0  0
 11 12  1  0  0  0  0
 11 13  1  0  0  0  0
 11 14  1  0  0  0  0
 14 15  1  0  0  0  0
 14 16  1  0  0  0  0
 14 17  1  0  0  0  0
M  END
> <VConfSearch Rank>
121

> <Conf_Id>
7

> <Delta U+W>
0.000

> <U+W>
-15.865

> <U>
44.664

> <W>
-60.529

> <W(PB)>
-62.309

> <W(SA)>
1.780

> <Valence>
0.872

> <Coulomb>
43.648

> <VdW>
0.144

> <VdW6>
-2.370

> <VdW12>
2.515

> <Bond>
0.080

> <Angle>
0.376

> <Pdih>
0.416

> <Idih>
0.000

> <Tether>
0.000

$$$$
VeraChem MOL file


 17 16  0  0  0  0  0  0  0  0999 V2000     
   18.0963   20.6263   21.9792 N   0  3  0  0  0  0  0  0  0  0  0  0
   18.1413   21.3646   21.2703 H   0  0  0  0  0  0  0  0  0  0  0  0
   18.4252   21.0343   22.8595 H   0  0  0  0  0  0  0  0  0  0  0  0
   17.1048   20.4006   22.1093 H   0  0  0  0  0  0  0  0  0  0  0  0
   18.9045   19.4073   21.5816 C   0  0  0  0  0  0  0  0  0  0  0  0
   18.4816   19.0087   20.6555 H   0  0  0  0  0  0  0  0  0  0  0  0
   18.7845   18.6546   22.3652 H   0  0  0  0  0  0  0  0  0  0  0  0
   20.4011   19.7116   21.3780 C   0  0  0  0  0  0  0  0  0  0  0  0
   20.5085   20.4969   20.6181 H   0  0  0  0  0  0  0  0  0  0  0  0
   20.8255   20.1134   22.3077 H   0  0  0  0  0  0  0  0  0  0  0  0
   21.2076   18.4686   20.9346 C   0  0  0  0  0  0  0  0  0  0  0  0
   22.2445   18.7702   20.7301 H   0  0  0  0  0  0  0  0  0  0  0  0
   20.8050   18.0848   19.9866 H   0  0  0  0  0  0  0  0  0  0  0  0
   21.2098   17.3409   21.9922 C   0  0  0  0  0  0  0  0  0  0  0  0
   21.6025   17.7004   22.9522 H   0  0  0  0  0  0  0  0  0  0  0  0
   21.8422   16.5061   21.6633 H   0  0  0  0  0  0  0  0  0  0  0  0
   20.2007   16.9445   22.1613 H   0  0  0  0  0  0  0  0  0  0  0  0
  1  2  1  0  0  0  0
  1  3  1  0  0  0  0
  1  4  1  0  0  0  0
  1  5  1  0  0  0  0
  5  6  1  0  0  0  0
  5  7  1  0  0  0  0
  5  8  1  0  0  0  0
  8  9  1  0  0  0  0
  8 10  1  0  0  0  0
  8 11  1  0  0  0  0
 11 12  1  0  0  0  0
 11 13  1  0  0  0  0
 11 14  1  0  0  0  0
 14 15  1  0  0  0  0
 14 16  1  0  0  0  0
 14 17  1  0  0  0  0
M  END
> <VConfSearch Rank>
122

> <Conf_Id>
36

> <Delta U+W>
0.275

> <U+W>
-15.590

> <U>
45.174

> <W>
-60.765

> <W(PB)>
-62.518

> <W(SA)>
1.754

> <Valence>
1.161

> <Coulomb>
43.789

> <VdW>
0.224

> <VdW6>
-2.897

> <VdW12>
3.121

> <Bond>
0.100

> <Angle>
0.500

> <Pdih>
0.561

> <Idih>
0.000

> <Tether>
0.000

$$$$
VeraChem MOL file


 17 16  0  0  0  0  0  0  0  0999 V2000     
   20.3766   17.8414   20.2051 N   0  3  0  0  0  0  0  0  0  0  0  0
   20.7844   17.5238   21.0881 H   0  0  0  0  0  0  0  0  0  0  0  0
   21.1221   18.3079   19.6795 H   0  0  0  0  0  0  0  0  0  0  0  0
   20.1171   17.0044   19.6734 H   0  0  0  0  0  0  0  0  0  0  0  0
   19.1889   18.7569   20.4313 C   0  0  0  0  0  0  0  0  0  0  0  0
   18.4017   18.1882   20.9335 H   0  0  0  0  0  0  0  0  0  0  0  0
   18.8179   19.0490   19.4451 H   0  0  0  0  0  0  0  0  0  0  0  0
   19.5136   20.0285   21.2432 C   0  0  0  0  0  0  0  0  0  0  0  0
   20.4553   20.4693   20.8902 H   0  0  0  0  0  0  0  0  0  0  0  0
   18.7341   20.7714   21.0278 H   0  0  0  0  0  0  0  0  0  0  0  0
   19.5592   19.8170   22.7781 C   0  0  0  0  0  0  0  0  0  0  0  0
   18.5896   19.4352   23.1275 H   0  0  0  0  0  0  0  0  0  0  0  0
   19.6910   20.7966   23.2586 H   0  0  0  0  0  0  0  0  0  0  0  0
   20.6870   18.8766   23.2603 C   0  0  0  0  0  0  0  0  0  0  0  0
   20.4902   17.8353   22.9797 H   0  0  0  0  0  0  0  0  0  0  0  0
   20.7650   18.9061   24.3549 H   0  0  0  0  0  0  0  0  0  0  0  0
   21.6596   19.1770   22.8491 H   0  0  0  0  0  0  0  0  0  0  0  0
  1  2  1  0  0  0  0
  1  3  1  0  0  0  0
  1  4  1  0  0  0  0
  1  5  1  0  0  0  0
  5  6  1  0  0  0  0
  5  7  1  0  0  0  0
  5  8  1  0  0  0  0
  8  9  1  0  0  0  0
  8 10  1  0  0  0  0
  8 11  1  0  0  0  0
 11 12  1  0  0  0  0
 11 13  1  0  0  0  0
 11 14  1  0  0  0  0
 14 15  1  0  0  0  0
 14 16  1  0  0  0  0
 14 17  1  0  0  0  0
M  END
> <VConfSearch Rank>
123

> <Conf_Id>
19

> <Delta U+W>
2.662

> <U+W>
-13.203

> <U>
47.423

> <W>
-60.626

> <W(PB)>
-62.328

> <W(SA)>
1.702

> <Valence>
2.414

> <Coulomb>
44.831

> <VdW>
0.178

> <VdW6>
-3.743

> <VdW12>
3.921

> <Bond>
0.138

> <Angle>
0.941

> <Pdih>
1.335

> <Idih>
0.000

> <Tether>
0.000

$$$$
VeraChem MOL file


 17 16  0  0  0  0  0  0  0  0999 V2000     
   20.8336   18.3152   20.1898 N   0  3  0  0  0  0  0  0  0  0  0  0
   21.7120   17.8824   19.8867 H   0  0  0  0  0  0  0  0  0  0  0  0
   20.3020   18.5337   19.3418 H   0  0  0  0  0  0  0  0  0  0  0  0
   20.3062   17.6023   20.7003 H   0  0  0  0  0  0  0  0  0  0  0  0
   21.0757   19.5496   21.0370 C   0  0  0  0  0  0  0  0  0  0  0  0
   21.6387   20.2553   20.4201 H   0  0  0  0  0  0  0  0  0  0  0  0
   21.7025   19.2702   21.8881 H   0  0  0  0  0  0  0  0  0  0  0  0
   19.7885   20.2367   21.5395 C   0  0  0  0  0  0  0  0  0  0  0  0
   20.0401   21.2752   21.7923 H   0  0  0  0  0  0  0  0  0  0  0  0
   19.0520   20.2945   20.7271 H   0  0  0  0  0  0  0  0  0  0  0  0
   19.1572   19.5803   22.7938 C   0  0  0  0  0  0  0  0  0  0  0  0
   18.3161   20.2054   23.1252 H   0  0  0  0  0  0  0  0  0  0  0  0
   19.8834   19.5859   23.6189 H   0  0  0  0  0  0  0  0  0  0  0  0
   18.6422   18.1402   22.5708 C   0  0  0  0  0  0  0  0  0  0  0  0
   17.9864   18.0830   21.6923 H   0  0  0  0  0  0  0  0  0  0  0  0
   18.0633   17.8042   23.4409 H   0  0  0  0  0  0  0  0  0  0  0  0
   19.4694   17.4325   22.4420 H   0  0  0  0  0  0  0  0  0  0  0  0
  1  2  1  0  0  0  0
  1  3  1  0  0  0  0
  1  4  1  0  0  0  0
  1  5  1  0  0  0  0
  5  6  1  0  0  0  0
  5  7  1  0  0  0  0
  5  8  1  0  0  0  0
  8  9  1  0  0  0  0
  8 10  1  0  0  0  0
  8 11  1  0  0  0  0
 11 12  1  0  0  0  0
 11 13  1  0  0  0  0
 11 14  1  0  0  0  0
 14 15  1  0  0  0  0
 14 16  1  0  0  0  0
 14 17  1  0  0  0  0
M  END
> <VConfSearch Rank>
124

> <Conf_Id>
44

> <Delta U+W>
2.712

> <U+W>
-13.153

> <U>
47.423

> <W>
-60.576

> <W(PB)>
-62.262

> <W(SA)>
1.687

> <Valence>
2.414

> <Coulomb>
44.831

> <VdW>
0.178

> <VdW6>
-3.743

> <VdW12>
3.922

> <Bond>
0.138

> <Angle>
0.941

> <Pdih>
1.335

> <Idih>
0.000

> <Tether>
0.000

$$$$
VeraChem MOL file


 17 16  0  0  0  0  0  0  0  0999 V2000     
   18.8802   19.7836   20.0785 N   0  3  0  0  0  0  0  0  0  0  0  0
   19.8328   20.1510   20.0010 H   0  0  0  0  0  0  0  0  0  0  0  0
   18.2801   20.5585   20.3766 H   0  0  0  0  0  0  0  0  0  0  0  0
   18.5821   19.5231   19.1330 H   0  0  0  0  0  0  0  0  0  0  0  0
   18.8068   18.6102   21.0364 C   0  0  0  0  0  0  0  0  0  0  0  0
   19.4435   17.8124   20.6454 H   0  0  0  0  0  0  0  0  0  0  0  0
   17.7752   18.2478   21.0405 H   0  0  0  0  0  0  0  0  0  0  0  0
   19.2323   18.9559   22.4784 C   0  0  0  0  0  0  0  0  0  0  0  0
   18.5617   19.7289   22.8766 H   0  0  0  0  0  0  0  0  0  0  0  0
   19.0860   18.0695   23.1099 H   0  0  0  0  0  0  0  0  0  0  0  0
   20.7002   19.4343   22.6045 C   0  0  0  0  0  0  0  0  0  0  0  0
   20.9063   19.6697   23.6581 H   0  0  0  0  0  0  0  0  0  0  0  0
   20.8403   20.3730   22.0514 H   0  0  0  0  0  0  0  0  0  0  0  0
   21.7235   18.3840   22.1152 C   0  0  0  0  0  0  0  0  0  0  0  0
   21.6041   17.4355   22.6548 H   0  0  0  0  0  0  0  0  0  0  0  0
   22.7489   18.7379   22.2834 H   0  0  0  0  0  0  0  0  0  0  0  0
   21.6147   18.1835   21.0419 H   0  0  0  0  0  0  0  0  0  0  0  0
  1  2  1  0  0  0  0
  1  3  1  0  0  0  0
  1  4  1  0  0  0  0
  1  5  1  0  0  0  0
  5  6  1  0  0  0  0
  5  7  1  0  0  0  0
  5  8  1  0  0  0  0
  8  9  1  0  0  0  0
  8 10  1  0  0  0  0
  8 11  1  0  0  0  0
 11 12  1  0  0  0  0
 11 13  1  0  0  0  0
 11 14  1  0  0  0  0
 14 15  1  0  0  0  0
 14 16  1  0  0  0  0
 14 17  1  0  0  0  0
M  END
> <VConfSearch Rank>
125

> <Conf_Id>
1

> <Delta U+W>
0.685

> <U+W>
-15.179

> <U>
45.697

> <W>
-60.876

> <W(PB)>
-62.586

> <W(SA)>
1.710

> <Valence>
1.263

> <Coulomb>
44.179

> <VdW>
0.255

> <VdW6>
-3.552

> <VdW12>
3.807

> <Bond>
0.125

> <Angle>
0.616

> <Pdih>
0.521

> <Idih>
0.000

> <Tether>
0.000

$$$$
VeraChem MOL file


 17 16  0  0  0  0  0  0  0  0999 V2000     
   21.1867   20.2422   22.5402 N   0  3  0  0  0  0  0  0  0  0  0  0
   22.1601   20.0321   22.3001 H   0  0  0  0  0  0  0  0  0  0  0  0
   20.8835   19.5379   23.2187 H   0  0  0  0  0  0  0  0  0  0  0  0
   21.1882   21.1447   23.0262 H   0  0  0  0  0  0  0  0  0  0  0  0
   20.2935   20.2630   21.3148 C   0  0  0  0  0  0  0  0  0  0  0  0
   20.6512   21.0586   20.6555 H   0  0  0  0  0  0  0  0  0  0  0  0
   19.2813   20.5209   21.6369 H   0  0  0  0  0  0  0  0  0  0  0  0
   20.2690   18.9296   20.5394 C   0  0  0  0  0  0  0  0  0  0  0  0
   19.6526   19.0578   19.6397 H   0  0  0  0  0  0  0  0  0  0  0  0
   21.2826   18.6999   20.1852 H   0  0  0  0  0  0  0  0  0  0  0  0
   19.7281   17.7329   21.3610 C   0  0  0  0  0  0  0  0  0  0  0  0
   20.3877   17.5333   22.2164 H   0  0  0  0  0  0  0  0  0  0  0  0
   19.7618   16.8301   20.7351 H   0  0  0  0  0  0  0  0  0  0  0  0
   18.2800   17.9452   21.8586 C   0  0  0  0  0  0  0  0  0  0  0  0
   17.9160   17.0492   22.3778 H   0  0  0  0  0  0  0  0  0  0  0  0
   17.6001   18.1457   21.0204 H   0  0  0  0  0  0  0  0  0  0  0  0
   18.2136   18.7849   22.5619 H   0  0  0  0  0  0  0  0  0  0  0  0
  1  2  1  0  0  0  0
  1  3  1  0  0  0  0
  1  4  1  0  0  0  0
  1  5  1  0  0  0  0
  5  6  1  0  0  0  0
  5  7  1  0  0  0  0
  5  8  1  0  0  0  0
  8  9  1  0  0  0  0
  8 10  1  0  0  0  0
  8 11  1  0  0  0  0
 11 12  1  0  0  0  0
 11 13  1  0  0  0  0
 11 14  1  0  0  0  0
 14 15  1  0  0  0  0
 14 16  1  0  0  0  0
 14 17  1  0  0  0  0
M  END
> <VConfSearch Rank>
126

> <Conf_Id>
43

> <Delta U+W>
0.642

> <U+W>
-15.222

> <U>
45.697

> <W>
-60.919

> <W(PB)>
-62.631

> <W(SA)>
1.712

> <Valence>
1.262

> <Coulomb>
44.179

> <VdW>
0.255

> <VdW6>
-3.552

> <VdW12>
3.807

> <Bond>
0.125

> <Angle>
0.616

> <Pdih>
0.521

> <Idih>
0.000

> <Tether>
0.000

$$$$
VeraChem MOL file


 17 16  0  0  0  0  0  0  0  0999 V2000     
   18.0687   17.4023   21.0798 N   0  3  0  0  0  0  0  0  0  0  0  0
   18.5997   16.5414   21.2432 H   0  0  0  0  0  0  0  0  0  0  0  0
   18.0394   17.5497   20.0664 H   0  0  0  0  0  0  0  0  0  0  0  0
   17.1061   17.2181   21.3803 H   0  0  0  0  0  0  0  0  0  0  0  0
   18.6698   18.5873   21.8090 C   0  0  0  0  0  0  0  0  0  0  0  0
   18.6406   18.3743   22.8811 H   0  0  0  0  0  0  0  0  0  0  0  0
   18.0381   19.4585   21.6156 H   0  0  0  0  0  0  0  0  0  0  0  0
   20.1170   18.8924   21.3814 C   0  0  0  0  0  0  0  0  0  0  0  0
   20.7452   18.0101   21.5627 H   0  0  0  0  0  0  0  0  0  0  0  0
   20.1448   19.0907   20.3016 H   0  0  0  0  0  0  0  0  0  0  0  0
   20.6908   20.1048   22.1472 C   0  0  0  0  0  0  0  0  0  0  0  0
   20.6602   19.9082   23.2282 H   0  0  0  0  0  0  0  0  0  0  0  0
   20.0605   20.9875   21.9686 H   0  0  0  0  0  0  0  0  0  0  0  0
   22.1424   20.4168   21.7235 C   0  0  0  0  0  0  0  0  0  0  0  0
   22.5313   21.2804   22.2784 H   0  0  0  0  0  0  0  0  0  0  0  0
   22.1999   20.6516   20.6526 H   0  0  0  0  0  0  0  0  0  0  0  0
   22.8042   19.5637   21.9221 H   0  0  0  0  0  0  0  0  0  0  0  0
  1  2  1  0  0  0  0
  1  3  1  0  0  0  0
  1  4  1  0  0  0  0
  1  5  1  0  0  0  0
  5  6  1  0  0  0  0
  5  7  1  0  0  0  0
  5  8  1  0  0  0  0
  8  9  1  0  0  0  0
  8 10  1  0  0  0  0
  8 11  1  0  0  0  0
 11 12  1  0  0  0  0
 11 13  1  0  0  0  0
 11 14  1  0  0  0  0
 14 15  1  0  0  0  0
 14 16  1  0  0  0  0
 14 17  1  0  0  0  0
M  END
> <VConfSearch Rank>
127

> <Conf_Id>
7

> <Delta U+W>
0.000

> <U+W>
-15.865

> <U>
44.664

> <W>
-60.529

> <W(PB)>
-62.309

> <W(SA)>
1.780

> <Valence>
0.872

> <Coulomb>
43.648

> <VdW>
0.144

> <VdW6>
-2.370

> <VdW12>
2.515

> <Bond>
0.080

> <Angle>
0.376

> <Pdih>
0.416

> <Idih>
0.000

> <Tether>
0.000

$$$$
VeraChem MOL file


 17 16  0  0  0  0  0  0  0  0999 V2000     
   18.3534   17.6198   20.5399 N   0  3  0  0  0  0  0  0  0  0  0  0
   17.5409   17.5014   21.1525 H   0  0  0  0  0  0  0  0  0  0  0  0
   18.9044   16.7583   20.6013 H   0  0  0  0  0  0  0  0  0  0  0  0
   17.9957   17.6752   19.5808 H   0  0  0  0  0  0  0  0  0  0  0  0
   19.1692   18.8429   20.9087 C   0  0  0  0  0  0  0  0  0  0  0  0
   18.5307   19.7227   20.7923 H   0  0  0  0  0  0  0  0  0  0  0  0
   19.9956   18.9223   20.1976 H   0  0  0  0  0  0  0  0  0  0  0  0
   19.7230   18.7920   22.3456 C   0  0  0  0  0  0  0  0  0  0  0  0
   18.8883   18.6720   23.0489 H   0  0  0  0  0  0  0  0  0  0  0  0
   20.3630   17.9074   22.4631 H   0  0  0  0  0  0  0  0  0  0  0  0
   20.5202   20.0626   22.7229 C   0  0  0  0  0  0  0  0  0  0  0  0
   20.8163   19.9976   23.7793 H   0  0  0  0  0  0  0  0  0  0  0  0
   19.8713   20.9457   22.6379 H   0  0  0  0  0  0  0  0  0  0  0  0
   21.7847   20.2621   21.8562 C   0  0  0  0  0  0  0  0  0  0  0  0
   22.4482   19.3898   21.9188 H   0  0  0  0  0  0  0  0  0  0  0  0
   22.3509   21.1384   22.1975 H   0  0  0  0  0  0  0  0  0  0  0  0
   21.5294   20.4238   20.8013 H   0  0  0  0  0  0  0  0  0  0  0  0
  1  2  1  0  0  0  0
  1  3  1  0  0  0  0
  1  4  1  0  0  0  0
  1  5  1  0  0  0  0
  5  6  1  0  0  0  0
  5  7  1  0  0  0  0
  5  8  1  0  0  0  0
  8  9  1  0  0  0  0
  8 10  1  0  0  0  0
  8 11  1  0  0  0  0
 11 12  1  0  0  0  0
 11 13  1  0  0  0  0
 11 14  1  0  0  0  0
 14 15  1  0  0  0  0
 14 16  1  0  0  0  0
 14 17  1  0  0  0  0
M  END
> <VConfSearch Rank>
128

> <Conf_Id>
36

> <Delta U+W>
0.275

> <U+W>
-15.590

> <U>
45.174

> <W>
-60.765

> <W(PB)>
-62.518

> <W(SA)>
1.754

> <Valence>
1.161

> <Coulomb>
43.789

> <VdW>
0.224

> <VdW6>
-2.897

> <VdW12>
3.121

> <Bond>
0.100

> <Angle>
0.500

> <Pdih>
0.561

> <Idih>
0.000

> <Tether>
0.000

$$$$
VeraChem MOL file


 17 16  0  0  0  0  0  0  0  0999 V2000     
   18.3330   19.4349   22.4246 N   0  3  0  0  0  0  0  0  0  0  0  0
   18.1737   18.9194   21.5553 H   0  0  0  0  0  0  0  0  0  0  0  0
   18.1768   20.4264   22.2199 H   0  0  0  0  0  0  0  0  0  0  0  0
   17.6023   19.1488   23.0842 H   0  0  0  0  0  0  0  0  0  0  0  0
   19.7225   19.1861   22.9792 C   0  0  0  0  0  0  0  0  0  0  0  0
   19.8081   18.1283   23.2420 H   0  0  0  0  0  0  0  0  0  0  0  0
   19.8091   19.7708   23.8991 H   0  0  0  0  0  0  0  0  0  0  0  0
   20.8674   19.5810   22.0228 C   0  0  0  0  0  0  0  0  0  0  0  0
   20.6534   20.5547   21.5625 H   0  0  0  0  0  0  0  0  0  0  0  0
   21.7732   19.7259   22.6266 H   0  0  0  0  0  0  0  0  0  0  0  0
   21.1858   18.5271   20.9316 C   0  0  0  0  0  0  0  0  0  0  0  0
   21.4599   17.5746   21.4065 H   0  0  0  0  0  0  0  0  0  0  0  0
   22.0765   18.8588   20.3796 H   0  0  0  0  0  0  0  0  0  0  0  0
   20.0412   18.2881   19.9208 C   0  0  0  0  0  0  0  0  0  0  0  0
   19.1986   17.7618   20.3842 H   0  0  0  0  0  0  0  0  0  0  0  0
   20.3925   17.6640   19.0888 H   0  0  0  0  0  0  0  0  0  0  0  0
   19.6791   19.2341   19.4975 H   0  0  0  0  0  0  0  0  0  0  0  0
  1  2  1  0  0  0  0
  1  3  1  0  0  0  0
  1  4  1  0  0  0  0
  1  5  1  0  0  0  0
  5  6  1  0  0  0  0
  5  7  1  0  0  0  0
  5  8  1  0  0  0  0
  8  9  1  0  0  0  0
  8 10  1  0  0  0  0
  8 11  1  0  0  0  0
 11 12  1  0  0  0  0
 11 13  1  0  0  0  0
 11 14  1  0  0  0  0
 14 15  1  0  0  0  0
 14 16  1  0  0  0  0
 14 17  1  0  0  0  0
M  END
> <VConfSearch Rank>
129

> <Conf_Id>
19

> <Delta U+W>
2.662

> <U+W>
-13.203

> <U>
47.423

> <W>
-60.626

> <W(PB)>
-62.328

> <W(SA)>
1.702

> <Valence>
2.414

> <Coulomb>
44.831

> <VdW>
0.178

> <VdW6>
-3.743

> <VdW12>
3.921

> <Bond>
0.138

> <Angle>
0.941

> <Pdih>
1.335

> <Idih>
0.000

> <Tether>
0.000

$$$$
VeraChem MOL file


 17 16  0  0  0  0  0  0  0  0999 V2000     
   20.5659   17.7255   20.5048 N   0  3  0  0  0  0  0  0  0  0  0  0
   21.2591   16.9775   20.4013 H   0  0  0  0  0  0  0  0  0  0  0  0
   20.1553   17.8801   19.5790 H   0  0  0  0  0  0  0  0  0  0  0  0
   19.8216   17.3661   21.1079 H   0  0  0  0  0  0  0  0  0  0  0  0
   21.1822   18.9923   21.0665 C   0  0  0  0  0  0  0  0  0  0  0  0
   21.9601   19.3074   20.3658 H   0  0  0  0  0  0  0  0  0  0  0  0
   21.6625   18.7529   22.0191 H   0  0  0  0  0  0  0  0  0  0  0  0
   20.1824   20.1514   21.2624 C   0  0  0  0  0  0  0  0  0  0  0  0
   20.7564   21.0869   21.2949 H   0  0  0  0  0  0  0  0  0  0  0  0
   19.5246   20.2320   20.3868 H   0  0  0  0  0  0  0  0  0  0  0  0
   19.3419   20.0627   22.5618 C   0  0  0  0  0  0  0  0  0  0  0  0
   18.7466   20.9821   22.6523 H   0  0  0  0  0  0  0  0  0  0  0  0
   20.0105   20.0466   23.4340 H   0  0  0  0  0  0  0  0  0  0  0  0
   18.3862   18.8495   22.6231 C   0  0  0  0  0  0  0  0  0  0  0  0
   17.7681   18.7829   21.7183 H   0  0  0  0  0  0  0  0  0  0  0  0
   17.7093   18.9414   23.4825 H   0  0  0  0  0  0  0  0  0  0  0  0
   18.9366   17.9095   22.7461 H   0  0  0  0  0  0  0  0  0  0  0  0
  1  2  1  0  0  0  0
  1  3  1  0  0  0  0
  1  4  1  0  0  0  0
  1  5  1  0  0  0  0
  5  6  1  0  0  0  0
  5  7  1  0  0  0  0
  5  8  1  0  0  0  0
  8  9  1  0  0  0  0
  8 10  1  0  0  0  0
  8 11  1  0  0  0  0
 11 12  1  0  0  0  0
 11 13  1  0  0  0  0
 11 14  1  0  0  0  0
 14 15  1  0  0  0  0
 14 16  1  0  0  0  0
 14 17  1  0  0  0  0
M  END
> <VConfSearch Rank>
130

> <Conf_Id>
44

> <Delta U+W>
2.712

> <U+W>
-13.153

> <U>
47.423

> <W>
-60.576

> <W(PB)>
-62.262

> <W(SA)>
1.687

> <Valence>
2.414

> <Coulomb>
44.831

> <VdW>
0.178

> <VdW6>
-3.743

> <VdW12>
3.922

> <Bond>
0.138

> <Angle>
0.941

> <Pdih>
1.335

> <Idih>
0.000

> <Tether>
0.000

$$$$
VeraChem MOL file


 17 16  0  0  0  0  0  0  0  0999 V2000     
   21.0356   18.4101   23.1168 N   0  3  0  0  0  0  0  0  0  0  0  0
   21.4894   18.0903   22.2565 H   0  0  0  0  0  0  0  0  0  0  0  0
   20.6273   17.5861   23.5682 H   0  0  0  0  0  0  0  0  0  0  0  0
   21.7767   18.7524   23.7367 H   0  0  0  0  0  0  0  0  0  0  0  0
   19.9944   19.4774   22.8396 C   0  0  0  0  0  0  0  0  0  0  0  0
   20.4995   20.3350   22.3877 H   0  0  0  0  0  0  0  0  0  0  0  0
   19.5808   19.7965   23.8001 H   0  0  0  0  0  0  0  0  0  0  0  0
   18.8481   19.0055   21.9213 C   0  0  0  0  0  0  0  0  0  0  0  0
   18.3216   18.1705   22.4022 H   0  0  0  0  0  0  0  0  0  0  0  0
   18.1144   19.8174   21.8299 H   0  0  0  0  0  0  0  0  0  0  0  0
   19.3104   18.5753   20.5069 C   0  0  0  0  0  0  0  0  0  0  0  0
   18.4333   18.2435   19.9337 H   0  0  0  0  0  0  0  0  0  0  0  0
   19.9749   17.7033   20.5757 H   0  0  0  0  0  0  0  0  0  0  0  0
   20.0182   19.7092   19.7302 C   0  0  0  0  0  0  0  0  0  0  0  0
   19.3727   20.5931   19.6470 H   0  0  0  0  0  0  0  0  0  0  0  0
   20.2690   19.3810   18.7132 H   0  0  0  0  0  0  0  0  0  0  0  0
   20.9523   20.0122   20.2198 H   0  0  0  0  0  0  0  0  0  0  0  0
  1  2  1  0  0  0  0
  1  3  1  0  0  0  0
  1  4  1  0  0  0  0
  1  5  1  0  0  0  0
  5  6  1  0  0  0  0
  5  7  1  0  0  0  0
  5  8  1  0  0  0  0
  8  9  1  0  0  0  0
  8 10  1  0  0  0  0
  8 11  1  0  0  0  0
 11 12  1  0  0  0  0
 11 13  1  0  0  0  0
 11 14  1  0  0  0  0
 14 15  1  0  0  0  0
 14 16  1  0  0  0  0
 14 17  1  0  0  0  0
M  END
> <VConfSearch Rank>
131

> <Conf_Id>
1

> <Delta U+W>
0.685

> <U+W>
-15.179

> <U>
45.697

> <W>
-60.876

> <W(PB)>
-62.586

> <W(SA)>
1.710

> <Valence>
1.263

> <Coulomb>
44.179

> <VdW>
0.255

> <VdW6>
-3.552

> <VdW12>
3.807

> <Bond>
0.125

> <Angle>
0.616

> <Pdih>
0.521

> <Idih>
0.000

> <Tether>
0.000

$$$$
VeraChem MOL file


 17 16  0  0  0  0  0  0  0  0999 V2000     
   19.1104   20.3208   22.8699 N   0  3  0  0  0  0  0  0  0  0  0  0
   19.7281   21.1195   23.0426 H   0  0  0  0  0  0  0  0  0  0  0  0
   19.4668   19.5371   23.4242 H   0  0  0  0  0  0  0  0  0  0  0  0
   18.1923   20.5660   23.2542 H   0  0  0  0  0  0  0  0  0  0  0  0
   19.0307   19.9756   21.3953 C   0  0  0  0  0  0  0  0  0  0  0  0
   18.6092   20.8391   20.8735 H   0  0  0  0  0  0  0  0  0  0  0  0
   18.3365   19.1392   21.2795 H   0  0  0  0  0  0  0  0  0  0  0  0
   20.3917   19.6129   20.7661 C   0  0  0  0  0  0  0  0  0  0  0  0
   20.2474   19.4425   19.6910 H   0  0  0  0  0  0  0  0  0  0  0  0
   21.0687   20.4733   20.8510 H   0  0  0  0  0  0  0  0  0  0  0  0
   21.0638   18.3663   21.3937 C   0  0  0  0  0  0  0  0  0  0  0  0
   21.2988   18.5555   22.4499 H   0  0  0  0  0  0  0  0  0  0  0  0
   22.0279   18.1952   20.8946 H   0  0  0  0  0  0  0  0  0  0  0  0
   20.2021   17.0885   21.2728 C   0  0  0  0  0  0  0  0  0  0  0  0
   20.7432   16.2202   21.6704 H   0  0  0  0  0  0  0  0  0  0  0  0
   19.9545   16.8772   20.2244 H   0  0  0  0  0  0  0  0  0  0  0  0
   19.2639   17.1793   21.8346 H   0  0  0  0  0  0  0  0  0  0  0  0
  1  2  1  0  0  0  0
  1  3  1  0  0  0  0
  1  4  1  0  0  0  0
  1  5  1  0  0  0  0
  5  6  1  0  0  0  0
  5  7  1  0  0  0  0
  5  8  1  0  0  0  0
  8  9  1  0  0  0  0
  8 10  1  0  0  0  0
  8 11  1  0  0  0  0
 11 12  1  0  0  0  0
 11 13  1  0  0  0  0
 11 14  1  0  0  0  0
 14 15  1  0  0  0  0
 14 16  1  0  0  0  0
 14 17  1  0  0  0  0
M  END
> <VConfSearch Rank>
132

> <Conf_Id>
43

> <Delta U+W>
0.642

> <U+W>
-15.222

> <U>
45.697

> <W>
-60.919

> <W(PB)>
-62.631

> <W(SA)>
1.712

> <Valence>
1.262

> <Coulomb>
44.179

> <VdW>
0.255

> <VdW6>
-3.552

> <VdW12>
3.807

> <Bond>
0.125

> <Angle>
0.616

> <Pdih>
0.521

> <Idih>
0.000

> <Tether>
0.000

$$$$
VeraChem MOL file


 17 16  0  0  0  0  0  0  0  0999 V2000     
   17.5327   18.2185   21.5407 N   0  3  0  0  0  0  0  0  0  0  0  0
   17.2003   18.7095   22.3762 H   0  0  0  0  0  0  0  0  0  0  0  0
   17.7219   17.2500   21.8162 H   0  0  0  0  0  0  0  0  0  0  0  0
   16.7481   18.1911   20.8815 H   0  0  0  0  0  0  0  0  0  0  0  0
   18.7525   18.8860   20.9374 C   0  0  0  0  0  0  0  0  0  0  0  0
   18.4703   19.8996   20.6401 H   0  0  0  0  0  0  0  0  0  0  0  0
   19.0311   18.3303   20.0378 H   0  0  0  0  0  0  0  0  0  0  0  0
   19.9513   18.9444   21.9016 C   0  0  0  0  0  0  0  0  0  0  0  0
   19.6631   19.4897   22.8102 H   0  0  0  0  0  0  0  0  0  0  0  0
   20.2221   17.9257   22.2099 H   0  0  0  0  0  0  0  0  0  0  0  0
   21.1710   19.6310   21.2486 C   0  0  0  0  0  0  0  0  0  0  0  0
   20.8997   20.6495   20.9368 H   0  0  0  0  0  0  0  0  0  0  0  0
   21.4580   19.0875   20.3373 H   0  0  0  0  0  0  0  0  0  0  0  0
   22.3776   19.6932   22.2101 C   0  0  0  0  0  0  0  0  0  0  0  0
   23.2329   20.1841   21.7278 H   0  0  0  0  0  0  0  0  0  0  0  0
   22.6944   18.6866   22.5127 H   0  0  0  0  0  0  0  0  0  0  0  0
   22.1316   20.2609   23.1169 H   0  0  0  0  0  0  0  0  0  0  0  0
  1  2  1  0  0  0  0
  1  3  1  0  0  0  0
  1  4  1  0  0  0  0
  1  5  1  0  0  0  0
  5  6  1  0  0  0  0
  5  7  1  0  0  0  0
  5  8  1  0  0  0  0
  8  9  1  0  0  0  0
  8 10  1  0  0  0  0
  8 11  1  0  0  0  0
 11 12  1  0  0  0  0
 11 13  1  0  0  0  0
 11 14  1  0  0  0  0
 14 15  1  0  0  0  0
 14 16  1  0  0  0  0
 14 17  1  0  0  0  0
M  END
> <VConfSearch Rank>
133

> <Conf_Id>
7

> <Delta U+W>
0.000

> <U+W>
-15.865

> <U>
44.664

> <W>
-60.529

> <W(PB)>
-62.309

> <W(SA)>
1.780

> <Valence>
0.872

> <Coulomb>
43.648

> <VdW>
0.144

> <VdW6>
-2.370

> <VdW12>
2.515

> <Bond>
0.080

> <Angle>
0.376

> <Pdih>
0.416

> <Idih>
0.000

> <Tether>
0.000

$$$$
VeraChem MOL file


 17 16  0  0  0  0  0  0  0  0999 V2000     
   18.1456   20.2894   22.7270 N   0  3  0  0  0  0  0  0  0  0  0  0
   18.0036   21.1845   22.2494 H   0  0  0  0  0  0  0  0  0  0  0  0
   18.6354   20.4909   23.6040 H   0  0  0  0  0  0  0  0  0  0  0  0
   17.2165   19.9381   22.9804 H   0  0  0  0  0  0  0  0  0  0  0  0
   18.9064   19.3008   21.8660 C   0  0  0  0  0  0  0  0  0  0  0  0
   18.3146   19.1105   20.9666 H   0  0  0  0  0  0  0  0  0  0  0  0
   18.9919   18.3652   22.4247 H   0  0  0  0  0  0  0  0  0  0  0  0
   20.3091   19.7978   21.4668 C   0  0  0  0  0  0  0  0  0  0  0  0
   20.2148   20.7576   20.9417 H   0  0  0  0  0  0  0  0  0  0  0  0
   20.9030   19.9906   22.3702 H   0  0  0  0  0  0  0  0  0  0  0  0
   21.0596   18.7977   20.5565 C   0  0  0  0  0  0  0  0  0  0  0  0
   22.0136   19.2455   20.2447 H   0  0  0  0  0  0  0  0  0  0  0  0
   20.4822   18.6292   19.6365 H   0  0  0  0  0  0  0  0  0  0  0  0
   21.3404   17.4441   21.2485 C   0  0  0  0  0  0  0  0  0  0  0  0
   21.9118   17.5852   22.1752 H   0  0  0  0  0  0  0  0  0  0  0  0
   21.9264   16.7896   20.5903 H   0  0  0  0  0  0  0  0  0  0  0  0
   20.4104   16.9170   21.4961 H   0  0  0  0  0  0  0  0  0  0  0  0
  1  2  1  0  0  0  0
  1  3  1  0  0  0  0
  1  4  1  0  0  0  0
  1  5  1  0  0  0  0
  5  6  1  0  0  0  0
  5  7  1  0  0  0  0
  5  8  1  0  0  0  0
  8  9  1  0  0  0  0
  8 10  1  0  0  0  0
  8 11  1  0  0  0  0
 11 12  1  0  0  0  0
 11 13  1  0  0  0  0
 11 14  1  0  0  0  0
 14 15  1  0  0  0  0
 14 16  1  0  0  0  0
 14 17  1  0  0  0  0
M  END
> <VConfSearch Rank>
134

> <Conf_Id>
36

> <Delta U+W>
0.275

> <U+W>
-15.590

> <U>
45.174

> <W>
-60.765

> <W(PB)>
-62.518

> <W(SA)>
1.754

> <Valence>
1.161

> <Coulomb>
43.789

> <VdW>
0.224

> <VdW6>
-2.897

> <VdW12>
3.121

> <Bond>
0.100

> <Angle>
0.500

> <Pdih>
0.561

> <Idih>
0.000

> <Tether>
0.000

$$$$
VeraChem MOL file


 17 16  0  0  0  0  0  0  0  0999 V2000     
   18.8452   18.0665   22.7897 N   0  3  0  0  0  0  0  0  0  0  0  0
   19.3126   18.8528   23.2481 H   0  0  0  0  0  0  0  0  0  0  0  0
   19.3588   17.2185   23.0479 H   0  0  0  0  0  0  0  0  0  0  0  0
   17.9112   17.9861   23.2046 H   0  0  0  0  0  0  0  0  0  0  0  0
   18.7804   18.2501   21.2857 C   0  0  0  0  0  0  0  0  0  0  0  0
   18.1658   19.1277   21.0683 H   0  0  0  0  0  0  0  0  0  0  0  0
   18.2720   17.3722   20.8779 H   0  0  0  0  0  0  0  0  0  0  0  0
   20.1575   18.3951   20.6044 C   0  0  0  0  0  0  0  0  0  0  0  0
   20.8583   17.6546   21.0124 H   0  0  0  0  0  0  0  0  0  0  0  0
   20.0346   18.1406   19.5432 H   0  0  0  0  0  0  0  0  0  0  0  0
   20.7683   19.8174   20.6857 C   0  0  0  0  0  0  0  0  0  0  0  0
   20.0854   20.5402   20.2174 H   0  0  0  0  0  0  0  0  0  0  0  0
   21.6877   19.8341   20.0836 H   0  0  0  0  0  0  0  0  0  0  0  0
   21.1098   20.2853   22.1186 C   0  0  0  0  0  0  0  0  0  0  0  0
   20.2042   20.4866   22.7027 H   0  0  0  0  0  0  0  0  0  0  0  0
   21.6867   21.2188   22.0868 H   0  0  0  0  0  0  0  0  0  0  0  0
   21.7148   19.5380   22.6484 H   0  0  0  0  0  0  0  0  0  0  0  0
  1  2  1  0  0  0  0
  1  3  1  0  0  0  0
  1  4  1  0  0  0  0
  1  5  1  0  0  0  0
  5  6  1  0  0  0  0
  5  7  1  0  0  0  0
  5  8  1  0  0  0  0
  8  9  1  0  0  0  0
  8 10  1  0  0  0  0
  8 11  1  0  0  0  0
 11 12  1  0  0  0  0
 11 13  1  0  0  0  0
 11 14  1  0  0  0  0
 14 15  1  0  0  0  0
 14 16  1  0  0  0  0
 14 17  1  0  0  0  0
M  END
> <VConfSearch Rank>
135

> <Conf_Id>
19

> <Delta U+W>
2.662

> <U+W>
-13.203

> <U>
47.423

> <W>
-60.626

> <W(PB)>
-62.328

> <W(SA)>
1.702

> <Valence>
2.414

> <Coulomb>
44.831

> <VdW>
0.178

> <VdW6>
-3.743

> <VdW12>
3.921

> <Bond>
0.138

> <Angle>
0.941

> <Pdih>
1.335

> <Idih>
0.000

> <Tether>
0.000

$$$$
VeraChem MOL file


 17 16  0  0  0  0  0  0  0  0999 V2000     
   18.1245   18.5078   21.8552 N   0  3  0  0  0  0  0  0  0  0  0  0
   17.1318   18.7448   21.7598 H   0  0  0  0  0  0  0  0  0  0  0  0
   18.1746   17.6668   22.4379 H   0  0  0  0  0  0  0  0  0  0  0  0
   18.4641   18.2501   20.9250 H   0  0  0  0  0  0  0  0  0  0  0  0
   18.9234   19.6525   22.4481 C   0  0  0  0  0  0  0  0  0  0  0  0
   18.4996   19.8611   23.4342 H   0  0  0  0  0  0  0  0  0  0  0  0
   18.7783   20.5383   21.8239 H   0  0  0  0  0  0  0  0  0  0  0  0
   20.4314   19.3620   22.6001 C   0  0  0  0  0  0  0  0  0  0  0  0
   20.8311   20.0526   23.3545 H   0  0  0  0  0  0  0  0  0  0  0  0
   20.5803   18.3529   23.0066 H   0  0  0  0  0  0  0  0  0  0  0  0
   21.2557   19.5469   21.3005 C   0  0  0  0  0  0  0  0  0  0  0  0
   22.3197   19.4193   21.5446 H   0  0  0  0  0  0  0  0  0  0  0  0
   21.1487   20.5792   20.9387 H   0  0  0  0  0  0  0  0  0  0  0  0
   20.8896   18.5630   20.1661 C   0  0  0  0  0  0  0  0  0  0  0  0
   20.8947   17.5245   20.5220 H   0  0  0  0  0  0  0  0  0  0  0  0
   21.6175   18.6379   19.3478 H   0  0  0  0  0  0  0  0  0  0  0  0
   19.9041   18.7871   19.7416 H   0  0  0  0  0  0  0  0  0  0  0  0
  1  2  1  0  0  0  0
  1  3  1  0  0  0  0
  1  4  1  0  0  0  0
  1  5  1  0  0  0  0
  5  6  1  0  0  0  0
  5  7  1  0  0  0  0
  5  8  1  0  0  0  0
  8  9  1  0  0  0  0
  8 10  1  0  0  0  0
  8 11  1  0  0  0  0
 11 12  1  0  0  0  0
 11 13  1  0  0  0  0
 11 14  1  0  0  0  0
 14 15  1  0  0  0  0
 14 16  1  0  0  0  0
 14 17  1  0  0  0  0
M  END
> <VConfSearch Rank>
136

> <Conf_Id>
44

> <Delta U+W>
2.712

> <U+W>
-13.153

> <U>
47.423

> <W>
-60.576

> <W(PB)>
-62.262

> <W(SA)>
1.687

> <Valence>
2.414

> <Coulomb>
44.831

> <VdW>
0.178

> <VdW6>
-3.743

> <VdW12>
3.922

> <Bond>
0.138

> <Angle>
0.941

> <Pdih>
1.335

> <Idih>
0.000

> <Tether>
0.000

$$$$
VeraChem MOL file


 17 16  0  0  0  0  0  0  0  0999 V2000     
   19.2448   17.2050   21.2399 N   0  3  0  0  0  0  0  0  0  0  0  0
   19.0200   17.7744   20.4192 H   0  0  0  0  0  0  0  0  0  0  0  0
   18.3654   17.0242   21.7332 H   0  0  0  0  0  0  0  0  0  0  0  0
   19.5831   16.3015   20.8937 H   0  0  0  0  0  0  0  0  0  0  0  0
   20.2650   17.8846   22.1329 C   0  0  0  0  0  0  0  0  0  0  0  0
   21.1838   18.0203   21.5565 H   0  0  0  0  0  0  0  0  0  0  0  0
   20.4839   17.2078   22.9633 H   0  0  0  0  0  0  0  0  0  0  0  0
   19.7960   19.2438   22.6919 C   0  0  0  0  0  0  0  0  0  0  0  0
   18.8962   19.0912   23.3025 H   0  0  0  0  0  0  0  0  0  0  0  0
   20.5664   19.6279   23.3736 H   0  0  0  0  0  0  0  0  0  0  0  0
   19.5041   20.3060   21.6028 C   0  0  0  0  0  0  0  0  0  0  0  0
   19.1645   21.2299   22.0918 H   0  0  0  0  0  0  0  0  0  0  0  0
   18.6714   19.9760   20.9670 H   0  0  0  0  0  0  0  0  0  0  0  0
   20.7350   20.6262   20.7240 C   0  0  0  0  0  0  0  0  0  0  0  0
   21.5819   20.9599   21.3377 H   0  0  0  0  0  0  0  0  0  0  0  0
   20.5014   21.4281   20.0117 H   0  0  0  0  0  0  0  0  0  0  0  0
   21.0558   19.7517   20.1441 H   0  0  0  0  0  0  0  0  0  0  0  0
  1  2  1  0  0  0  0
  1  3  1  0  0  0  0
  1  4  1  0  0  0  0
  1  5  1  0  0  0  0
  5  6  1  0  0  0  0
  5  7  1  0  0  0  0
  5  8  1  0  0  0  0
  8  9  1  0  0  0  0
  8 10  1  0  0  0  0
  8 11  1  0  0  0  0
 11 12  1  0  0  0  0
 11 13  1  0  0  0  0
 11 14  1  0  0  0  0
 14 15  1  0  0  0  0
 14 16  1  0  0  0  0
 14 17  1  0  0  0  0
M  END
> <VConfSearch Rank>
137

> <Conf_Id>
1

> <Delta U+W>
0.685

> <U+W>
-15.179

> <U>
45.697

> <W>
-60.876

> <W(PB)>
-62.586

> <W(SA)>
1.710

> <Valence>
1.263

> <Coulomb>
44.179

> <VdW>
0.255

> <VdW6>
-3.552

> <VdW12>
3.807

> <Bond>
0.125

> <Angle>
0.616

> <Pdih>
0.521

> <Idih>
0.000

> <Tether>
0.000

$$$$
VeraChem MOL file


 17 16  0  0  0  0  0  0  0  0999 V2000     
   18.8084   19.0003   19.9572 N   0  3  0  0  0  0  0  0  0  0  0  0
   18.8373   19.8990   19.4665 H   0  0  0  0  0  0  0  0  0  0  0  0
   18.1723   19.1098   20.7522 H   0  0  0  0  0  0  0  0  0  0  0  0
   18.3753   18.3260   19.3181 H   0  0  0  0  0  0  0  0  0  0  0  0
   20.1882   18.5524   20.3993 C   0  0  0  0  0  0  0  0  0  0  0  0
   20.7988   18.4203   19.5019 H   0  0  0  0  0  0  0  0  0  0  0  0
   20.0891   17.5790   20.8867 H   0  0  0  0  0  0  0  0  0  0  0  0
   20.8887   19.5426   21.3525 C   0  0  0  0  0  0  0  0  0  0  0  0
   21.8992   19.1694   21.5660 H   0  0  0  0  0  0  0  0  0  0  0  0
   21.0202   20.5046   20.8397 H   0  0  0  0  0  0  0  0  0  0  0  0
   20.1373   19.7704   22.6878 C   0  0  0  0  0  0  0  0  0  0  0  0
   19.1581   20.2300   22.4964 H   0  0  0  0  0  0  0  0  0  0  0  0
   20.7001   20.4964   23.2911 H   0  0  0  0  0  0  0  0  0  0  0  0
   19.9521   18.4728   23.5074 C   0  0  0  0  0  0  0  0  0  0  0  0
   19.4752   18.6912   24.4716 H   0  0  0  0  0  0  0  0  0  0  0  0
   20.9186   17.9945   23.7128 H   0  0  0  0  0  0  0  0  0  0  0  0
   19.3171   17.7494   22.9806 H   0  0  0  0  0  0  0  0  0  0  0  0
  1  2  1  0  0  0  0
  1  3  1  0  0  0  0
  1  4  1  0  0  0  0
  1  5  1  0  0  0  0
  5  6  1  0  0  0  0
  5  7  1  0  0  0  0
  5  8  1  0  0  0  0
  8  9  1  0  0  0  0
  8 10  1  0  0  0  0
  8 11  1  0  0  0  0
 11 12  1  0  0  0  0
 11 13  1  0  0  0  0
 11 14  1  0  0  0  0
 14 15  1  0  0  0  0
 14 16  1  0  0  0  0
 14 17  1  0  0  0  0
M  END
> <VConfSearch Rank>
138

> <Conf_Id>
43

> <Delta U+W>
0.642

> <U+W>
-15.222

> <U>
45.697

> <W>
-60.919

> <W(PB)>
-62.631

> <W(SA)>
1.712

> <Valence>
1.262

> <Coulomb>
44.179

> <VdW>
0.255

> <VdW6>
-3.552

> <VdW12>
3.807

> <Bond>
0.125

> <Angle>
0.616

> <Pdih>
0.521

> <Idih>
0.000

> <Tether>
0.000

$$$$
VeraChem MOL file


 17 16  0  0  0  0  0  0  0  0999 V2000     
   21.0046   17.0833   20.3464 N   0  3  0  0  0  0  0  0  0  0  0  0
   21.9765   17.2499   20.6243 H   0  0  0  0  0  0  0  0  0  0  0  0
   20.8950   17.4554   19.3981 H   0  0  0  0  0  0  0  0  0  0  0  0
   20.8850   16.0672   20.2816 H   0  0  0  0  0  0  0  0  0  0  0  0
   20.0215   17.7057   21.3178 C   0  0  0  0  0  0  0  0  0  0  0  0
   20.1742   17.2419   22.2961 H   0  0  0  0  0  0  0  0  0  0  0  0
   19.0112   17.4629   20.9776 H   0  0  0  0  0  0  0  0  0  0  0  0
   20.1734   19.2329   21.4397 C   0  0  0  0  0  0  0  0  0  0  0  0
   21.1938   19.4735   21.7666 H   0  0  0  0  0  0  0  0  0  0  0  0
   20.0346   19.6937   20.4526 H   0  0  0  0  0  0  0  0  0  0  0  0
   19.1548   19.8260   22.4378 C   0  0  0  0  0  0  0  0  0  0  0  0
   19.2910   19.3626   23.4252 H   0  0  0  0  0  0  0  0  0  0  0  0
   18.1333   19.5826   22.1129 H   0  0  0  0  0  0  0  0  0  0  0  0
   19.3012   21.3577   22.5654 C   0  0  0  0  0  0  0  0  0  0  0  0
   18.5694   21.7592   23.2783 H   0  0  0  0  0  0  0  0  0  0  0  0
   19.1360   21.8525   21.5994 H   0  0  0  0  0  0  0  0  0  0  0  0
   20.3029   21.6308   22.9221 H   0  0  0  0  0  0  0  0  0  0  0  0
  1  2  1  0  0  0  0
  1  3  1  0  0  0  0
  1  4  1  0  0  0  0
  1  5  1  0  0  0  0
  5  6  1  0  0  0  0
  5  7  1  0  0  0  0
  5  8  1  0  0  0  0
  8  9  1  0  0  0  0
  8 10  1  0  0  0  0
  8 11  1  0  0  0  0
 11 12  1  0  0  0  0
 11 13  1  0  0  0  0
 11 14  1  0  0  0  0
 14 15  1  0  0  0  0
 14 16  1  0  0  0  0
 14 17  1  0  0  0  0
M  END
> <VConfSearch Rank>
139

> <Conf_Id>
7

> <Delta U+W>
0.000

> <U+W>
-15.865

> <U>
44.664

> <W>
-60.529

> <W(PB)>
-62.309

> <W(SA)>
1.780

> <Valence>
0.872

> <Coulomb>
43.648

> <VdW>
0.144

> <VdW6>
-2.370

> <VdW12>
2.515

> <Bond>
0.080

> <Angle>
0.376

> <Pdih>
0.416

> <Idih>
0.000

> <Tether>
0.000

$$$$
VeraChem MOL file


 17 16  0  0  0  0  0  0  0  0999 V2000     
   21.0731   19.5405   23.6988 N   0  3  0  0  0  0  0  0  0  0  0  0
   21.4305   20.5005   23.6781 H   0  0  0  0  0  0  0  0  0  0  0  0
   21.8739   18.9183   23.5533 H   0  0  0  0  0  0  0  0  0  0  0  0
   20.7350   19.3708   24.6515 H   0  0  0  0  0  0  0  0  0  0  0  0
   19.9858   19.3172   22.6666 C   0  0  0  0  0  0  0  0  0  0  0  0
   19.1554   19.9890   22.8998 H   0  0  0  0  0  0  0  0  0  0  0  0
   19.6329   18.2876   22.7681 H   0  0  0  0  0  0  0  0  0  0  0  0
   20.4609   19.5637   21.2218 C   0  0  0  0  0  0  0  0  0  0  0  0
   20.8503   20.5873   21.1409 H   0  0  0  0  0  0  0  0  0  0  0  0
   21.2961   18.8900   20.9883 H   0  0  0  0  0  0  0  0  0  0  0  0
   19.3326   19.3708   20.1818 C   0  0  0  0  0  0  0  0  0  0  0  0
   19.7147   19.6386   19.1867 H   0  0  0  0  0  0  0  0  0  0  0  0
   18.5097   20.0678   20.3945 H   0  0  0  0  0  0  0  0  0  0  0  0
   18.7897   17.9239   20.1406 C   0  0  0  0  0  0  0  0  0  0  0  0
   19.5942   17.2057   19.9354 H   0  0  0  0  0  0  0  0  0  0  0  0
   18.0365   17.8178   19.3492 H   0  0  0  0  0  0  0  0  0  0  0  0
   18.3142   17.6442   21.0892 H   0  0  0  0  0  0  0  0  0  0  0  0
  1  2  1  0  0  0  0
  1  3  1  0  0  0  0
  1  4  1  0  0  0  0
  1  5  1  0  0  0  0
  5  6  1  0  0  0  0
  5  7  1  0  0  0  0
  5  8  1  0  0  0  0
  8  9  1  0  0  0  0
  8 10  1  0  0  0  0
  8 11  1  0  0  0  0
 11 12  1  0  0  0  0
 11 13  1  0  0  0  0
 11 14  1  0  0  0  0
 14 15  1  0  0  0  0
 14 16  1  0  0  0  0
 14 17  1  0  0  0  0
M  END
> <VConfSearch Rank>
140

> <Conf_Id>
36

> <Delta U+W>
0.275

> <U+W>
-15.590

> <U>
45.174

> <W>
-60.765

> <W(PB)>
-62.518

> <W(SA)>
1.754

> <Valence>
1.161

> <Coulomb>
43.789

> <VdW>
0.224

> <VdW6>
-2.897

> <VdW12>
3.121

> <Bond>
0.100

> <Angle>
0.500

> <Pdih>
0.561

> <Idih>
0.000

> <Tether>
0.000

$$$$
VeraChem MOL file


 17 16  0  0  0  0  0  0  0  0999 V2000     
   18.5580   17.9726   20.8804 N   0  3  0  0  0  0  0  0  0  0  0  0
   19.1234   17.4215   21.5311 H   0  0  0  0  0  0  0  0  0  0  0  0
   18.8569   17.7206   19.9335 H   0  0  0  0  0  0  0  0  0  0  0  0
   17.5880   17.6566   20.9799 H   0  0  0  0  0  0  0  0  0  0  0  0
   18.6957   19.4610   21.1372 C   0  0  0  0  0  0  0  0  0  0  0  0
   18.3002   19.6805   22.1326 H   0  0  0  0  0  0  0  0  0  0  0  0
   18.0662   19.9717   20.4034 H   0  0  0  0  0  0  0  0  0  0  0  0
   20.1390   19.9943   21.0194 C   0  0  0  0  0  0  0  0  0  0  0  0
   20.6256   19.5683   20.1320 H   0  0  0  0  0  0  0  0  0  0  0  0
   20.0827   21.0765   20.8417 H   0  0  0  0  0  0  0  0  0  0  0  0
   21.0145   19.7629   22.2775 C   0  0  0  0  0  0  0  0  0  0  0  0
   20.5482   20.2482   23.1465 H   0  0  0  0  0  0  0  0  0  0  0  0
   21.9777   20.2703   22.1269 H   0  0  0  0  0  0  0  0  0  0  0  0
   21.2866   18.2765   22.6021 C   0  0  0  0  0  0  0  0  0  0  0  0
   20.3832   17.7717   22.9636 H   0  0  0  0  0  0  0  0  0  0  0  0
   22.0417   18.1922   23.3946 H   0  0  0  0  0  0  0  0  0  0  0  0
   21.6654   17.7394   21.7229 H   0  0  0  0  0  0  0  0  0  0  0  0
  1  2  1  0  0  0  0
  1  3  1  0  0  0  0
  1  4  1  0  0  0  0
  1  5  1  0  0  0  0
  5  6  1  0  0  0  0
  5  7  1  0  0  0  0
  5  8  1  0  0  0  0
  8  9  1  0  0  0  0
  8 10  1  0  0  0  0
  8 11  1  0  0  0  0
 11 12  1  0  0  0  0
 11 13  1  0  0  0  0
 11 14  1  0  0  0  0
 14 15  1  0  0  0  0
 14 16  1  0  0  0  0
 14 17  1  0  0  0  0
M  END
> <VConfSearch Rank>
141

> <Conf_Id>
19

> <Delta U+W>
2.662

> <U+W>
-13.203

> <U>
47.423

> <W>
-60.626

> <W(PB)>
-62.328

> <W(SA)>
1.702

> <Valence>
2.414

> <Coulomb>
44.831

> <VdW>
0.178

> <VdW6>
-3.743

> <VdW12>
3.921

> <Bond>
0.138

> <Angle>
0.941

> <Pdih>
1.335

> <Idih>
0.000

> <Tether>
0.000

$$$$
VeraChem MOL file


 17 16  0  0  0  0  0  0  0  0999 V2000     
   20.3255   20.7526   20.9699 N   0  3  0  0  0  0  0  0  0  0  0  0
   20.1488   21.4750   20.2643 H   0  0  0  0  0  0  0  0  0  0  0  0
   21.1812   21.0230   21.4640 H   0  0  0  0  0  0  0  0  0  0  0  0
   19.5598   20.7982   21.6470 H   0  0  0  0  0  0  0  0  0  0  0  0
   20.4452   19.3744   20.3484 C   0  0  0  0  0  0  0  0  0  0  0  0
   21.2812   19.4123   19.6448 H   0  0  0  0  0  0  0  0  0  0  0  0
   19.5343   19.1686   19.7798 H   0  0  0  0  0  0  0  0  0  0  0  0
   20.6942   18.2398   21.3644 C   0  0  0  0  0  0  0  0  0  0  0  0
   21.1342   17.3935   20.8202 H   0  0  0  0  0  0  0  0  0  0  0  0
   21.4495   18.5515   22.0979 H   0  0  0  0  0  0  0  0  0  0  0  0
   19.4197   17.7317   22.0857 C   0  0  0  0  0  0  0  0  0  0  0  0
   19.6932   16.8625   22.7003 H   0  0  0  0  0  0  0  0  0  0  0  0
   18.6970   17.3637   21.3438 H   0  0  0  0  0  0  0  0  0  0  0  0
   18.7375   18.7808   22.9928 C   0  0  0  0  0  0  0  0  0  0  0  0
   19.4571   19.2378   23.6845 H   0  0  0  0  0  0  0  0  0  0  0  0
   17.9504   18.3088   23.5951 H   0  0  0  0  0  0  0  0  0  0  0  0
   18.2605   19.5727   22.4037 H   0  0  0  0  0  0  0  0  0  0  0  0
  1  2  1  0  0  0  0
  1  3  1  0  0  0  0
  1  4  1  0  0  0  0
  1  5  1  0  0  0  0
  5  6  1  0  0  0  0
  5  7  1  0  0  0  0
  5  8  1  0  0  0  0
  8  9  1  0  0  0  0
  8 10  1  0  0  0  0
  8 11  1  0  0  0  0
 11 12  1  0  0  0  0
 11 13  1  0  0  0  0
 11 14  1  0  0  0  0
 14 15  1  0  0  0  0
 14 16  1  0  0  0  0
 14 17  1  0  0  0  0
M  END
> <VConfSearch Rank>
142

> <Conf_Id>
44

> <Delta U+W>
2.712

> <U+W>
-13.153

> <U>
47.423

> <W>
-60.576

> <W(PB)>
-62.262

> <W(SA)>
1.687

> <Valence>
2.414

> <Coulomb>
44.831

> <VdW>
0.178

> <VdW6>
-3.743

> <VdW12>
3.922

> <Bond>
0.138

> <Angle>
0.941

> <Pdih>
1.335

> <Idih>
0.000

> <Tether>
0.000

$$$$
VeraChem MOL file


 17 16  0  0  0  0  0  0  0  0999 V2000     
   18.0426   19.2267   22.2241 N   0  3  0  0  0  0  0  0  0  0  0  0
   18.4697   20.1561   22.2701 H   0  0  0  0  0  0  0  0  0  0  0  0
   17.9321   18.8961   23.1874 H   0  0  0  0  0  0  0  0  0  0  0  0
   17.0996   19.3493   21.8415 H   0  0  0  0  0  0  0  0  0  0  0  0
   18.8700   18.2689   21.3886 C   0  0  0  0  0  0  0  0  0  0  0  0
   18.9230   18.6647   20.3711 H   0  0  0  0  0  0  0  0  0  0  0  0
   18.3385   17.3141   21.3524 H   0  0  0  0  0  0  0  0  0  0  0  0
   20.2953   18.0397   21.9326 C   0  0  0  0  0  0  0  0  0  0  0  0
   20.2314   17.6043   22.9386 H   0  0  0  0  0  0  0  0  0  0  0  0
   20.7940   17.2886   21.3057 H   0  0  0  0  0  0  0  0  0  0  0  0
   21.1647   19.3208   21.9813 C   0  0  0  0  0  0  0  0  0  0  0  0
   22.1507   19.0638   22.3931 H   0  0  0  0  0  0  0  0  0  0  0  0
   20.7260   20.0486   22.6773 H   0  0  0  0  0  0  0  0  0  0  0  0
   21.3552   19.9763   20.5942 C   0  0  0  0  0  0  0  0  0  0  0  0
   21.7941   19.2678   19.8799 H   0  0  0  0  0  0  0  0  0  0  0  0
   22.0289   20.8400   20.6658 H   0  0  0  0  0  0  0  0  0  0  0  0
   20.4030   20.3329   20.1818 H   0  0  0  0  0  0  0  0  0  0  0  0
  1  2  1  0  0  0  0
  1  3  1  0  0  0  0
  1  4  1  0  0  0  0
  1  5  1  0  0  0  0
  5  6  1  0  0  0  0
  5  7  1  0  0  0  0
  5  8  1  0  0  0  0
  8  9  1  0  0  0  0
  8 10  1  0  0  0  0
  8 11  1  0  0  0  0
 11 12  1  0  0  0  0
 11 13  1  0  0  0  0
 11 14  1  0  0  0  0
 14 15  1  0  0  0  0
 14 16  1  0  0  0  0
 14 17  1  0  0  0  0
M  END
> <VConfSearch Rank>
143

> <Conf_Id>
1

> <Delta U+W>
0.685

> <U+W>
-15.179

> <U>
45.697

> <W>
-60.876

> <W(PB)>
-62.586

> <W(SA)>
1.710

> <Valence>
1.263

> <Coulomb>
44.179

> <VdW>
0.255

> <VdW6>
-3.552

> <VdW12>
3.807

> <Bond>
0.125

> <Angle>
0.616

> <Pdih>
0.521

> <Idih>
0.000

> <Tether>
0.000

$$$$
VeraChem MOL file


 17 16  0  0  0  0  0  0  0  0999 V2000     
   21.4924   19.6155   22.6706 N   0  3  0  0  0  0  0  0  0  0  0  0
   22.0209   18.8159   23.0320 H   0  0  0  0  0  0  0  0  0  0  0  0
   20.6647   19.7243   23.2635 H   0  0  0  0  0  0  0  0  0  0  0  0
   22.0748   20.4467   22.8144 H   0  0  0  0  0  0  0  0  0  0  0  0
   21.1187   19.4342   21.2120 C   0  0  0  0  0  0  0  0  0  0  0  0
   22.0461   19.3629   20.6371 H   0  0  0  0  0  0  0  0  0  0  0  0
   20.5861   20.3306   20.8841 H   0  0  0  0  0  0  0  0  0  0  0  0
   20.2529   18.1864   20.9415 C   0  0  0  0  0  0  0  0  0  0  0  0
   20.0873   18.1017   19.8593 H   0  0  0  0  0  0  0  0  0  0  0  0
   20.8124   17.2887   21.2362 H   0  0  0  0  0  0  0  0  0  0  0  0
   18.8841   18.2001   21.6666 C   0  0  0  0  0  0  0  0  0  0  0  0
   19.0332   18.1919   22.7549 H   0  0  0  0  0  0  0  0  0  0  0  0
   18.3476   17.2712   21.4272 H   0  0  0  0  0  0  0  0  0  0  0  0
   18.0014   19.4060   21.2711 C   0  0  0  0  0  0  0  0  0  0  0  0
   17.0193   19.3400   21.7569 H   0  0  0  0  0  0  0  0  0  0  0  0
   17.8367   19.4354   20.1861 H   0  0  0  0  0  0  0  0  0  0  0  0
   18.4572   20.3569   21.5742 H   0  0  0  0  0  0  0  0  0  0  0  0
  1  2  1  0  0  0  0
  1  3  1  0  0  0  0
  1  4  1  0  0  0  0
  1  5  1  0  0  0  0
  5  6  1  0  0  0  0
  5  7  1  0  0  0  0
  5  8  1  0  0  0  0
  8  9  1  0  0  0  0
  8 10  1  0  0  0  0
  8 11  1  0  0  0  0
 11 12  1  0  0  0  0
 11 13  1  0  0  0  0
 11 14  1  0  0  0  0
 14 15  1  0  0  0  0
 14 16  1  0  0  0  0
 14 17  1  0  0  0  0
M  END
> <VConfSearch Rank>
144

> <Conf_Id>
43

> <Delta U+W>
0.642

> <U+W>
-15.222

> <U>
45.697

> <W>
-60.919

> <W(PB)>
-62.631

> <W(SA)>
1.712

> <Valence>
1.262

> <Coulomb>
44.179

> <VdW>
0.255

> <VdW6>
-3.552

> <VdW12>
3.807

> <Bond>
0.125

> <Angle>
0.616

> <Pdih>
0.521

> <Idih>
0.000

> <Tether>
0.000

$$$$
VeraChem MOL file


 17 16  0  0  0  0  0  0  0  0999 V2000     
   21.3196   21.0471   22.4884 N   0  3  0  0  0  0  0  0  0  0  0  0
   22.0730   21.0107   21.7950 H   0  0  0  0  0  0  0  0  0  0  0  0
   21.6718   20.5974   23.3389 H   0  0  0  0  0  0  0  0  0  0  0  0
   21.1733   22.0361   22.7152 H   0  0  0  0  0  0  0  0  0  0  0  0
   20.0502   20.3910   21.9830 C   0  0  0  0  0  0  0  0  0  0  0  0
   19.7168   20.9386   21.0973 H   0  0  0  0  0  0  0  0  0  0  0  0
   19.2854   20.4941   22.7575 H   0  0  0  0  0  0  0  0  0  0  0  0
   20.2344   18.9032   21.6325 C   0  0  0  0  0  0  0  0  0  0  0  0
   21.0140   18.8023   20.8656 H   0  0  0  0  0  0  0  0  0  0  0  0
   20.5840   18.3593   22.5202 H   0  0  0  0  0  0  0  0  0  0  0  0
   18.9194   18.2740   21.1223 C   0  0  0  0  0  0  0  0  0  0  0  0
   18.5672   18.8201   20.2356 H   0  0  0  0  0  0  0  0  0  0  0  0
   18.1377   18.3776   21.8882 H   0  0  0  0  0  0  0  0  0  0  0  0
   19.0964   16.7815   20.7686 C   0  0  0  0  0  0  0  0  0  0  0  0
   18.1519   16.3535   20.4085 H   0  0  0  0  0  0  0  0  0  0  0  0
   19.4153   16.2026   21.6452 H   0  0  0  0  0  0  0  0  0  0  0  0
   19.8482   16.6486   19.9797 H   0  0  0  0  0  0  0  0  0  0  0  0
  1  2  1  0  0  0  0
  1  3  1  0  0  0  0
  1  4  1  0  0  0  0
  1  5  1  0  0  0  0
  5  6  1  0  0  0  0
  5  7  1  0  0  0  0
  5  8  1  0  0  0  0
  8  9  1  0  0  0  0
  8 10  1  0  0  0  0
  8 11  1  0  0  0  0
 11 12  1  0  0  0  0
 11 13  1  0  0  0  0
 11 14  1  0  0  0  0
 14 15  1  0  0  0  0
 14 16  1  0  0  0  0
 14 17  1  0  0  0  0
M  END
> <VConfSearch Rank>
145

> <Conf_Id>
7

> <Delta U+W>
0.000

> <U+W>
-15.865

> <U>
44.664

> <W>
-60.529

> <W(PB)>
-62.309

> <W(SA)>
1.780

> <Valence>
0.872

> <Coulomb>
43.648

> <VdW>
0.144

> <VdW6>
-2.370

> <VdW12>
2.515

> <Bond>
0.080

> <Angle>
0.376

> <Pdih>
0.416

> <Idih>
0.000

> <Tether>
0.000

$$$$
VeraChem MOL file


 17 16  0  0  0  0  0  0  0  0999 V2000     
   22.0530   19.5735   22.6626 N   0  3  0  0  0  0  0  0  0  0  0  0
   22.7857   19.0575   22.1661 H   0  0  0  0  0  0  0  0  0  0  0  0
   21.8877   19.0843   23.5475 H   0  0  0  0  0  0  0  0  0  0  0  0
   22.4452   20.4904   22.8996 H   0  0  0  0  0  0  0  0  0  0  0  0
   20.7875   19.6977   21.8377 C   0  0  0  0  0  0  0  0  0  0  0  0
   21.0305   20.2529   20.9277 H   0  0  0  0  0  0  0  0  0  0  0  0
   20.0668   20.2830   22.4145 H   0  0  0  0  0  0  0  0  0  0  0  0
   20.1709   18.3361   21.4638 C   0  0  0  0  0  0  0  0  0  0  0  0
   20.9162   17.7407   20.9199 H   0  0  0  0  0  0  0  0  0  0  0  0
   19.9284   17.7777   22.3778 H   0  0  0  0  0  0  0  0  0  0  0  0
   18.9027   18.4755   20.5896 C   0  0  0  0  0  0  0  0  0  0  0  0
   18.5617   17.4737   20.2930 H   0  0  0  0  0  0  0  0  0  0  0  0
   19.1509   19.0052   19.6589 H   0  0  0  0  0  0  0  0  0  0  0  0
   17.7485   19.2078   21.3117 C   0  0  0  0  0  0  0  0  0  0  0  0
   17.4846   18.7014   22.2493 H   0  0  0  0  0  0  0  0  0  0  0  0
   16.8514   19.2299   20.6794 H   0  0  0  0  0  0  0  0  0  0  0  0
   18.0136   20.2465   21.5458 H   0  0  0  0  0  0  0  0  0  0  0  0
  1  2  1  0  0  0  0
  1  3  1  0  0  0  0
  1  4  1  0  0  0  0
  1  5  1  0  0  0  0
  5  6  1  0  0  0  0
  5  7  1  0  0  0  0
  5  8  1  0  0  0  0
  8  9  1  0  0  0  0
  8 10  1  0  0  0  0
  8 11  1  0  0  0  0
 11 12  1  0  0  0  0
 11 13  1  0  0  0  0
 11 14  1  0  0  0  0
 14 15  1  0  0  0  0
 14 16  1  0  0  0  0
 14 17  1  0  0  0  0
M  END
> <VConfSearch Rank>
146

> <Conf_Id>
36

> <Delta U+W>
0.275

> <U+W>
-15.590

> <U>
45.174

> <W>
-60.765

> <W(PB)>
-62.518

> <W(SA)>
1.754

> <Valence>
1.161

> <Coulomb>
43.789

> <VdW>
0.224

> <VdW6>
-2.897

> <VdW12>
3.121

> <Bond>
0.100

> <Angle>
0.500

> <Pdih>
0.561

> <Idih>
0.000

> <Tether>
0.000

$$$$
VeraChem MOL file


 17 16  0  0  0  0  0  0  0  0999 V2000     
   19.0889   20.3601   20.6802 N   0  3  0  0  0  0  0  0  0  0  0  0
   19.5826   20.7150   21.5031 H   0  0  0  0  0  0  0  0  0  0  0  0
   18.0970   20.2960   20.9283 H   0  0  0  0  0  0  0  0  0  0  0  0
   19.1668   21.0746   19.9493 H   0  0  0  0  0  0  0  0  0  0  0  0
   19.6433   19.0241   20.2246 C   0  0  0  0  0  0  0  0  0  0  0  0
   20.6803   19.1668   19.9092 H   0  0  0  0  0  0  0  0  0  0  0  0
   19.0631   18.7187   19.3496 H   0  0  0  0  0  0  0  0  0  0  0  0
   19.5700   17.9101   21.2902 C   0  0  0  0  0  0  0  0  0  0  0  0
   18.5909   17.9295   21.7870 H   0  0  0  0  0  0  0  0  0  0  0  0
   19.6245   16.9447   20.7697 H   0  0  0  0  0  0  0  0  0  0  0  0
   20.7087   17.9500   22.3410 C   0  0  0  0  0  0  0  0  0  0  0  0
   21.6811   17.8662   21.8356 H   0  0  0  0  0  0  0  0  0  0  0  0
   20.6210   17.0602   22.9802 H   0  0  0  0  0  0  0  0  0  0  0  0
   20.7031   19.2057   23.2422 C   0  0  0  0  0  0  0  0  0  0  0  0
   20.9944   20.1029   22.6838 H   0  0  0  0  0  0  0  0  0  0  0  0
   21.4234   19.0887   24.0623 H   0  0  0  0  0  0  0  0  0  0  0  0
   19.7141   19.3714   23.6888 H   0  0  0  0  0  0  0  0  0  0  0  0
  1  2  1  0  0  0  0
  1  3  1  0  0  0  0
  1  4  1  0  0  0  0
  1  5  1  0  0  0  0
  5  6  1  0  0  0  0
  5  7  1  0  0  0  0
  5  8  1  0  0  0  0
  8  9  1  0  0  0  0
  8 10  1  0  0  0  0
  8 11  1  0  0  0  0
 11 12  1  0  0  0  0
 11 13  1  0  0  0  0
 11 14  1  0  0  0  0
 14 15  1  0  0  0  0
 14 16  1  0  0  0  0
 14 17  1  0  0  0  0
M  END
> <VConfSearch Rank>
147

> <Conf_Id>
19

> <Delta U+W>
2.662

> <U+W>
-13.203

> <U>
47.423

> <W>
-60.626

> <W(PB)>
-62.328

> <W(SA)>
1.702

> <Valence>
2.414

> <Coulomb>
44.831

> <VdW>
0.178

> <VdW6>
-3.743

> <VdW12>
3.921

> <Bond>
0.138

> <Angle>
0.941

> <Pdih>
1.335

> <Idih>
0.000

> <Tether>
0.000

$$$$
VeraChem MOL file


 17 16  0  0  0  0  0  0  0  0999 V2000     
   18.9659   20.6682   21.4075 N   0  3  0  0  0  0  0  0  0  0  0  0
   18.0527   21.1271   21.3284 H   0  0  0  0  0  0  0  0  0  0  0  0
   19.6725   21.3688   21.1637 H   0  0  0  0  0  0  0  0  0  0  0  0
   19.1019   20.4343   22.3942 H   0  0  0  0  0  0  0  0  0  0  0  0
   19.0595   19.4414   20.5208 C   0  0  0  0  0  0  0  0  0  0  0  0
   18.9058   19.7780   19.4919 H   0  0  0  0  0  0  0  0  0  0  0  0
   18.2429   18.7620   20.7793 H   0  0  0  0  0  0  0  0  0  0  0  0
   20.4076   18.6956   20.6097 C   0  0  0  0  0  0  0  0  0  0  0  0
   20.5182   18.0938   19.6979 H   0  0  0  0  0  0  0  0  0  0  0  0
   21.2366   19.4155   20.5978 H   0  0  0  0  0  0  0  0  0  0  0  0
   20.5369   17.7446   21.8269 C   0  0  0  0  0  0  0  0  0  0  0  0
   21.4821   17.1914   21.7349 H   0  0  0  0  0  0  0  0  0  0  0  0
   19.7386   16.9898   21.7927 H   0  0  0  0  0  0  0  0  0  0  0  0
   20.5145   18.4559   23.1989 C   0  0  0  0  0  0  0  0  0  0  0  0
   21.2382   19.2807   23.2322 H   0  0  0  0  0  0  0  0  0  0  0  0
   20.7772   17.7502   23.9978 H   0  0  0  0  0  0  0  0  0  0  0  0
   19.5182   18.8493   23.4320 H   0  0  0  0  0  0  0  0  0  0  0  0
  1  2  1  0  0  0  0
  1  3  1  0  0  0  0
  1  4  1  0  0  0  0
  1  5  1  0  0  0  0
  5  6  1  0  0  0  0
  5  7  1  0  0  0  0
  5  8  1  0  0  0  0
  8  9  1  0  0  0  0
  8 10  1  0  0  0  0
  8 11  1  0  0  0  0
 11 12  1  0  0  0  0
 11 13  1  0  0  0  0
 11 14  1  0  0  0  0
 14 15  1  0  0  0  0
 14 16  1  0  0  0  0
 14 17  1  0  0  0  0
M  END
> <VConfSearch Rank>
148

> <Conf_Id>
44

> <Delta U+W>
2.712

> <U+W>
-13.153

> <U>
47.423

> <W>
-60.576

> <W(PB)>
-62.262

> <W(SA)>
1.687

> <Valence>
2.414

> <Coulomb>
44.831

> <VdW>
0.178

> <VdW6>
-3.743

> <VdW12>
3.922

> <Bond>
0.138

> <Angle>
0.941

> <Pdih>
1.335

> <Idih>
0.000

> <Tether>
0.000

$$$$
VeraChem MOL file


 17 16  0  0  0  0  0  0  0  0999 V2000     
   20.5204   18.4824   19.7897 N   0  3  0  0  0  0  0  0  0  0  0  0
   21.3001   18.9832   20.2253 H   0  0  0  0  0  0  0  0  0  0  0  0
   20.1373   19.0929   19.0617 H   0  0  0  0  0  0  0  0  0  0  0  0
   20.9176   17.6656   19.3145 H   0  0  0  0  0  0  0  0  0  0  0  0
   19.4682   18.0864   20.8074 C   0  0  0  0  0  0  0  0  0  0  0  0
   19.9341   17.4155   21.5339 H   0  0  0  0  0  0  0  0  0  0  0  0
   18.6901   17.5267   20.2813 H   0  0  0  0  0  0  0  0  0  0  0  0
   18.8290   19.2839   21.5404 C   0  0  0  0  0  0  0  0  0  0  0  0
   18.3289   19.9302   20.8070 H   0  0  0  0  0  0  0  0  0  0  0  0
   18.0397   18.9082   22.2050 H   0  0  0  0  0  0  0  0  0  0  0  0
   19.8329   20.1254   22.3671 C   0  0  0  0  0  0  0  0  0  0  0  0
   19.2926   20.9586   22.8381 H   0  0  0  0  0  0  0  0  0  0  0  0
   20.5778   20.5844   21.7028 H   0  0  0  0  0  0  0  0  0  0  0  0
   20.5492   19.3066   23.4654 C   0  0  0  0  0  0  0  0  0  0  0  0
   19.8245   18.8380   24.1440 H   0  0  0  0  0  0  0  0  0  0  0  0
   21.1996   19.9550   24.0666 H   0  0  0  0  0  0  0  0  0  0  0  0
   21.1766   18.5159   23.0353 H   0  0  0  0  0  0  0  0  0  0  0  0
  1  2  1  0  0  0  0
  1  3  1  0  0  0  0
  1  4  1  0  0  0  0
  1  5  1  0  0  0  0
  5  6  1  0  0  0  0
  5  7  1  0  0  0  0
  5  8  1  0  0  0  0
  8  9  1  0  0  0  0
  8 10  1  0  0  0  0
  8 11  1  0  0  0  0
 11 12  1  0  0  0  0
 11 13  1  0  0  0  0
 11 14  1  0  0  0  0
 14 15  1  0  0  0  0
 14 16  1  0  0  0  0
 14 17  1  0  0  0  0
M  END
> <VConfSearch Rank>
149

> <Conf_Id>
1

> <Delta U+W>
0.685

> <U+W>
-15.179

> <U>
45.697

> <W>
-60.876

> <W(PB)>
-62.586

> <W(SA)>
1.710

> <Valence>
1.263

> <Coulomb>
44.179

> <VdW>
0.255

> <VdW6>
-3.552

> <VdW12>
3.807

> <Bond>
0.125

> <Angle>
0.616

> <Pdih>
0.521

> <Idih>
0.000

> <Tether>
0.000

$$$$
VeraChem MOL file


 17 16  0  0  0  0  0  0  0  0999 V2000     
   18.6659   17.5241   21.2979 N   0  3  0  0  0  0  0  0  0  0  0  0
   19.0715   16.8117   20.6835 H   0  0  0  0  0  0  0  0  0  0  0  0
   18.3580   18.2979   20.7021 H   0  0  0  0  0  0  0  0  0  0  0  0
   17.8239   17.1136   21.7141 H   0  0  0  0  0  0  0  0  0  0  0  0
   19.6500   17.9861   22.3552 C   0  0  0  0  0  0  0  0  0  0  0  0
   19.9045   17.1212   22.9738 H   0  0  0  0  0  0  0  0  0  0  0  0
   19.1463   18.7192   22.9905 H   0  0  0  0  0  0  0  0  0  0  0  0
   20.9425   18.5991   21.7776 C   0  0  0  0  0  0  0  0  0  0  0  0
   21.6173   18.8433   22.6087 H   0  0  0  0  0  0  0  0  0  0  0  0
   21.4618   17.8426   21.1744 H   0  0  0  0  0  0  0  0  0  0  0  0
   20.7096   19.8684   20.9208 C   0  0  0  0  0  0  0  0  0  0  0  0
   20.1109   19.6206   20.0338 H   0  0  0  0  0  0  0  0  0  0  0  0
   21.6788   20.2229   20.5429 H   0  0  0  0  0  0  0  0  0  0  0  0
   20.0279   21.0123   21.7061 C   0  0  0  0  0  0  0  0  0  0  0  0
   19.9425   21.9107   21.0812 H   0  0  0  0  0  0  0  0  0  0  0  0
   20.6090   21.2793   22.5983 H   0  0  0  0  0  0  0  0  0  0  0  0
   19.0159   20.7350   22.0268 H   0  0  0  0  0  0  0  0  0  0  0  0
  1  2  1  0  0  0  0
  1  3  1  0  0  0  0
  1  4  1  0  0  0  0
  1  5  1  0  0  0  0
  5  6  1  0  0  0  0
  5  7  1  0  0  0  0
  5  8  1  0  0  0  0
  8  9  1  0  0  0  0
  8 10  1  0  0  0  0
  8 11  1  0  0  0  0
 11 12  1  0  0  0  0
 11 13  1  0  0  0  0
 11 14  1  0  0  0  0
 14 15  1  0  0  0  0
 14 16  1  0  0  0  0
 14 17  1  0  0  0  0
M  END
> <VConfSearch Rank>
150

> <Conf_Id>
43

> <Delta U+W>
0.642

> <U+W>
-15.222

> <U>
45.697

> <W>
-60.919

> <W(PB)>
-62.631

> <W(SA)>
1.712

> <Valence>
1.262

> <Coulomb>
44.179

> <VdW>
0.255

> <VdW6>
-3.552

> <VdW12>
3.807

> <Bond>
0.125

> <Angle>
0.616

> <Pdih>
0.521

> <Idih>
0.000

> <Tether>
0.000

$$$$
VeraChem MOL file


 17 16  0  0  0  0  0  0  0  0999 V2000     
   21.9272   19.3149   19.9779 N   0  3  0  0  0  0  0  0  0  0  0  0
   22.5191   18.5768   20.3711 H   0  0  0  0  0  0  0  0  0  0  0  0
   22.2808   20.2070   20.3367 H   0  0  0  0  0  0  0  0  0  0  0  0
   22.0899   19.3173   18.9657 H   0  0  0  0  0  0  0  0  0  0  0  0
   20.4635   19.1080   20.3129 C   0  0  0  0  0  0  0  0  0  0  0  0
   20.1481   18.1570   19.8751 H   0  0  0  0  0  0  0  0  0  0  0  0
   19.8919   19.9100   19.8380 H   0  0  0  0  0  0  0  0  0  0  0  0
   20.1831   19.0990   21.8267 C   0  0  0  0  0  0  0  0  0  0  0  0
   20.7706   18.3024   22.3023 H   0  0  0  0  0  0  0  0  0  0  0  0
   20.5151   20.0494   22.2654 H   0  0  0  0  0  0  0  0  0  0  0  0
   18.6825   18.8858   22.1239 C   0  0  0  0  0  0  0  0  0  0  0  0
   18.3488   17.9362   21.6822 H   0  0  0  0  0  0  0  0  0  0  0  0
   18.0936   19.6811   21.6454 H   0  0  0  0  0  0  0  0  0  0  0  0
   18.3935   18.8755   23.6406 C   0  0  0  0  0  0  0  0  0  0  0  0
   17.3231   18.7230   23.8305 H   0  0  0  0  0  0  0  0  0  0  0  0
   18.6852   19.8265   24.1051 H   0  0  0  0  0  0  0  0  0  0  0  0
   18.9424   18.0679   24.1422 H   0  0  0  0  0  0  0  0  0  0  0  0
  1  2  1  0  0  0  0
  1  3  1  0  0  0  0
  1  4  1  0  0  0  0
  1  5  1  0  0  0  0
  5  6  1  0  0  0  0
  5  7  1  0  0  0  0
  5  8  1  0  0  0  0
  8  9  1  0  0  0  0
  8 10  1  0  0  0  0
  8 11  1  0  0  0  0
 11 12  1  0  0  0  0
 11 13  1  0  0  0  0
 11 14  1  0  0  0  0
 14 15  1  0  0  0  0
 14 16  1  0  0  0  0
 14 17  1  0  0  0  0
M  END
> <VConfSearch Rank>
151

> <Conf_Id>
7

> <Delta U+W>
0.000

> <U+W>
-15.865

> <U>
44.664

> <W>
-60.529

> <W(PB)>
-62.309

> <W(SA)>
1.780

> <Valence>
0.872

> <Coulomb>
43.648

> <VdW>
0.144

> <VdW6>
-2.370

> <VdW12>
2.515

> <Bond>
0.080

> <Angle>
0.376

> <Pdih>
0.416

> <Idih>
0.000

> <Tether>
0.000

$$$$
VeraChem MOL file


 17 16  0  0  0  0  0  0  0  0999 V2000     
   21.5267   20.2929   22.9772 N   0  3  0  0  0  0  0  0  0  0  0  0
   21.0200   20.8109   23.7014 H   0  0  0  0  0  0  0  0  0  0  0  0
   21.8252   20.9747   22.2731 H   0  0  0  0  0  0  0  0  0  0  0  0
   22.3782   19.9273   23.4154 H   0  0  0  0  0  0  0  0  0  0  0  0
   20.6833   19.1870   22.3747 C   0  0  0  0  0  0  0  0  0  0  0  0
   20.4276   18.4844   23.1724 H   0  0  0  0  0  0  0  0  0  0  0  0
   21.2957   18.6612   21.6377 H   0  0  0  0  0  0  0  0  0  0  0  0
   19.3942   19.7026   21.7065 C   0  0  0  0  0  0  0  0  0  0  0  0
   18.8057   20.2633   22.4448 H   0  0  0  0  0  0  0  0  0  0  0  0
   19.6510   20.4097   20.9065 H   0  0  0  0  0  0  0  0  0  0  0  0
   18.5235   18.5616   21.1304 C   0  0  0  0  0  0  0  0  0  0  0  0
   17.5875   18.9877   20.7428 H   0  0  0  0  0  0  0  0  0  0  0  0
   18.2378   17.8708   21.9363 H   0  0  0  0  0  0  0  0  0  0  0  0
   19.2268   17.7770   19.9992 C   0  0  0  0  0  0  0  0  0  0  0  0
   19.5284   18.4461   19.1828 H   0  0  0  0  0  0  0  0  0  0  0  0
   18.5524   17.0195   19.5792 H   0  0  0  0  0  0  0  0  0  0  0  0
   20.1214   17.2571   20.3646 H   0  0  0  0  0  0  0  0  0  0  0  0
  1  2  1  0  0  0  0
  1  3  1  0  0  0  0
  1  4  1  0  0  0  0
  1  5  1  0  0  0  0
  5  6  1  0  0  0  0
  5  7  1  0  0  0  0
  5  8  1  0  0  0  0
  8  9  1  0  0  0  0
  8 10  1  0  0  0  0
  8 11  1  0  0  0  0
 11 12  1  0  0  0  0
 11 13  1  0  0  0  0
 11 14  1  0  0  0  0
 14 15  1  0  0  0  0
 14 16  1  0  0  0  0
 14 17  1  0  0  0  0
M  END
> <VConfSearch Rank>
152

> <Conf_Id>
36

> <Delta U+W>
0.275

> <U+W>
-15.590

> <U>
45.174

> <W>
-60.765

> <W(PB)>
-62.518

> <W(SA)>
1.754

> <Valence>
1.161

> <Coulomb>
43.789

> <VdW>
0.224

> <VdW6>
-2.897

> <VdW12>
3.121

> <Bond>
0.100

> <Angle>
0.500

> <Pdih>
0.561

> <Idih>
0.000

> <Tether>
0.000

$$$$
VeraChem MOL file


 17 16  0  0  0  0  0  0  0  0999 V2000     
   20.0411   19.7340   19.9024 N   0  3  0  0  0  0  0  0  0  0  0  0
   19.0730   19.6887   20.2303 H   0  0  0  0  0  0  0  0  0  0  0  0
   20.1775   18.9504   19.2567 H   0  0  0  0  0  0  0  0  0  0  0  0
   20.1337   20.5931   19.3509 H   0  0  0  0  0  0  0  0  0  0  0  0
   21.0272   19.6936   21.0538 C   0  0  0  0  0  0  0  0  0  0  0  0
   20.8808   20.5854   21.6691 H   0  0  0  0  0  0  0  0  0  0  0  0
   22.0291   19.7441   20.6187 H   0  0  0  0  0  0  0  0  0  0  0  0
   20.9243   18.4296   21.9332 C   0  0  0  0  0  0  0  0  0  0  0  0
   20.8213   17.5386   21.2998 H   0  0  0  0  0  0  0  0  0  0  0  0
   21.8781   18.3127   22.4646 H   0  0  0  0  0  0  0  0  0  0  0  0
   19.7919   18.4730   22.9909 C   0  0  0  0  0  0  0  0  0  0  0  0
   19.9420   19.3335   23.6579 H   0  0  0  0  0  0  0  0  0  0  0  0
   19.8761   17.5790   23.6247 H   0  0  0  0  0  0  0  0  0  0  0  0
   18.3654   18.5234   22.3981 C   0  0  0  0  0  0  0  0  0  0  0  0
   18.1585   19.4925   21.9294 H   0  0  0  0  0  0  0  0  0  0  0  0
   17.6188   18.3828   23.1906 H   0  0  0  0  0  0  0  0  0  0  0  0
   18.2146   17.7303   21.6542 H   0  0  0  0  0  0  0  0  0  0  0  0
  1  2  1  0  0  0  0
  1  3  1  0  0  0  0
  1  4  1  0  0  0  0
  1  5  1  0  0  0  0
  5  6  1  0  0  0  0
  5  7  1  0  0  0  0
  5  8  1  0  0  0  0
  8  9  1  0  0  0  0
  8 10  1  0  0  0  0
  8 11  1  0  0  0  0
 11 12  1  0  0  0  0
 11 13  1  0  0  0  0
 11 14  1  0  0  0  0
 14 15  1  0  0  0  0
 14 16  1  0  0  0  0
 14 17  1  0  0  0  0
M  END
> <VConfSearch Rank>
153

> <Conf_Id>
19

> <Delta U+W>
2.662

> <U+W>
-13.203

> <U>
47.423

> <W>
-60.626

> <W(PB)>
-62.328

> <W(SA)>
1.702

> <Valence>
2.414

> <Coulomb>
44.831

> <VdW>
0.178

> <VdW6>
-3.743

> <VdW12>
3.921

> <Bond>
0.138

> <Angle>
0.941

> <Pdih>
1.335

> <Idih>
0.000

> <Tether>
0.000

$$$$
VeraChem MOL file


 17 16  0  0  0  0  0  0  0  0999 V2000     
   21.0088   20.1100   22.6410 N   0  3  0  0  0  0  0  0  0  0  0  0
   21.8826   20.1540   23.1752 H   0  0  0  0  0  0  0  0  0  0  0  0
   20.4789   20.9568   22.8682 H   0  0  0  0  0  0  0  0  0  0  0  0
   21.2574   20.1673   21.6502 H   0  0  0  0  0  0  0  0  0  0  0  0
   20.2207   18.8520   22.9511 C   0  0  0  0  0  0  0  0  0  0  0  0
   19.9961   18.8709   24.0210 H   0  0  0  0  0  0  0  0  0  0  0  0
   20.8573   17.9851   22.7549 H   0  0  0  0  0  0  0  0  0  0  0  0
   18.9007   18.7197   22.1626 C   0  0  0  0  0  0  0  0  0  0  0  0
   18.2517   18.0235   22.7103 H   0  0  0  0  0  0  0  0  0  0  0  0
   18.3707   19.6814   22.1533 H   0  0  0  0  0  0  0  0  0  0  0  0
   19.0658   18.1812   20.7185 C   0  0  0  0  0  0  0  0  0  0  0  0
   18.0655   18.0277   20.2899 H   0  0  0  0  0  0  0  0  0  0  0  0
   19.5400   17.1900   20.7456 H   0  0  0  0  0  0  0  0  0  0  0  0
   19.8670   19.1098   19.7779 C   0  0  0  0  0  0  0  0  0  0  0  0
   19.4751   20.1350   19.8011 H   0  0  0  0  0  0  0  0  0  0  0  0
   19.8006   18.7514   18.7424 H   0  0  0  0  0  0  0  0  0  0  0  0
   20.9304   19.1310   20.0434 H   0  0  0  0  0  0  0  0  0  0  0  0
  1  2  1  0  0  0  0
  1  3  1  0  0  0  0
  1  4  1  0  0  0  0
  1  5  1  0  0  0  0
  5  6  1  0  0  0  0
  5  7  1  0  0  0  0
  5  8  1  0  0  0  0
  8  9  1  0  0  0  0
  8 10  1  0  0  0  0
  8 11  1  0  0  0  0
 11 12  1  0  0  0  0
 11 13  1  0  0  0  0
 11 14  1  0  0  0  0
 14 15  1  0  0  0  0
 14 16  1  0  0  0  0
 14 17  1  0  0  0  0
M  END
> <VConfSearch Rank>
154

> <Conf_Id>
44

> <Delta U+W>
2.712

> <U+W>
-13.153

> <U>
47.423

> <W>
-60.576

> <W(PB)>
-62.262

> <W(SA)>
1.687

> <Valence>
2.414

> <Coulomb>
44.831

> <VdW>
0.178

> <VdW6>
-3.743

> <VdW12>
3.922

> <Bond>
0.138

> <Angle>
0.941

> <Pdih>
1.335

> <Idih>
0.000

> <Tether>
0.000

$$$$
VeraChem MOL file


 17 16  0  0  0  0  0  0  0  0999 V2000     
   19.2365   20.1366   20.0908 N   0  3  0  0  0  0  0  0  0  0  0  0
   19.2940   20.7507   20.9082 H   0  0  0  0  0  0  0  0  0  0  0  0
   18.2432   19.9585   19.9151 H   0  0  0  0  0  0  0  0  0  0  0  0
   19.5893   20.6706   19.2901 H   0  0  0  0  0  0  0  0  0  0  0  0
   20.0139   18.8511   20.2982 C   0  0  0  0  0  0  0  0  0  0  0  0
   21.0648   19.1106   20.4499 H   0  0  0  0  0  0  0  0  0  0  0  0
   19.9401   18.2653   19.3779 H   0  0  0  0  0  0  0  0  0  0  0  0
   19.5107   18.0036   21.4849 C   0  0  0  0  0  0  0  0  0  0  0  0
   18.4671   17.7138   21.3040 H   0  0  0  0  0  0  0  0  0  0  0  0
   20.0860   17.0689   21.5179 H   0  0  0  0  0  0  0  0  0  0  0  0
   19.6162   18.7151   22.8568 C   0  0  0  0  0  0  0  0  0  0  0  0
   19.2237   18.0447   23.6342 H   0  0  0  0  0  0  0  0  0  0  0  0
   18.9724   19.6051   22.8710 H   0  0  0  0  0  0  0  0  0  0  0  0
   21.0643   19.1142   23.2222 C   0  0  0  0  0  0  0  0  0  0  0  0
   21.7280   18.2399   23.2158 H   0  0  0  0  0  0  0  0  0  0  0  0
   21.1004   19.5544   24.2271 H   0  0  0  0  0  0  0  0  0  0  0  0
   21.4679   19.8558   22.5215 H   0  0  0  0  0  0  0  0  0  0  0  0
  1  2  1  0  0  0  0
  1  3  1  0  0  0  0
  1  4  1  0  0  0  0
  1  5  1  0  0  0  0
  5  6  1  0  0  0  0
  5  7  1  0  0  0  0
  5  8  1  0  0  0  0
  8  9  1  0  0  0  0
  8 10  1  0  0  0  0
  8 11  1  0  0  0  0
 11 12  1  0  0  0  0
 11 13  1  0  0  0  0
 11 14  1  0  0  0  0
 14 15  1  0  0  0  0
 14 16  1  0  0  0  0
 14 17  1  0  0  0  0
M  END
> <VConfSearch Rank>
155

> <Conf_Id>
1

> <Delta U+W>
0.685

> <U+W>
-15.179

> <U>
45.697

> <W>
-60.876

> <W(PB)>
-62.586

> <W(SA)>
1.710

> <Valence>
1.263

> <Coulomb>
44.179

> <VdW>
0.255

> <VdW6>
-3.552

> <VdW12>
3.807

> <Bond>
0.125

> <Angle>
0.616

> <Pdih>
0.521

> <Idih>
0.000

> <Tether>
0.000

$$$$
VeraChem MOL file


 17 16  0  0  0  0  0  0  0  0999 V2000     
   20.4753   17.1471   21.9129 N   0  3  0  0  0  0  0  0  0  0  0  0
   19.6885   16.5014   21.7969 H   0  0  0  0  0  0  0  0  0  0  0  0
   20.3724   17.5876   22.8315 H   0  0  0  0  0  0  0  0  0  0  0  0
   21.3260   16.5764   21.9484 H   0  0  0  0  0  0  0  0  0  0  0  0
   20.5321   18.1755   20.7998 C   0  0  0  0  0  0  0  0  0  0  0  0
   20.6797   17.6394   19.8584 H   0  0  0  0  0  0  0  0  0  0  0  0
   21.4064   18.8097   20.9679 H   0  0  0  0  0  0  0  0  0  0  0  0
   19.2663   19.0512   20.6959 C   0  0  0  0  0  0  0  0  0  0  0  0
   19.3701   19.7170   19.8288 H   0  0  0  0  0  0  0  0  0  0  0  0
   18.4003   18.4095   20.4864 H   0  0  0  0  0  0  0  0  0  0  0  0
   18.9827   19.9012   21.9595 C   0  0  0  0  0  0  0  0  0  0  0  0
   18.7854   19.2459   22.8188 H   0  0  0  0  0  0  0  0  0  0  0  0
   18.0603   20.4767   21.7990 H   0  0  0  0  0  0  0  0  0  0  0  0
   20.1308   20.8779   22.3025 C   0  0  0  0  0  0  0  0  0  0  0  0
   19.8599   21.5036   23.1628 H   0  0  0  0  0  0  0  0  0  0  0  0
   20.3465   21.5454   21.4581 H   0  0  0  0  0  0  0  0  0  0  0  0
   21.0532   20.3426   22.5601 H   0  0  0  0  0  0  0  0  0  0  0  0
  1  2  1  0  0  0  0
  1  3  1  0  0  0  0
  1  4  1  0  0  0  0
  1  5  1  0  0  0  0
  5  6  1  0  0  0  0
  5  7  1  0  0  0  0
  5  8  1  0  0  0  0
  8  9  1  0  0  0  0
  8 10  1  0  0  0  0
  8 11  1  0  0  0  0
 11 12  1  0  0  0  0
 11 13  1  0  0  0  0
 11 14  1  0  0  0  0
 14 15  1  0  0  0  0
 14 16  1  0  0  0  0
 14 17  1  0  0  0  0
M  END
> <VConfSearch Rank>
156

> <Conf_Id>
43

> <Delta U+W>
0.642

> <U+W>
-15.222

> <U>
45.697

> <W>
-60.919

> <W(PB)>
-62.631

> <W(SA)>
1.712

> <Valence>
1.262

> <Coulomb>
44.179

> <VdW>
0.255

> <VdW6>
-3.552

> <VdW12>
3.807

> <Bond>
0.125

> <Angle>
0.616

> <Pdih>
0.521

> <Idih>
0.000

> <Tether>
0.000

$$$$
VeraChem MOL file


 17 16  0  0  0  0  0  0  0  0999 V2000     
   21.1382   18.6852   19.3553 N   0  3  0  0  0  0  0  0  0  0  0  0
   21.0751   19.6476   19.0096 H   0  0  0  0  0  0  0  0  0  0  0  0
   20.3909   18.1525   18.8998 H   0  0  0  0  0  0  0  0  0  0  0  0
   22.0256   18.3045   19.0110 H   0  0  0  0  0  0  0  0  0  0  0  0
   21.0444   18.6172   20.8665 C   0  0  0  0  0  0  0  0  0  0  0  0
   21.8856   19.1782   21.2826 H   0  0  0  0  0  0  0  0  0  0  0  0
   21.1499   17.5705   21.1645 H   0  0  0  0  0  0  0  0  0  0  0  0
   19.7225   19.1815   21.4183 C   0  0  0  0  0  0  0  0  0  0  0  0
   19.6126   20.2280   21.1041 H   0  0  0  0  0  0  0  0  0  0  0  0
   18.8795   18.6257   20.9866 H   0  0  0  0  0  0  0  0  0  0  0  0
   19.6679   19.0934   22.9594 C   0  0  0  0  0  0  0  0  0  0  0  0
   20.5134   19.6468   23.3921 H   0  0  0  0  0  0  0  0  0  0  0  0
   19.7811   18.0465   23.2747 H   0  0  0  0  0  0  0  0  0  0  0  0
   18.3447   19.6578   23.5201 C   0  0  0  0  0  0  0  0  0  0  0  0
   18.3257   19.5862   24.6154 H   0  0  0  0  0  0  0  0  0  0  0  0
   17.4816   19.1015   23.1318 H   0  0  0  0  0  0  0  0  0  0  0  0
   18.2196   20.7145   23.2501 H   0  0  0  0  0  0  0  0  0  0  0  0
  1  2  1  0  0  0  0
  1  3  1  0  0  0  0
  1  4  1  0  0  0  0
  1  5  1  0  0  0  0
  5  6  1  0  0  0  0
  5  7  1  0  0  0  0
  5  8  1  0  0  0  0
  8  9  1  0  0  0  0
  8 10  1  0  0  0  0
  8 11  1  0  0  0  0
 11 12  1  0  0  0  0
 11 13  1  0  0  0  0
 11 14  1  0  0  0  0
 14 15  1  0  0  0  0
 14 16  1  0  0  0  0
 14 17  1  0  0  0  0
M  END
> <VConfSearch Rank>
157

> <Conf_Id>
7

> <Delta U+W>
0.000

> <U+W>
-15.865

> <U>
44.664

> <W>
-60.529

> <W(PB)>
-62.309

> <W(SA)>
1.780

> <Valence>
0.872

> <Coulomb>
43.648

> <VdW>
0.144

> <VdW6>
-2.370

> <VdW12>
2.515

> <Bond>
0.080

> <Angle>
0.376

> <Pdih>
0.416

> <Idih>
0.000

> <Tether>
0.000

$$$$
VeraChem MOL file


 17 16  0  0  0  0  0  0  0  0999 V2000     
   21.8868   17.7013   21.4020 N   0  3  0  0  0  0  0  0  0  0  0  0
   22.1422   17.6465   20.4113 H   0  0  0  0  0  0  0  0  0  0  0  0
   21.4506   16.8081   21.6499 H   0  0  0  0  0  0  0  0  0  0  0  0
   22.7629   17.7603   21.9310 H   0  0  0  0  0  0  0  0  0  0  0  0
   20.9747   18.8774   21.6890 C   0  0  0  0  0  0  0  0  0  0  0  0
   21.5129   19.7934   21.4306 H   0  0  0  0  0  0  0  0  0  0  0  0
   20.7715   18.8905   22.7630 H   0  0  0  0  0  0  0  0  0  0  0  0
   19.6470   18.8199   20.9095 C   0  0  0  0  0  0  0  0  0  0  0  0
   19.8631   18.7667   19.8342 H   0  0  0  0  0  0  0  0  0  0  0  0
   19.1073   17.8991   21.1678 H   0  0  0  0  0  0  0  0  0  0  0  0
   18.7424   20.0447   21.1809 C   0  0  0  0  0  0  0  0  0  0  0  0
   17.8539   19.9819   20.5371 H   0  0  0  0  0  0  0  0  0  0  0  0
   19.2689   20.9653   20.8916 H   0  0  0  0  0  0  0  0  0  0  0  0
   18.2902   20.1469   22.6557 C   0  0  0  0  0  0  0  0  0  0  0  0
   17.7660   19.2358   22.9722 H   0  0  0  0  0  0  0  0  0  0  0  0
   17.6029   20.9923   22.7898 H   0  0  0  0  0  0  0  0  0  0  0  0
   19.1423   20.3036   23.3291 H   0  0  0  0  0  0  0  0  0  0  0  0
  1  2  1  0  0  0  0
  1  3  1  0  0  0  0
  1  4  1  0  0  0  0
  1  5  1  0  0  0  0
  5  6  1  0  0  0  0
  5  7  1  0  0  0  0
  5  8  1  0  0  0  0
  8  9  1  0  0  0  0
  8 10  1  0  0  0  0
  8 11  1  0  0  0  0
 11 12  1  0  0  0  0
 11 13  1  0  0  0  0
 11 14  1  0  0  0  0
 14 15  1  0  0  0  0
 14 16  1  0  0  0  0
 14 17  1  0  0  0  0
M  END
> <VConfSearch Rank>
158

> <Conf_Id>
36

> <Delta U+W>
0.275

> <U+W>
-15.590

> <U>
45.174

> <W>
-60.765

> <W(PB)>
-62.518

> <W(SA)>
1.754

> <Valence>
1.161

> <Coulomb>
43.789

> <VdW>
0.224

> <VdW6>
-2.897

> <VdW12>
3.121

> <Bond>
0.100

> <Angle>
0.500

> <Pdih>
0.561

> <Idih>
0.000

> <Tether>
0.000

$$$$
VeraChem MOL file


 17 16  0  0  0  0  0  0  0  0999 V2000     
   18.8965   20.4972   21.3019 N   0  3  0  0  0  0  0  0  0  0  0  0
   18.7316   19.7843   20.5868 H   0  0  0  0  0  0  0  0  0  0  0  0
   19.5228   21.1964   20.8916 H   0  0  0  0  0  0  0  0  0  0  0  0
   18.0009   20.9652   21.4746 H   0  0  0  0  0  0  0  0  0  0  0  0
   19.4739   19.8986   22.5701 C   0  0  0  0  0  0  0  0  0  0  0  0
   18.7372   19.2138   22.9986 H   0  0  0  0  0  0  0  0  0  0  0  0
   19.6199   20.7218   23.2747 H   0  0  0  0  0  0  0  0  0  0  0  0
   20.8161   19.1635   22.3706 C   0  0  0  0  0  0  0  0  0  0  0  0
   21.4760   19.7557   21.7228 H   0  0  0  0  0  0  0  0  0  0  0  0
   21.3182   19.1126   23.3459 H   0  0  0  0  0  0  0  0  0  0  0  0
   20.6828   17.7179   21.8273 C   0  0  0  0  0  0  0  0  0  0  0  0
   20.0722   17.1186   22.5173 H   0  0  0  0  0  0  0  0  0  0  0  0
   21.6800   17.2559   21.8246 H   0  0  0  0  0  0  0  0  0  0  0  0
   20.0925   17.6229   20.4020 C   0  0  0  0  0  0  0  0  0  0  0  0
   19.0263   17.8773   20.3903 H   0  0  0  0  0  0  0  0  0  0  0  0
   20.1832   16.5976   20.0202 H   0  0  0  0  0  0  0  0  0  0  0  0
   20.6230   18.2855   19.7058 H   0  0  0  0  0  0  0  0  0  0  0  0
  1  2  1  0  0  0  0
  1  3  1  0  0  0  0
  1  4  1  0  0  0  0
  1  5  1  0  0  0  0
  5  6  1  0  0  0  0
  5  7  1  0  0  0  0
  5  8  1  0  0  0  0
  8  9  1  0  0  0  0
  8 10  1  0  0  0  0
  8 11  1  0  0  0  0
 11 12  1  0  0  0  0
 11 13  1  0  0  0  0
 11 14  1  0  0  0  0
 14 15  1  0  0  0  0
 14 16  1  0  0  0  0
 14 17  1  0  0  0  0
M  END
> <VConfSearch Rank>
159

> <Conf_Id>
19

> <Delta U+W>
2.662

> <U+W>
-13.203

> <U>
47.423

> <W>
-60.626

> <W(PB)>
-62.328

> <W(SA)>
1.702

> <Valence>
2.414

> <Coulomb>
44.831

> <VdW>
0.178

> <VdW6>
-3.743

> <VdW12>
3.921

> <Bond>
0.138

> <Angle>
0.941

> <Pdih>
1.335

> <Idih>
0.000

> <Tether>
0.000

$$$$
VeraChem MOL file


 17 16  0  0  0  0  0  0  0  0999 V2000     
   18.7033   20.3413   20.9435 N   0  3  0  0  0  0  0  0  0  0  0  0
   17.7989   20.8097   21.0596 H   0  0  0  0  0  0  0  0  0  0  0  0
   19.0560   20.6018   20.0177 H   0  0  0  0  0  0  0  0  0  0  0  0
   19.3427   20.7440   21.6334 H   0  0  0  0  0  0  0  0  0  0  0  0
   18.5838   18.8374   21.0982 C   0  0  0  0  0  0  0  0  0  0  0  0
   17.8895   18.4908   20.3279 H   0  0  0  0  0  0  0  0  0  0  0  0
   18.1404   18.6220   22.0741 H   0  0  0  0  0  0  0  0  0  0  0  0
   19.9183   18.0764   20.9515 C   0  0  0  0  0  0  0  0  0  0  0  0
   19.6834   17.0338   20.6994 H   0  0  0  0  0  0  0  0  0  0  0  0
   20.4845   18.4723   20.0979 H   0  0  0  0  0  0  0  0  0  0  0  0
   20.7990   18.0715   22.2270 C   0  0  0  0  0  0  0  0  0  0  0  0
   21.6655   17.4198   22.0467 H   0  0  0  0  0  0  0  0  0  0  0  0
   20.2433   17.6149   23.0581 H   0  0  0  0  0  0  0  0  0  0  0  0
   21.3121   19.4653   22.6547 C   0  0  0  0  0  0  0  0  0  0  0  0
   21.7906   19.9884   21.8165 H   0  0  0  0  0  0  0  0  0  0  0  0
   22.0573   19.3674   23.4549 H   0  0  0  0  0  0  0  0  0  0  0  0
   20.5007   20.0902   23.0455 H   0  0  0  0  0  0  0  0  0  0  0  0
  1  2  1  0  0  0  0
  1  3  1  0  0  0  0
  1  4  1  0  0  0  0
  1  5  1  0  0  0  0
  5  6  1  0  0  0  0
  5  7  1  0  0  0  0
  5  8  1  0  0  0  0
  8  9  1  0  0  0  0
  8 10  1  0  0  0  0
  8 11  1  0  0  0  0
 11 12  1  0  0  0  0
 11 13  1  0  0  0  0
 11 14  1  0  0  0  0
 14 15  1  0  0  0  0
 14 16  1  0  0  0  0
 14 17  1  0  0  0  0
M  END
> <VConfSearch Rank>
160

> <Conf_Id>
44

> <Delta U+W>
2.712

> <U+W>
-13.153

> <U>
47.423

> <W>
-60.576

> <W(PB)>
-62.262

> <W(SA)>
1.687

> <Valence>
2.414

> <Coulomb>
44.831

> <VdW>
0.178

> <VdW6>
-3.743

> <VdW12>
3.922

> <Bond>
0.138

> <Angle>
0.941

> <Pdih>
1.335

> <Idih>
0.000

> <Tether>
0.000

$$$$
VeraChem MOL file


 17 16  0  0  0  0  0  0  0  0999 V2000     
   21.1638   19.9347   20.3370 N   0  3  0  0  0  0  0  0  0  0  0  0
   20.6151   19.2631   19.7927 H   0  0  0  0  0  0  0  0  0  0  0  0
   22.1133   19.5579   20.4143 H   0  0  0  0  0  0  0  0  0  0  0  0
   21.2282   20.7914   19.7780 H   0  0  0  0  0  0  0  0  0  0  0  0
   20.5455   20.1939   21.6973 C   0  0  0  0  0  0  0  0  0  0  0  0
   19.5509   20.6202   21.5424 H   0  0  0  0  0  0  0  0  0  0  0  0
   21.1590   20.9434   22.2046 H   0  0  0  0  0  0  0  0  0  0  0  0
   20.4400   18.9355   22.5834 C   0  0  0  0  0  0  0  0  0  0  0  0
   21.4471   18.5384   22.7668 H   0  0  0  0  0  0  0  0  0  0  0  0
   20.0439   19.2291   23.5646 H   0  0  0  0  0  0  0  0  0  0  0  0
   19.5475   17.8184   21.9876 C   0  0  0  0  0  0  0  0  0  0  0  0
   19.5444   16.9626   22.6771 H   0  0  0  0  0  0  0  0  0  0  0  0
   19.9813   17.4492   21.0484 H   0  0  0  0  0  0  0  0  0  0  0  0
   18.0900   18.2728   21.7446 C   0  0  0  0  0  0  0  0  0  0  0  0
   17.6334   18.6458   22.6706 H   0  0  0  0  0  0  0  0  0  0  0  0
   17.4800   17.4340   21.3850 H   0  0  0  0  0  0  0  0  0  0  0  0
   18.0352   19.0685   20.9911 H   0  0  0  0  0  0  0  0  0  0  0  0
  1  2  1  0  0  0  0
  1  3  1  0  0  0  0
  1  4  1  0  0  0  0
  1  5  1  0  0  0  0
  5  6  1  0  0  0  0
  5  7  1  0  0  0  0
  5  8  1  0  0  0  0
  8  9  1  0  0  0  0
  8 10  1  0  0  0  0
  8 11  1  0  0  0  0
 11 12  1  0  0  0  0
 11 13  1  0  0  0  0
 11 14  1  0  0  0  0
 14 15  1  0  0  0  0
 14 16  1  0  0  0  0
 14 17  1  0  0  0  0
M  END
> <VConfSearch Rank>
161

> <Conf_Id>
1

> <Delta U+W>
0.685

> <U+W>
-15.179

> <U>
45.697

> <W>
-60.876

> <W(PB)>
-62.586

> <W(SA)>
1.710

> <Valence>
1.263

> <Coulomb>
44.179

> <VdW>
0.255

> <VdW6>
-3.552

> <VdW12>
3.807

> <Bond>
0.125

> <Angle>
0.616

> <Pdih>
0.521

> <Idih>
0.000

> <Tether>
0.000

$$$$
VeraChem MOL file


 17 16  0  0  0  0  0  0  0  0999 V2000     
   19.0666   20.3656   20.4063 N   0  3  0  0  0  0  0  0  0  0  0  0
   18.4230   20.9724   20.9230 H   0  0  0  0  0  0  0  0  0  0  0  0
   18.5863   19.4740   20.2550 H   0  0  0  0  0  0  0  0  0  0  0  0
   19.2025   20.7924   19.4843 H   0  0  0  0  0  0  0  0  0  0  0  0
   20.3803   20.1786   21.1404 C   0  0  0  0  0  0  0  0  0  0  0  0
   20.8528   21.1603   21.2328 H   0  0  0  0  0  0  0  0  0  0  0  0
   21.0272   19.5492   20.5238 H   0  0  0  0  0  0  0  0  0  0  0  0
   20.2270   19.5518   22.5417 C   0  0  0  0  0  0  0  0  0  0  0  0
   21.2147   19.5149   23.0200 H   0  0  0  0  0  0  0  0  0  0  0  0
   19.6096   20.2113   23.1659 H   0  0  0  0  0  0  0  0  0  0  0  0
   19.6124   18.1299   22.5320 C   0  0  0  0  0  0  0  0  0  0  0  0
   18.5868   18.1645   22.1402 H   0  0  0  0  0  0  0  0  0  0  0  0
   19.5292   17.7734   23.5683 H   0  0  0  0  0  0  0  0  0  0  0  0
   20.4469   17.1152   21.7173 C   0  0  0  0  0  0  0  0  0  0  0  0
   20.0113   16.1104   21.7920 H   0  0  0  0  0  0  0  0  0  0  0  0
   21.4777   17.0616   22.0912 H   0  0  0  0  0  0  0  0  0  0  0  0
   20.4818   17.3824   20.6537 H   0  0  0  0  0  0  0  0  0  0  0  0
  1  2  1  0  0  0  0
  1  3  1  0  0  0  0
  1  4  1  0  0  0  0
  1  5  1  0  0  0  0
  5  6  1  0  0  0  0
  5  7  1  0  0  0  0
  5  8  1  0  0  0  0
  8  9  1  0  0  0  0
  8 10  1  0  0  0  0
  8 11  1  0  0  0  0
 11 12  1  0  0  0  0
 11 13  1  0  0  0  0
 11 14  1  0  0  0  0
 14 15  1  0  0  0  0
 14 16  1  0  0  0  0
 14 17  1  0  0  0  0
M  END
> <VConfSearch Rank>
162

> <Conf_Id>
43

> <Delta U+W>
0.642

> <U+W>
-15.222

> <U>
45.697

> <W>
-60.919

> <W(PB)>
-62.631

> <W(SA)>
1.712

> <Valence>
1.262

> <Coulomb>
44.179

> <VdW>
0.255

> <VdW6>
-3.552

> <VdW12>
3.807

> <Bond>
0.125

> <Angle>
0.616

> <Pdih>
0.521

> <Idih>
0.000

> <Tether>
0.000

$$$$
VeraChem MOL file


 17 16  0  0  0  0  0  0  0  0999 V2000     
   21.8010   18.3870   23.2551 N   0  3  0  0  0  0  0  0  0  0  0  0
   21.1986   17.9317   23.9476 H   0  0  0  0  0  0  0  0  0  0  0  0
   22.0108   19.3251   23.6094 H   0  0  0  0  0  0  0  0  0  0  0  0
   22.6856   17.8691   23.2458 H   0  0  0  0  0  0  0  0  0  0  0  0
   21.1580   18.4288   21.8831 C   0  0  0  0  0  0  0  0  0  0  0  0
   20.9918   17.3986   21.5567 H   0  0  0  0  0  0  0  0  0  0  0  0
   21.8652   18.8969   21.1930 H   0  0  0  0  0  0  0  0  0  0  0  0
   19.8257   19.2000   21.8608 C   0  0  0  0  0  0  0  0  0  0  0  0
   19.1233   18.7364   22.5663 H   0  0  0  0  0  0  0  0  0  0  0  0
   19.9938   20.2296   22.2037 H   0  0  0  0  0  0  0  0  0  0  0  0
   19.2050   19.2184   20.4466 C   0  0  0  0  0  0  0  0  0  0  0  0
   19.0396   18.1880   20.1013 H   0  0  0  0  0  0  0  0  0  0  0  0
   19.9089   19.6794   19.7392 H   0  0  0  0  0  0  0  0  0  0  0  0
   17.8681   19.9903   20.4164 C   0  0  0  0  0  0  0  0  0  0  0  0
   17.4439   19.9917   19.4039 H   0  0  0  0  0  0  0  0  0  0  0  0
   18.0077   21.0349   20.7239 H   0  0  0  0  0  0  0  0  0  0  0  0
   17.1315   19.5317   21.0889 H   0  0  0  0  0  0  0  0  0  0  0  0
  1  2  1  0  0  0  0
  1  3  1  0  0  0  0
  1  4  1  0  0  0  0
  1  5  1  0  0  0  0
  5  6  1  0  0  0  0
  5  7  1  0  0  0  0
  5  8  1  0  0  0  0
  8  9  1  0  0  0  0
  8 10  1  0  0  0  0
  8 11  1  0  0  0  0
 11 12  1  0  0  0  0
 11 13  1  0  0  0  0
 11 14  1  0  0  0  0
 14 15  1  0  0  0  0
 14 16  1  0  0  0  0
 14 17  1  0  0  0  0
M  END
> <VConfSearch Rank>
163

> <Conf_Id>
7

> <Delta U+W>
0.000

> <U+W>
-15.865

> <U>
44.664

> <W>
-60.529

> <W(PB)>
-62.309

> <W(SA)>
1.780

> <Valence>
0.872

> <Coulomb>
43.648

> <VdW>
0.144

> <VdW6>
-2.370

> <VdW12>
2.515

> <Bond>
0.080

> <Angle>
0.376

> <Pdih>
0.416

> <Idih>
0.000

> <Tether>
0.000

$$$$
VeraChem MOL file


 17 16  0  0  0  0  0  0  0  0999 V2000     
   18.4912   18.8294   19.6992 N   0  3  0  0  0  0  0  0  0  0  0  0
   17.7238   19.5048   19.7669 H   0  0  0  0  0  0  0  0  0  0  0  0
   18.1057   17.9111   19.9394 H   0  0  0  0  0  0  0  0  0  0  0  0
   18.7629   18.7878   18.7116 H   0  0  0  0  0  0  0  0  0  0  0  0
   19.6588   19.2054   20.5896 C   0  0  0  0  0  0  0  0  0  0  0  0
   20.0370   20.1765   20.2590 H   0  0  0  0  0  0  0  0  0  0  0  0
   20.4466   18.4622   20.4420 H   0  0  0  0  0  0  0  0  0  0  0  0
   19.2848   19.2768   22.0826 C   0  0  0  0  0  0  0  0  0  0  0  0
   18.4658   19.9964   22.2143 H   0  0  0  0  0  0  0  0  0  0  0  0
   18.9034   18.3019   22.4142 H   0  0  0  0  0  0  0  0  0  0  0  0
   20.4745   19.6995   22.9759 C   0  0  0  0  0  0  0  0  0  0  0  0
   20.1222   19.8088   24.0113 H   0  0  0  0  0  0  0  0  0  0  0  0
   20.8362   20.6902   22.6666 H   0  0  0  0  0  0  0  0  0  0  0  0
   21.6427   18.6873   22.9451 C   0  0  0  0  0  0  0  0  0  0  0  0
   21.3061   17.6863   23.2447 H   0  0  0  0  0  0  0  0  0  0  0  0
   22.4367   18.9948   23.6380 H   0  0  0  0  0  0  0  0  0  0  0  0
   22.0870   18.6144   21.9445 H   0  0  0  0  0  0  0  0  0  0  0  0
  1  2  1  0  0  0  0
  1  3  1  0  0  0  0
  1  4  1  0  0  0  0
  1  5  1  0  0  0  0
  5  6  1  0  0  0  0
  5  7  1  0  0  0  0
  5  8  1  0  0  0  0
  8  9  1  0  0  0  0
  8 10  1  0  0  0  0
  8 11  1  0  0  0  0
 11 12  1  0  0  0  0
 11 13  1  0  0  0  0
 11 14  1  0  0  0  0
 14 15  1  0  0  0  0
 14 16  1  0  0  0  0
 14 17  1  0  0  0  0
M  END
> <VConfSearch Rank>
164

> <Conf_Id>
36

> <Delta U+W>
0.275

> <U+W>
-15.590

> <U>
45.174

> <W>
-60.765

> <W(PB)>
-62.518

> <W(SA)>
1.754

> <Valence>
1.161

> <Coulomb>
43.789

> <VdW>
0.224

> <VdW6>
-2.897

> <VdW12>
3.121

> <Bond>
0.100

> <Angle>
0.500

> <Pdih>
0.561

> <Idih>
0.000

> <Tether>
0.000

$$$$
VeraChem MOL file


 17 16  0  0  0  0  0  0  0  0999 V2000     
   19.2554   20.4802   22.4733 N   0  3  0  0  0  0  0  0  0  0  0  0
   20.0859   20.1195   22.9496 H   0  0  0  0  0  0  0  0  0  0  0  0
   18.4399   20.1521   22.9994 H   0  0  0  0  0  0  0  0  0  0  0  0
   19.2753   21.5012   22.5619 H   0  0  0  0  0  0  0  0  0  0  0  0
   19.2040   20.0408   21.0226 C   0  0  0  0  0  0  0  0  0  0  0  0
   20.0589   20.4746   20.4970 H   0  0  0  0  0  0  0  0  0  0  0  0
   18.2924   20.4644   20.5923 H   0  0  0  0  0  0  0  0  0  0  0  0
   19.1900   18.5105   20.8233 C   0  0  0  0  0  0  0  0  0  0  0  0
   18.4971   18.0452   21.5368 H   0  0  0  0  0  0  0  0  0  0  0  0
   18.7776   18.3064   19.8263 H   0  0  0  0  0  0  0  0  0  0  0  0
   20.5841   17.8384   20.9090 C   0  0  0  0  0  0  0  0  0  0  0  0
   21.2495   18.2691   20.1475 H   0  0  0  0  0  0  0  0  0  0  0  0
   20.4727   16.7762   20.6494 H   0  0  0  0  0  0  0  0  0  0  0  0
   21.2573   17.9379   22.2968 C   0  0  0  0  0  0  0  0  0  0  0  0
   21.5805   18.9624   22.5147 H   0  0  0  0  0  0  0  0  0  0  0  0
   22.1524   17.3033   22.3318 H   0  0  0  0  0  0  0  0  0  0  0  0
   20.5802   17.6026   23.0932 H   0  0  0  0  0  0  0  0  0  0  0  0
  1  2  1  0  0  0  0
  1  3  1  0  0  0  0
  1  4  1  0  0  0  0
  1  5  1  0  0  0  0
  5  6  1  0  0  0  0
  5  7  1  0  0  0  0
  5  8  1  0  0  0  0
  8  9  1  0  0  0  0
  8 10  1  0  0  0  0
  8 11  1  0  0  0  0
 11 12  1  0  0  0  0
 11 13  1  0  0  0  0
 11 14  1  0  0  0  0
 14 15  1  0  0  0  0
 14 16  1  0  0  0  0
 14 17  1  0  0  0  0
M  END
> <VConfSearch Rank>
165

> <Conf_Id>
19

> <Delta U+W>
2.662

> <U+W>
-13.203

> <U>
47.423

> <W>
-60.626

> <W(PB)>
-62.328

> <W(SA)>
1.702

> <Valence>
2.414

> <Coulomb>
44.831

> <VdW>
0.178

> <VdW6>
-3.743

> <VdW12>
3.921

> <Bond>
0.138

> <Angle>
0.941

> <Pdih>
1.335

> <Idih>
0.000

> <Tether>
0.000

$$$$
VeraChem MOL file


 17 16  0  0  0  0  0  0  0  0999 V2000     
   20.5142   17.5072   20.8019 N   0  3  0  0  0  0  0  0  0  0  0  0
   20.9271   17.0843   19.9644 H   0  0  0  0  0  0  0  0  0  0  0  0
   20.2217   16.7368   21.4104 H   0  0  0  0  0  0  0  0  0  0  0  0
   21.2630   18.0070   21.2882 H   0  0  0  0  0  0  0  0  0  0  0  0
   19.3566   18.4248   20.4584 C   0  0  0  0  0  0  0  0  0  0  0  0
   18.6063   17.8154   19.9473 H   0  0  0  0  0  0  0  0  0  0  0  0
   19.7108   19.1840   19.7559 H   0  0  0  0  0  0  0  0  0  0  0  0
   18.7038   19.1068   21.6792 C   0  0  0  0  0  0  0  0  0  0  0  0
   17.6919   19.4180   21.3876 H   0  0  0  0  0  0  0  0  0  0  0  0
   18.5727   18.3787   22.4907 H   0  0  0  0  0  0  0  0  0  0  0  0
   19.4574   20.3592   22.1951 C   0  0  0  0  0  0  0  0  0  0  0  0
   18.8556   20.8223   22.9897 H   0  0  0  0  0  0  0  0  0  0  0  0
   19.5262   21.1061   21.3917 H   0  0  0  0  0  0  0  0  0  0  0  0
   20.8699   20.0706   22.7524 C   0  0  0  0  0  0  0  0  0  0  0  0
   20.8486   19.2595   23.4918 H   0  0  0  0  0  0  0  0  0  0  0  0
   21.2727   20.9631   23.2487 H   0  0  0  0  0  0  0  0  0  0  0  0
   21.5708   19.8030   21.9531 H   0  0  0  0  0  0  0  0  0  0  0  0
  1  2  1  0  0  0  0
  1  3  1  0  0  0  0
  1  4  1  0  0  0  0
  1  5  1  0  0  0  0
  5  6  1  0  0  0  0
  5  7  1  0  0  0  0
  5  8  1  0  0  0  0
  8  9  1  0  0  0  0
  8 10  1  0  0  0  0
  8 11  1  0  0  0  0
 11 12  1  0  0  0  0
 11 13  1  0  0  0  0
 11 14  1  0  0  0  0
 14 15  1  0  0  0  0
 14 16  1  0  0  0  0
 14 17  1  0  0  0  0
M  END
> <VConfSearch Rank>
166

> <Conf_Id>
44

> <Delta U+W>
2.712

> <U+W>
-13.153

> <U>
47.423

> <W>
-60.576

> <W(PB)>
-62.262

> <W(SA)>
1.687

> <Valence>
2.414

> <Coulomb>
44.831

> <VdW>
0.178

> <VdW6>
-3.743

> <VdW12>
3.922

> <Bond>
0.138

> <Angle>
0.941

> <Pdih>
1.335

> <Idih>
0.000

> <Tether>
0.000

$$$$
VeraChem MOL file


 17 16  0  0  0  0  0  0  0  0999 V2000     
   19.1414   20.8560   21.7966 N   0  3  0  0  0  0  0  0  0  0  0  0
   18.3731   20.1872   21.9001 H   0  0  0  0  0  0  0  0  0  0  0  0
   19.0230   21.3152   20.8886 H   0  0  0  0  0  0  0  0  0  0  0  0
   19.0096   21.5764   22.5138 H   0  0  0  0  0  0  0  0  0  0  0  0
   20.4940   20.1810   21.9172 C   0  0  0  0  0  0  0  0  0  0  0  0
   20.5654   19.7394   22.9146 H   0  0  0  0  0  0  0  0  0  0  0  0
   21.2613   20.9557   21.8351 H   0  0  0  0  0  0  0  0  0  0  0  0
   20.7464   19.0969   20.8490 C   0  0  0  0  0  0  0  0  0  0  0  0
   20.7131   19.5578   19.8529 H   0  0  0  0  0  0  0  0  0  0  0  0
   21.7673   18.7120   20.9737 H   0  0  0  0  0  0  0  0  0  0  0  0
   19.7465   17.9150   20.9023 C   0  0  0  0  0  0  0  0  0  0  0  0
   19.9945   17.2053   20.1006 H   0  0  0  0  0  0  0  0  0  0  0  0
   18.7296   18.2709   20.6880 H   0  0  0  0  0  0  0  0  0  0  0  0
   19.7625   17.1690   22.2562 C   0  0  0  0  0  0  0  0  0  0  0  0
   20.7697   16.8020   22.4926 H   0  0  0  0  0  0  0  0  0  0  0  0
   19.0892   16.3025   22.2263 H   0  0  0  0  0  0  0  0  0  0  0  0
   19.4321   17.8164   23.0781 H   0  0  0  0  0  0  0  0  0  0  0  0
  1  2  1  0  0  0  0
  1  3  1  0  0  0  0
  1  4  1  0  0  0  0
  1  5  1  0  0  0  0
  5  6  1  0  0  0  0
  5  7  1  0  0  0  0
  5  8  1  0  0  0  0
  8  9  1  0  0  0  0
  8 10  1  0  0  0  0
  8 11  1  0  0  0  0
 11 12  1  0  0  0  0
 11 13  1  0  0  0  0
 11 14  1  0  0  0  0
 14 15  1  0  0  0  0
 14 16  1  0  0  0  0
 14 17  1  0  0  0  0
M  END
> <VConfSearch Rank>
167

> <Conf_Id>
1

> <Delta U+W>
0.685

> <U+W>
-15.179

> <U>
45.697

> <W>
-60.876

> <W(PB)>
-62.586

> <W(SA)>
1.710

> <Valence>
1.263

> <Coulomb>
44.179

> <VdW>
0.255

> <VdW6>
-3.552

> <VdW12>
3.807

> <Bond>
0.125

> <Angle>
0.616

> <Pdih>
0.521

> <Idih>
0.000

> <Tether>
0.000

$$$$
VeraChem MOL file


 17 16  0  0  0  0  0  0  0  0999 V2000     
   21.4028   19.3029   22.8988 N   0  3  0  0  0  0  0  0  0  0  0  0
   22.2444   18.7868   22.6254 H   0  0  0  0  0  0  0  0  0  0  0  0
   20.7559   18.6278   23.3160 H   0  0  0  0  0  0  0  0  0  0  0  0
   21.6799   19.9511   23.6430 H   0  0  0  0  0  0  0  0  0  0  0  0
   20.7770   20.0283   21.7232 C   0  0  0  0  0  0  0  0  0  0  0  0
   21.5059   20.7549   21.3539 H   0  0  0  0  0  0  0  0  0  0  0  0
   19.9064   20.5790   22.0885 H   0  0  0  0  0  0  0  0  0  0  0  0
   20.3557   19.0957   20.5687 C   0  0  0  0  0  0  0  0  0  0  0  0
   19.9756   19.7100   19.7418 H   0  0  0  0  0  0  0  0  0  0  0  0
   21.2432   18.5777   20.1817 H   0  0  0  0  0  0  0  0  0  0  0  0
   19.2818   18.0511   20.9626 C   0  0  0  0  0  0  0  0  0  0  0  0
   19.6804   17.3692   21.7260 H   0  0  0  0  0  0  0  0  0  0  0  0
   19.0572   17.4269   20.0863 H   0  0  0  0  0  0  0  0  0  0  0  0
   17.9707   18.6929   21.4713 C   0  0  0  0  0  0  0  0  0  0  0  0
   17.2180   17.9205   21.6759 H   0  0  0  0  0  0  0  0  0  0  0  0
   17.5514   19.3791   20.7240 H   0  0  0  0  0  0  0  0  0  0  0  0
   18.1297   19.2542   22.4006 H   0  0  0  0  0  0  0  0  0  0  0  0
  1  2  1  0  0  0  0
  1  3  1  0  0  0  0
  1  4  1  0  0  0  0
  1  5  1  0  0  0  0
  5  6  1  0  0  0  0
  5  7  1  0  0  0  0
  5  8  1  0  0  0  0
  8  9  1  0  0  0  0
  8 10  1  0  0  0  0
  8 11  1  0  0  0  0
 11 12  1  0  0  0  0
 11 13  1  0  0  0  0
 11 14  1  0  0  0  0
 14 15  1  0  0  0  0
 14 16  1  0  0  0  0
 14 17  1  0  0  0  0
M  END
> <VConfSearch Rank>
168

> <Conf_Id>
43

> <Delta U+W>
0.642

> <U+W>
-15.222

> <U>
45.697

> <W>
-60.919

> <W(PB)>
-62.631

> <W(SA)>
1.712

> <Valence>
1.262

> <Coulomb>
44.179

> <VdW>
0.255

> <VdW6>
-3.552

> <VdW12>
3.807

> <Bond>
0.125

> <Angle>
0.616

> <Pdih>
0.521

> <Idih>
0.000

> <Tether>
0.000

$$$$
VeraChem MOL file


 17 16  0  0  0  0  0  0  0  0999 V2000     
   19.7759   17.3740   19.6765 N   0  3  0  0  0  0  0  0  0  0  0  0
   20.7285   17.4826   19.3154 H   0  0  0  0  0  0  0  0  0  0  0  0
   19.1605   17.9274   19.0727 H   0  0  0  0  0  0  0  0  0  0  0  0
   19.5180   16.3911   19.5411 H   0  0  0  0  0  0  0  0  0  0  0  0
   19.6688   17.7896   21.1302 C   0  0  0  0  0  0  0  0  0  0  0  0
   20.3250   17.1404   21.7162 H   0  0  0  0  0  0  0  0  0  0  0  0
   18.6388   17.6186   21.4551 H   0  0  0  0  0  0  0  0  0  0  0  0
   20.0493   19.2620   21.3699 C   0  0  0  0  0  0  0  0  0  0  0  0
   21.0788   19.4335   21.0282 H   0  0  0  0  0  0  0  0  0  0  0  0
   19.3983   19.9102   20.7682 H   0  0  0  0  0  0  0  0  0  0  0  0
   19.9268   19.6436   22.8615 C   0  0  0  0  0  0  0  0  0  0  0  0
   20.5757   18.9929   23.4647 H   0  0  0  0  0  0  0  0  0  0  0  0
   18.8973   19.4691   23.2050 H   0  0  0  0  0  0  0  0  0  0  0  0
   20.3070   21.1193   23.1096 C   0  0  0  0  0  0  0  0  0  0  0  0
   20.2135   21.3702   24.1742 H   0  0  0  0  0  0  0  0  0  0  0  0
   19.6522   21.7965   22.5458 H   0  0  0  0  0  0  0  0  0  0  0  0
   21.3439   21.3166   22.8075 H   0  0  0  0  0  0  0  0  0  0  0  0
  1  2  1  0  0  0  0
  1  3  1  0  0  0  0
  1  4  1  0  0  0  0
  1  5  1  0  0  0  0
  5  6  1  0  0  0  0
  5  7  1  0  0  0  0
  5  8  1  0  0  0  0
  8  9  1  0  0  0  0
  8 10  1  0  0  0  0
  8 11  1  0  0  0  0
 11 12  1  0  0  0  0
 11 13  1  0  0  0  0
 11 14  1  0  0  0  0
 14 15  1  0  0  0  0
 14 16  1  0  0  0  0
 14 17  1  0  0  0  0
M  END
> <VConfSearch Rank>
169

> <Conf_Id>
7

> <Delta U+W>
0.000

> <U+W>
-15.865

> <U>
44.664

> <W>
-60.529

> <W(PB)>
-62.309

> <W(SA)>
1.780

> <Valence>
0.872

> <Coulomb>
43.648

> <VdW>
0.144

> <VdW6>
-2.370

> <VdW12>
2.515

> <Bond>
0.080

> <Angle>
0.376

> <Pdih>
0.416

> <Idih>
0.000

> <Tether>
0.000

$$$$
VeraChem MOL file


 17 16  0  0  0  0  0  0  0  0999 V2000     
   20.2141   21.0189   23.0518 N   0  3  0  0  0  0  0  0  0  0  0  0
   20.6196   21.7814   22.5005 H   0  0  0  0  0  0  0  0  0  0  0  0
   20.9625   20.6437   23.6423 H   0  0  0  0  0  0  0  0  0  0  0  0
   19.5243   21.4424   23.6808 H   0  0  0  0  0  0  0  0  0  0  0  0
   19.5945   19.9503   22.1733 C   0  0  0  0  0  0  0  0  0  0  0  0
   18.7886   20.4123   21.5966 H   0  0  0  0  0  0  0  0  0  0  0  0
   19.1571   19.1907   22.8263 H   0  0  0  0  0  0  0  0  0  0  0  0
   20.6052   19.2920   21.2145 C   0  0  0  0  0  0  0  0  0  0  0  0
   21.0678   20.0684   20.5908 H   0  0  0  0  0  0  0  0  0  0  0  0
   21.4154   18.8295   21.7936 H   0  0  0  0  0  0  0  0  0  0  0  0
   19.9530   18.2316   20.2967 C   0  0  0  0  0  0  0  0  0  0  0  0
   20.7066   17.8614   19.5875 H   0  0  0  0  0  0  0  0  0  0  0  0
   19.1638   18.7002   19.6920 H   0  0  0  0  0  0  0  0  0  0  0  0
   19.3659   17.0344   21.0789 C   0  0  0  0  0  0  0  0  0  0  0  0
   20.1339   16.5513   21.6969 H   0  0  0  0  0  0  0  0  0  0  0  0
   18.9695   16.2798   20.3871 H   0  0  0  0  0  0  0  0  0  0  0  0
   18.5434   17.3456   21.7352 H   0  0  0  0  0  0  0  0  0  0  0  0
  1  2  1  0  0  0  0
  1  3  1  0  0  0  0
  1  4  1  0  0  0  0
  1  5  1  0  0  0  0
  5  6  1  0  0  0  0
  5  7  1  0  0  0  0
  5  8  1  0  0  0  0
  8  9  1  0  0  0  0
  8 10  1  0  0  0  0
  8 11  1  0  0  0  0
 11 12  1  0  0  0  0
 11 13  1  0  0  0  0
 11 14  1  0  0  0  0
 14 15  1  0  0  0  0
 14 16  1  0  0  0  0
 14 17  1  0  0  0  0
M  END
> <VConfSearch Rank>
170

> <Conf_Id>
36

> <Delta U+W>
0.275

> <U+W>
-15.590

> <U>
45.174

> <W>
-60.765

> <W(PB)>
-62.518

> <W(SA)>
1.754

> <Valence>
1.161

> <Coulomb>
43.789

> <VdW>
0.224

> <VdW6>
-2.897

> <VdW12>
3.121

> <Bond>
0.100

> <Angle>
0.500

> <Pdih>
0.561

> <Idih>
0.000

> <Tether>
0.000

$$$$
VeraChem MOL file


 17 16  0  0  0  0  0  0  0  0999 V2000     
   21.3393   17.8162   21.9493 N   0  3  0  0  0  0  0  0  0  0  0  0
   21.6853   18.7507   21.7174 H   0  0  0  0  0  0  0  0  0  0  0  0
   21.4416   17.2397   21.1087 H   0  0  0  0  0  0  0  0  0  0  0  0
   21.9715   17.4263   22.6559 H   0  0  0  0  0  0  0  0  0  0  0  0
   19.9034   17.8530   22.4360 C   0  0  0  0  0  0  0  0  0  0  0  0
   19.8663   18.4226   23.3685 H   0  0  0  0  0  0  0  0  0  0  0  0
   19.6144   16.8222   22.6581 H   0  0  0  0  0  0  0  0  0  0  0  0
   18.9045   18.4475   21.4208 C   0  0  0  0  0  0  0  0  0  0  0  0
   19.1079   18.0507   20.4174 H   0  0  0  0  0  0  0  0  0  0  0  0
   17.9016   18.0893   21.6887 H   0  0  0  0  0  0  0  0  0  0  0  0
   18.8647   19.9968   21.3901 C   0  0  0  0  0  0  0  0  0  0  0  0
   18.5981   20.3794   22.3853 H   0  0  0  0  0  0  0  0  0  0  0  0
   18.0535   20.3088   20.7174 H   0  0  0  0  0  0  0  0  0  0  0  0
   20.1783   20.6605   20.9180 C   0  0  0  0  0  0  0  0  0  0  0  0
   20.9738   20.5542   21.6647 H   0  0  0  0  0  0  0  0  0  0  0  0
   20.0258   21.7362   20.7606 H   0  0  0  0  0  0  0  0  0  0  0  0
   20.5232   20.2308   19.9685 H   0  0  0  0  0  0  0  0  0  0  0  0
  1  2  1  0  0  0  0
  1  3  1  0  0  0  0
  1  4  1  0  0  0  0
  1  5  1  0  0  0  0
  5  6  1  0  0  0  0
  5  7  1  0  0  0  0
  5  8  1  0  0  0  0
  8  9  1  0  0  0  0
  8 10  1  0  0  0  0
  8 11  1  0  0  0  0
 11 12  1  0  0  0  0
 11 13  1  0  0  0  0
 11 14  1  0  0  0  0
 14 15  1  0  0  0  0
 14 16  1  0  0  0  0
 14 17  1  0  0  0  0
M  END
> <VConfSearch Rank>
171

> <Conf_Id>
19

> <Delta U+W>
2.662

> <U+W>
-13.203

> <U>
47.423

> <W>
-60.626

> <W(PB)>
-62.328

> <W(SA)>
1.702

> <Valence>
2.414

> <Coulomb>
44.831

> <VdW>
0.178

> <VdW6>
-3.743

> <VdW12>
3.921

> <Bond>
0.138

> <Angle>
0.941

> <Pdih>
1.335

> <Idih>
0.000

> <Tether>
0.000

$$$$
VeraChem MOL file


 17 16  0  0  0  0  0  0  0  0999 V2000     
   18.0942   18.9859   21.0921 N   0  3  0  0  0  0  0  0  0  0  0  0
   17.3360   19.4326   20.5664 H   0  0  0  0  0  0  0  0  0  0  0  0
   17.6649   18.2596   21.6733 H   0  0  0  0  0  0  0  0  0  0  0  0
   18.6943   18.5117   20.4124 H   0  0  0  0  0  0  0  0  0  0  0  0
   18.8704   19.9882   21.9245 C   0  0  0  0  0  0  0  0  0  0  0  0
   18.1606   20.4439   22.6202 H   0  0  0  0  0  0  0  0  0  0  0  0
   19.2463   20.7732   21.2629 H   0  0  0  0  0  0  0  0  0  0  0  0
   20.0387   19.3772   22.7266 C   0  0  0  0  0  0  0  0  0  0  0  0
   20.2746   20.0640   23.5504 H   0  0  0  0  0  0  0  0  0  0  0  0
   19.7197   18.4387   23.1990 H   0  0  0  0  0  0  0  0  0  0  0  0
   21.3347   19.1545   21.9060 C   0  0  0  0  0  0  0  0  0  0  0  0
   22.1253   18.8193   22.5919 H   0  0  0  0  0  0  0  0  0  0  0  0
   21.6786   20.1125   21.4910 H   0  0  0  0  0  0  0  0  0  0  0  0
   21.1997   18.1187   20.7668 C   0  0  0  0  0  0  0  0  0  0  0  0
   20.7678   17.1780   21.1325 H   0  0  0  0  0  0  0  0  0  0  0  0
   22.1857   17.8894   20.3422 H   0  0  0  0  0  0  0  0  0  0  0  0
   20.5777   18.4995   19.9484 H   0  0  0  0  0  0  0  0  0  0  0  0
  1  2  1  0  0  0  0
  1  3  1  0  0  0  0
  1  4  1  0  0  0  0
  1  5  1  0  0  0  0
  5  6  1  0  0  0  0
  5  7  1  0  0  0  0
  5  8  1  0  0  0  0
  8  9  1  0  0  0  0
  8 10  1  0  0  0  0
  8 11  1  0  0  0  0
 11 12  1  0  0  0  0
 11 13  1  0  0  0  0
 11 14  1  0  0  0  0
 14 15  1  0  0  0  0
 14 16  1  0  0  0  0
 14 17  1  0  0  0  0
M  END
> <VConfSearch Rank>
172

> <Conf_Id>
44

> <Delta U+W>
2.712

> <U+W>
-13.153

> <U>
47.423

> <W>
-60.576

> <W(PB)>
-62.262

> <W(SA)>
1.687

> <Valence>
2.414

> <Coulomb>
44.831

> <VdW>
0.178

> <VdW6>
-3.743

> <VdW12>
3.922

> <Bond>
0.138

> <Angle>
0.941

> <Pdih>
1.335

> <Idih>
0.000

> <Tether>
0.000

$$$$
VeraChem MOL file


 17 16  0  0  0  0  0  0  0  0999 V2000     
   21.8007   19.6129   21.8718 N   0  3  0  0  0  0  0  0  0  0  0  0
   21.2334   20.0985   22.5723 H   0  0  0  0  0  0  0  0  0  0  0  0
   22.0858   20.3096   21.1770 H   0  0  0  0  0  0  0  0  0  0  0  0
   22.6539   19.2972   22.3442 H   0  0  0  0  0  0  0  0  0  0  0  0
   21.0464   18.4591   21.2395 C   0  0  0  0  0  0  0  0  0  0  0  0
   20.7997   17.7426   22.0272 H   0  0  0  0  0  0  0  0  0  0  0  0
   21.7213   17.9667   20.5342 H   0  0  0  0  0  0  0  0  0  0  0  0
   19.7599   18.8856   20.5026 C   0  0  0  0  0  0  0  0  0  0  0  0
   20.0225   19.5733   19.6878 H   0  0  0  0  0  0  0  0  0  0  0  0
   19.3188   18.0005   20.0253 H   0  0  0  0  0  0  0  0  0  0  0  0
   18.7016   19.5518   21.4167 C   0  0  0  0  0  0  0  0  0  0  0  0
   17.8326   19.8328   20.8053 H   0  0  0  0  0  0  0  0  0  0  0  0
   19.0967   20.4895   21.8306 H   0  0  0  0  0  0  0  0  0  0  0  0
   18.2303   18.6328   22.5670 C   0  0  0  0  0  0  0  0  0  0  0  0
   17.8294   17.6878   22.1780 H   0  0  0  0  0  0  0  0  0  0  0  0
   17.4360   19.1194   23.1477 H   0  0  0  0  0  0  0  0  0  0  0  0
   19.0495   18.3986   23.2583 H   0  0  0  0  0  0  0  0  0  0  0  0
  1  2  1  0  0  0  0
  1  3  1  0  0  0  0
  1  4  1  0  0  0  0
  1  5  1  0  0  0  0
  5  6  1  0  0  0  0
  5  7  1  0  0  0  0
  5  8  1  0  0  0  0
  8  9  1  0  0  0  0
  8 10  1  0  0  0  0
  8 11  1  0  0  0  0
 11 12  1  0  0  0  0
 11 13  1  0  0  0  0
 11 14  1  0  0  0  0
 14 15  1  0  0  0  0
 14 16  1  0  0  0  0
 14 17  1  0  0  0  0
M  END
> <VConfSearch Rank>
173

> <Conf_Id>
1

> <Delta U+W>
0.685

> <U+W>
-15.179

> <U>
45.697

> <W>
-60.876

> <W(PB)>
-62.586

> <W(SA)>
1.710

> <Valence>
1.263

> <Coulomb>
44.179

> <VdW>
0.255

> <VdW6>
-3.552

> <VdW12>
3.807

> <Bond>
0.125

> <Angle>
0.616

> <Pdih>
0.521

> <Idih>
0.000

> <Tether>
0.000

$$$$
VeraChem MOL file


 17 16  0  0  0  0  0  0  0  0999 V2000     
   19.4193   19.3019   19.6980 N   0  3  0  0  0  0  0  0  0  0  0  0
   19.1033   18.4292   19.2644 H   0  0  0  0  0  0  0  0  0  0  0  0
   20.4420   19.2684   19.7353 H   0  0  0  0  0  0  0  0  0  0  0  0
   19.1679   20.0609   19.0565 H   0  0  0  0  0  0  0  0  0  0  0  0
   18.8132   19.5021   21.0736 C   0  0  0  0  0  0  0  0  0  0  0  0
   17.7282   19.5657   20.9534 H   0  0  0  0  0  0  0  0  0  0  0  0
   19.1665   20.4599   21.4641 H   0  0  0  0  0  0  0  0  0  0  0  0
   19.1511   18.3763   22.0728 C   0  0  0  0  0  0  0  0  0  0  0  0
   18.6207   18.5715   23.0143 H   0  0  0  0  0  0  0  0  0  0  0  0
   18.7565   17.4253   21.6913 H   0  0  0  0  0  0  0  0  0  0  0  0
   20.6652   18.2252   22.3631 C   0  0  0  0  0  0  0  0  0  0  0  0
   21.1987   17.9389   21.4466 H   0  0  0  0  0  0  0  0  0  0  0  0
   20.8089   17.3953   23.0692 H   0  0  0  0  0  0  0  0  0  0  0  0
   21.2987   19.5045   22.9562 C   0  0  0  0  0  0  0  0  0  0  0  0
   22.3534   19.3315   23.2065 H   0  0  0  0  0  0  0  0  0  0  0  0
   20.7826   19.8107   23.8754 H   0  0  0  0  0  0  0  0  0  0  0  0
   21.2599   20.3407   22.2469 H   0  0  0  0  0  0  0  0  0  0  0  0
  1  2  1  0  0  0  0
  1  3  1  0  0  0  0
  1  4  1  0  0  0  0
  1  5  1  0  0  0  0
  5  6  1  0  0  0  0
  5  7  1  0  0  0  0
  5  8  1  0  0  0  0
  8  9  1  0  0  0  0
  8 10  1  0  0  0  0
  8 11  1  0  0  0  0
 11 12  1  0  0  0  0
 11 13  1  0  0  0  0
 11 14  1  0  0  0  0
 14 15  1  0  0  0  0
 14 16  1  0  0  0  0
 14 17  1  0  0  0  0
M  END
> <VConfSearch Rank>
174

> <Conf_Id>
43

> <Delta U+W>
0.642

> <U+W>
-15.222

> <U>
45.697

> <W>
-60.919

> <W(PB)>
-62.631

> <W(SA)>
1.712

> <Valence>
1.262

> <Coulomb>
44.179

> <VdW>
0.255

> <VdW6>
-3.552

> <VdW12>
3.807

> <Bond>
0.125

> <Angle>
0.616

> <Pdih>
0.521

> <Idih>
0.000

> <Tether>
0.000

$$$$
VeraChem MOL file


 17 16  0  0  0  0  0  0  0  0999 V2000     
   17.7568   18.4858   22.7936 N   0  3  0  0  0  0  0  0  0  0  0  0
   18.1651   18.0069   23.6021 H   0  0  0  0  0  0  0  0  0  0  0  0
   17.4395   17.7605   22.1432 H   0  0  0  0  0  0  0  0  0  0  0  0
   16.9180   18.9704   23.1289 H   0  0  0  0  0  0  0  0  0  0  0  0
   18.7380   19.4412   22.1442 C   0  0  0  0  0  0  0  0  0  0  0  0
   19.0079   20.2013   22.8824 H   0  0  0  0  0  0  0  0  0  0  0  0
   18.2277   19.9363   21.3136 H   0  0  0  0  0  0  0  0  0  0  0  0
   20.0111   18.7457   21.6285 C   0  0  0  0  0  0  0  0  0  0  0  0
   20.5126   18.2366   22.4623 H   0  0  0  0  0  0  0  0  0  0  0  0
   19.7350   17.9727   20.8989 H   0  0  0  0  0  0  0  0  0  0  0  0
   20.9825   19.7533   20.9753 C   0  0  0  0  0  0  0  0  0  0  0  0
   21.2566   20.5291   21.7041 H   0  0  0  0  0  0  0  0  0  0  0  0
   20.4800   20.2655   20.1425 H   0  0  0  0  0  0  0  0  0  0  0  0
   22.2620   19.0628   20.4556 C   0  0  0  0  0  0  0  0  0  0  0  0
   22.9383   19.7949   19.9956 H   0  0  0  0  0  0  0  0  0  0  0  0
   22.0224   18.3045   19.6987 H   0  0  0  0  0  0  0  0  0  0  0  0
   22.8051   18.5702   21.2726 H   0  0  0  0  0  0  0  0  0  0  0  0
  1  2  1  0  0  0  0
  1  3  1  0  0  0  0
  1  4  1  0  0  0  0
  1  5  1  0  0  0  0
  5  6  1  0  0  0  0
  5  7  1  0  0  0  0
  5  8  1  0  0  0  0
  8  9  1  0  0  0  0
  8 10  1  0  0  0  0
  8 11  1  0  0  0  0
 11 12  1  0  0  0  0
 11 13  1  0  0  0  0
 11 14  1  0  0  0  0
 14 15  1  0  0  0  0
 14 16  1  0  0  0  0
 14 17  1  0  0  0  0
M  END
> <VConfSearch Rank>
175

> <Conf_Id>
7

> <Delta U+W>
0.000

> <U+W>
-15.865

> <U>
44.664

> <W>
-60.529

> <W(PB)>
-62.309

> <W(SA)>
1.780

> <Valence>
0.872

> <Coulomb>
43.648

> <VdW>
0.144

> <VdW6>
-2.370

> <VdW12>
2.515

> <Bond>
0.080

> <Angle>
0.376

> <Pdih>
0.416

> <Idih>
0.000

> <Tether>
0.000

$$$$
VeraChem MOL file


 17 16  0  0  0  0  0  0  0  0999 V2000     
   18.6903   19.9468   19.7307 N   0  3  0  0  0  0  0  0  0  0  0  0
   18.7600   19.2730   18.9620 H   0  0  0  0  0  0  0  0  0  0  0  0
   19.3081   20.7309   19.5002 H   0  0  0  0  0  0  0  0  0  0  0  0
   17.7321   20.3111   19.7192 H   0  0  0  0  0  0  0  0  0  0  0  0
   19.0401   19.3223   21.0667 C   0  0  0  0  0  0  0  0  0  0  0  0
   18.3260   18.5175   21.2609 H   0  0  0  0  0  0  0  0  0  0  0  0
   18.9135   20.0865   21.8380 H   0  0  0  0  0  0  0  0  0  0  0  0
   20.4753   18.7643   21.1185 C   0  0  0  0  0  0  0  0  0  0  0  0
   20.6039   18.0272   20.3148 H   0  0  0  0  0  0  0  0  0  0  0  0
   21.1924   19.5724   20.9218 H   0  0  0  0  0  0  0  0  0  0  0  0
   20.8066   18.0952   22.4729 C   0  0  0  0  0  0  0  0  0  0  0  0
   21.8099   17.6500   22.4152 H   0  0  0  0  0  0  0  0  0  0  0  0
   20.1103   17.2645   22.6557 H   0  0  0  0  0  0  0  0  0  0  0  0
   20.7607   19.0823   23.6618 C   0  0  0  0  0  0  0  0  0  0  0  0
   21.4442   19.9262   23.5012 H   0  0  0  0  0  0  0  0  0  0  0  0
   21.0612   18.5803   24.5906 H   0  0  0  0  0  0  0  0  0  0  0  0
   19.7508   19.4832   23.8145 H   0  0  0  0  0  0  0  0  0  0  0  0
  1  2  1  0  0  0  0
  1  3  1  0  0  0  0
  1  4  1  0  0  0  0
  1  5  1  0  0  0  0
  5  6  1  0  0  0  0
  5  7  1  0  0  0  0
  5  8  1  0  0  0  0
  8  9  1  0  0  0  0
  8 10  1  0  0  0  0
  8 11  1  0  0  0  0
 11 12  1  0  0  0  0
 11 13  1  0  0  0  0
 11 14  1  0  0  0  0
 14 15  1  0  0  0  0
 14 16  1  0  0  0  0
 14 17  1  0  0  0  0
M  END
> <VConfSearch Rank>
176

> <Conf_Id>
36

> <Delta U+W>
0.275

> <U+W>
-15.590

> <U>
45.174

> <W>
-60.765

> <W(PB)>
-62.518

> <W(SA)>
1.754

> <Valence>
1.161

> <Coulomb>
43.789

> <VdW>
0.224

> <VdW6>
-2.897

> <VdW12>
3.121

> <Bond>
0.100

> <Angle>
0.500

> <Pdih>
0.561

> <Idih>
0.000

> <Tether>
0.000

$$$$
VeraChem MOL file


 17 16  0  0  0  0  0  0  0  0999 V2000     
   19.1899   20.6373   21.1862 N   0  3  0  0  0  0  0  0  0  0  0  0
   18.5228   19.8772   21.0312 H   0  0  0  0  0  0  0  0  0  0  0  0
   19.5685   20.8974   20.2705 H   0  0  0  0  0  0  0  0  0  0  0  0
   18.6562   21.4434   21.5271 H   0  0  0  0  0  0  0  0  0  0  0  0
   20.2852   20.2353   22.1552 C   0  0  0  0  0  0  0  0  0  0  0  0
   19.8317   20.0357   23.1298 H   0  0  0  0  0  0  0  0  0  0  0  0
   20.9498   21.0969   22.2619 H   0  0  0  0  0  0  0  0  0  0  0  0
   21.1139   19.0138   21.7048 C   0  0  0  0  0  0  0  0  0  0  0  0
   21.3631   19.1015   20.6390 H   0  0  0  0  0  0  0  0  0  0  0  0
   22.0715   19.0426   22.2413 H   0  0  0  0  0  0  0  0  0  0  0  0
   20.4478   17.6440   21.9918 C   0  0  0  0  0  0  0  0  0  0  0  0
   20.2611   17.5425   23.0702 H   0  0  0  0  0  0  0  0  0  0  0  0
   21.1622   16.8504   21.7313 H   0  0  0  0  0  0  0  0  0  0  0  0
   19.1338   17.3972   21.2163 C   0  0  0  0  0  0  0  0  0  0  0  0
   18.3210   18.0308   21.5899 H   0  0  0  0  0  0  0  0  0  0  0  0
   18.8110   16.3549   21.3365 H   0  0  0  0  0  0  0  0  0  0  0  0
   19.2638   17.5837   20.1422 H   0  0  0  0  0  0  0  0  0  0  0  0
  1  2  1  0  0  0  0
  1  3  1  0  0  0  0
  1  4  1  0  0  0  0
  1  5  1  0  0  0  0
  5  6  1  0  0  0  0
  5  7  1  0  0  0  0
  5  8  1  0  0  0  0
  8  9  1  0  0  0  0
  8 10  1  0  0  0  0
  8 11  1  0  0  0  0
 11 12  1  0  0  0  0
 11 13  1  0  0  0  0
 11 14  1  0  0  0  0
 14 15  1  0  0  0  0
 14 16  1  0  0  0  0
 14 17  1  0  0  0  0
M  END
> <VConfSearch Rank>
177

> <Conf_Id>
19

> <Delta U+W>
2.662

> <U+W>
-13.203

> <U>
47.423

> <W>
-60.626

> <W(PB)>
-62.328

> <W(SA)>
1.702

> <Valence>
2.414

> <Coulomb>
44.831

> <VdW>
0.178

> <VdW6>
-3.743

> <VdW12>
3.921

> <Bond>
0.138

> <Angle>
0.941

> <Pdih>
1.335

> <Idih>
0.000

> <Tether>
0.000

$$$$
VeraChem MOL file


 17 16  0  0  0  0  0  0  0  0999 V2000     
   18.8297   18.5773   20.1457 N   0  3  0  0  0  0  0  0  0  0  0  0
   17.9305   18.2002   19.8293 H   0  0  0  0  0  0  0  0  0  0  0  0
   19.4525   18.5820   19.3323 H   0  0  0  0  0  0  0  0  0  0  0  0
   18.6718   19.5531   20.4095 H   0  0  0  0  0  0  0  0  0  0  0  0
   19.4072   17.7710   21.2931 C   0  0  0  0  0  0  0  0  0  0  0  0
   19.5456   16.7496   20.9283 H   0  0  0  0  0  0  0  0  0  0  0  0
   18.6737   17.7439   22.1033 H   0  0  0  0  0  0  0  0  0  0  0  0
   20.7549   18.3015   21.8260 C   0  0  0  0  0  0  0  0  0  0  0  0
   21.2544   17.4775   22.3528 H   0  0  0  0  0  0  0  0  0  0  0  0
   21.4127   18.5655   20.9874 H   0  0  0  0  0  0  0  0  0  0  0  0
   20.6327   19.4922   22.8110 C   0  0  0  0  0  0  0  0  0  0  0  0
   21.6330   19.7184   23.2061 H   0  0  0  0  0  0  0  0  0  0  0  0
   20.0243   19.1947   23.6766 H   0  0  0  0  0  0  0  0  0  0  0  0
   20.0469   20.7795   22.1877 C   0  0  0  0  0  0  0  0  0  0  0  0
   20.5748   21.0513   21.2644 H   0  0  0  0  0  0  0  0  0  0  0  0
   20.1456   21.6199   22.8872 H   0  0  0  0  0  0  0  0  0  0  0  0
   18.9791   20.6693   21.9659 H   0  0  0  0  0  0  0  0  0  0  0  0
  1  2  1  0  0  0  0
  1  3  1  0  0  0  0
  1  4  1  0  0  0  0
  1  5  1  0  0  0  0
  5  6  1  0  0  0  0
  5  7  1  0  0  0  0
  5  8  1  0  0  0  0
  8  9  1  0  0  0  0
  8 10  1  0  0  0  0
  8 11  1  0  0  0  0
 11 12  1  0  0  0  0
 11 13  1  0  0  0  0
 11 14  1  0  0  0  0
 14 15  1  0  0  0  0
 14 16  1  0  0  0  0
 14 17  1  0  0  0  0
M  END
> <VConfSearch Rank>
178

> <Conf_Id>
44

> <Delta U+W>
2.712

> <U+W>
-13.153

> <U>
47.423

> <W>
-60.576

> <W(PB)>
-62.262

> <W(SA)>
1.687

> <Valence>
2.414

> <Coulomb>
44.831

> <VdW>
0.178

> <VdW6>
-3.743

> <VdW12>
3.922

> <Bond>
0.138

> <Angle>
0.941

> <Pdih>
1.335

> <Idih>
0.000

> <Tether>
0.000

$$$$
VeraChem MOL file


 17 16  0  0  0  0  0  0  0  0999 V2000     
   21.3756   18.3155   20.4589 N   0  3  0  0  0  0  0  0  0  0  0  0
   21.4720   17.8817   21.3814 H   0  0  0  0  0  0  0  0  0  0  0  0
   22.1429   18.9867   20.3582 H   0  0  0  0  0  0  0  0  0  0  0  0
   21.5319   17.5784   19.7639 H   0  0  0  0  0  0  0  0  0  0  0  0
   20.0208   18.9748   20.2868 C   0  0  0  0  0  0  0  0  0  0  0  0
   19.2532   18.2017   20.3761 H   0  0  0  0  0  0  0  0  0  0  0  0
   19.9747   19.3811   19.2727 H   0  0  0  0  0  0  0  0  0  0  0  0
   19.7437   20.1028   21.3020 C   0  0  0  0  0  0  0  0  0  0  0  0
   20.4958   20.8931   21.1769 H   0  0  0  0  0  0  0  0  0  0  0  0
   18.7754   20.5616   21.0617 H   0  0  0  0  0  0  0  0  0  0  0  0
   19.7323   19.6331   22.7781 C   0  0  0  0  0  0  0  0  0  0  0  0
   19.5430   20.5017   23.4243 H   0  0  0  0  0  0  0  0  0  0  0  0
   20.7239   19.2549   23.0617 H   0  0  0  0  0  0  0  0  0  0  0  0
   18.6627   18.5536   23.0618 C   0  0  0  0  0  0  0  0  0  0  0  0
   17.6610   18.9089   22.7871 H   0  0  0  0  0  0  0  0  0  0  0  0
   18.6463   18.2991   24.1294 H   0  0  0  0  0  0  0  0  0  0  0  0
   18.8633   17.6300   22.5045 H   0  0  0  0  0  0  0  0  0  0  0  0
  1  2  1  0  0  0  0
  1  3  1  0  0  0  0
  1  4  1  0  0  0  0
  1  5  1  0  0  0  0
  5  6  1  0  0  0  0
  5  7  1  0  0  0  0
  5  8  1  0  0  0  0
  8  9  1  0  0  0  0
  8 10  1  0  0  0  0
  8 11  1  0  0  0  0
 11 12  1  0  0  0  0
 11 13  1  0  0  0  0
 11 14  1  0  0  0  0
 14 15  1  0  0  0  0
 14 16  1  0  0  0  0
 14 17  1  0  0  0  0
M  END
> <VConfSearch Rank>
179

> <Conf_Id>
1

> <Delta U+W>
0.685

> <U+W>
-15.179

> <U>
45.697

> <W>
-60.876

> <W(PB)>
-62.586

> <W(SA)>
1.710

> <Valence>
1.263

> <Coulomb>
44.179

> <VdW>
0.255

> <VdW6>
-3.552

> <VdW12>
3.807

> <Bond>
0.125

> <Angle>
0.616

> <Pdih>
0.521

> <Idih>
0.000

> <Tether>
0.000

$$$$
VeraChem MOL file


 17 16  0  0  0  0  0  0  0  0999 V2000     
   18.8274   17.6414   20.6985 N   0  3  0  0  0  0  0  0  0  0  0  0
   18.6325   16.8528   21.3226 H   0  0  0  0  0  0  0  0  0  0  0  0
   19.7880   17.5307   20.3617 H   0  0  0  0  0  0  0  0  0  0  0  0
   18.2115   17.5371   19.8858 H   0  0  0  0  0  0  0  0  0  0  0  0
   18.6253   18.9750   21.3918 C   0  0  0  0  0  0  0  0  0  0  0  0
   17.5752   19.0397   21.6894 H   0  0  0  0  0  0  0  0  0  0  0  0
   18.8200   19.7682   20.6654 H   0  0  0  0  0  0  0  0  0  0  0  0
   19.5209   19.1740   22.6321 C   0  0  0  0  0  0  0  0  0  0  0  0
   19.2613   20.1317   23.1026 H   0  0  0  0  0  0  0  0  0  0  0  0
   19.2891   18.3970   23.3725 H   0  0  0  0  0  0  0  0  0  0  0  0
   21.0387   19.1533   22.3231 C   0  0  0  0  0  0  0  0  0  0  0  0
   21.3318   18.1678   21.9364 H   0  0  0  0  0  0  0  0  0  0  0  0
   21.5928   19.2873   23.2627 H   0  0  0  0  0  0  0  0  0  0  0  0
   21.4686   20.2531   21.3254 C   0  0  0  0  0  0  0  0  0  0  0  0
   22.5575   20.2429   21.1869 H   0  0  0  0  0  0  0  0  0  0  0  0
   21.1870   21.2492   21.6908 H   0  0  0  0  0  0  0  0  0  0  0  0
   21.0084   20.1070   20.3401 H   0  0  0  0  0  0  0  0  0  0  0  0
  1  2  1  0  0  0  0
  1  3  1  0  0  0  0
  1  4  1  0  0  0  0
  1  5  1  0  0  0  0
  5  6  1  0  0  0  0
  5  7  1  0  0  0  0
  5  8  1  0  0  0  0
  8  9  1  0  0  0  0
  8 10  1  0  0  0  0
  8 11  1  0  0  0  0
 11 12  1  0  0  0  0
 11 13  1  0  0  0  0
 11 14  1  0  0  0  0
 14 15  1  0  0  0  0
 14 16  1  0  0  0  0
 14 17  1  0  0  0  0
M  END
> <VConfSearch Rank>
180

> <Conf_Id>
43

> <Delta U+W>
0.642

> <U+W>
-15.222

> <U>
45.697

> <W>
-60.919

> <W(PB)>
-62.631

> <W(SA)>
1.712

> <Valence>
1.262

> <Coulomb>
44.179

> <VdW>
0.255

> <VdW6>
-3.552

> <VdW12>
3.807

> <Bond>
0.125

> <Angle>
0.616

> <Pdih>
0.521

> <Idih>
0.000

> <Tether>
0.000

$$$$
VeraChem MOL file


 17 16  0  0  0  0  0  0  0  0999 V2000     
   20.6356   18.9965   19.1281 N   0  3  0  0  0  0  0  0  0  0  0  0
   21.4607   18.3982   19.2326 H   0  0  0  0  0  0  0  0  0  0  0  0
   20.9712   19.9619   19.0575 H   0  0  0  0  0  0  0  0  0  0  0  0
   20.2129   18.7629   18.2238 H   0  0  0  0  0  0  0  0  0  0  0  0
   19.6561   18.8179   20.2709 C   0  0  0  0  0  0  0  0  0  0  0  0
   19.3182   17.7780   20.2666 H   0  0  0  0  0  0  0  0  0  0  0  0
   18.7919   19.4595   20.0782 H   0  0  0  0  0  0  0  0  0  0  0  0
   20.2586   19.1605   21.6456 C   0  0  0  0  0  0  0  0  0  0  0  0
   21.1353   18.5250   21.8289 H   0  0  0  0  0  0  0  0  0  0  0  0
   20.6106   20.2008   21.6412 H   0  0  0  0  0  0  0  0  0  0  0  0
   19.2292   18.9653   22.7804 C   0  0  0  0  0  0  0  0  0  0  0  0
   18.8740   17.9251   22.7832 H   0  0  0  0  0  0  0  0  0  0  0  0
   18.3500   19.5988   22.5958 H   0  0  0  0  0  0  0  0  0  0  0  0
   19.8266   19.3071   24.1625 C   0  0  0  0  0  0  0  0  0  0  0  0
   19.0802   19.1620   24.9543 H   0  0  0  0  0  0  0  0  0  0  0  0
   20.1596   20.3525   24.2017 H   0  0  0  0  0  0  0  0  0  0  0  0
   20.6877   18.6655   24.3906 H   0  0  0  0  0  0  0  0  0  0  0  0
  1  2  1  0  0  0  0
  1  3  1  0  0  0  0
  1  4  1  0  0  0  0
  1  5  1  0  0  0  0
  5  6  1  0  0  0  0
  5  7  1  0  0  0  0
  5  8  1  0  0  0  0
  8  9  1  0  0  0  0
  8 10  1  0  0  0  0
  8 11  1  0  0  0  0
 11 12  1  0  0  0  0
 11 13  1  0  0  0  0
 11 14  1  0  0  0  0
 14 15  1  0  0  0  0
 14 16  1  0  0  0  0
 14 17  1  0  0  0  0
M  END
> <VConfSearch Rank>
181

> <Conf_Id>
7

> <Delta U+W>
0.000

> <U+W>
-15.865

> <U>
44.664

> <W>
-60.529

> <W(PB)>
-62.309

> <W(SA)>
1.780

> <Valence>
0.872

> <Coulomb>
43.648

> <VdW>
0.144

> <VdW6>
-2.370

> <VdW12>
2.515

> <Bond>
0.080

> <Angle>
0.376

> <Pdih>
0.416

> <Idih>
0.000

> <Tether>
0.000

$$$$
VeraChem MOL file


 17 16  0  0  0  0  0  0  0  0999 V2000     
   21.9039   19.4393   20.2757 N   0  3  0  0  0  0  0  0  0  0  0  0
   22.6444   18.8181   20.6153 H   0  0  0  0  0  0  0  0  0  0  0  0
   22.1316   20.3840   20.6003 H   0  0  0  0  0  0  0  0  0  0  0  0
   21.9740   19.4523   19.2531 H   0  0  0  0  0  0  0  0  0  0  0  0
   20.5317   18.9946   20.7411 C   0  0  0  0  0  0  0  0  0  0  0  0
   20.3442   17.9968   20.3354 H   0  0  0  0  0  0  0  0  0  0  0  0
   19.7944   19.6813   20.3172 H   0  0  0  0  0  0  0  0  0  0  0  0
   20.3917   18.9641   22.2752 C   0  0  0  0  0  0  0  0  0  0  0  0
   21.1621   18.3029   22.6937 H   0  0  0  0  0  0  0  0  0  0  0  0
   20.5816   19.9659   22.6828 H   0  0  0  0  0  0  0  0  0  0  0  0
   19.0004   18.4713   22.7375 C   0  0  0  0  0  0  0  0  0  0  0  0
   18.9944   18.3968   23.8340 H   0  0  0  0  0  0  0  0  0  0  0  0
   18.8225   17.4552   22.3579 H   0  0  0  0  0  0  0  0  0  0  0  0
   17.8502   19.4018   22.2892 C   0  0  0  0  0  0  0  0  0  0  0  0
   18.0070   20.4264   22.6509 H   0  0  0  0  0  0  0  0  0  0  0  0
   16.8911   19.0487   22.6896 H   0  0  0  0  0  0  0  0  0  0  0  0
   17.7602   19.4342   21.1960 H   0  0  0  0  0  0  0  0  0  0  0  0
  1  2  1  0  0  0  0
  1  3  1  0  0  0  0
  1  4  1  0  0  0  0
  1  5  1  0  0  0  0
  5  6  1  0  0  0  0
  5  7  1  0  0  0  0
  5  8  1  0  0  0  0
  8  9  1  0  0  0  0
  8 10  1  0  0  0  0
  8 11  1  0  0  0  0
 11 12  1  0  0  0  0
 11 13  1  0  0  0  0
 11 14  1  0  0  0  0
 14 15  1  0  0  0  0
 14 16  1  0  0  0  0
 14 17  1  0  0  0  0
M  END
> <VConfSearch Rank>
182

> <Conf_Id>
36

> <Delta U+W>
0.275

> <U+W>
-15.590

> <U>
45.174

> <W>
-60.765

> <W(PB)>
-62.518

> <W(SA)>
1.754

> <Valence>
1.161

> <Coulomb>
43.789

> <VdW>
0.224

> <VdW6>
-2.897

> <VdW12>
3.121

> <Bond>
0.100

> <Angle>
0.500

> <Pdih>
0.561

> <Idih>
0.000

> <Tether>
0.000

$$$$
VeraChem MOL file


 17 16  0  0  0  0  0  0  0  0999 V2000     
   20.2471   17.2453   21.0314 N   0  3  0  0  0  0  0  0  0  0  0  0
   20.9868   17.8766   20.7137 H   0  0  0  0  0  0  0  0  0  0  0  0
   19.6194   17.0922   20.2364 H   0  0  0  0  0  0  0  0  0  0  0  0
   20.6879   16.3436   21.2400 H   0  0  0  0  0  0  0  0  0  0  0  0
   19.5089   17.8036   22.2328 C   0  0  0  0  0  0  0  0  0  0  0  0
   20.2108   17.8814   23.0674 H   0  0  0  0  0  0  0  0  0  0  0  0
   18.7412   17.0738   22.5040 H   0  0  0  0  0  0  0  0  0  0  0  0
   18.8377   19.1711   21.9857 C   0  0  0  0  0  0  0  0  0  0  0  0
   18.3294   19.1696   21.0124 H   0  0  0  0  0  0  0  0  0  0  0  0
   18.0476   19.2971   22.7378 H   0  0  0  0  0  0  0  0  0  0  0  0
   19.7950   20.3856   22.0922 C   0  0  0  0  0  0  0  0  0  0  0  0
   20.2492   20.4116   23.0927 H   0  0  0  0  0  0  0  0  0  0  0  0
   19.1988   21.3048   22.0053 H   0  0  0  0  0  0  0  0  0  0  0  0
   20.9081   20.4178   21.0203 C   0  0  0  0  0  0  0  0  0  0  0  0
   21.6547   19.6337   21.1918 H   0  0  0  0  0  0  0  0  0  0  0  0
   21.4376   21.3790   21.0504 H   0  0  0  0  0  0  0  0  0  0  0  0
   20.4932   20.2978   20.0110 H   0  0  0  0  0  0  0  0  0  0  0  0
  1  2  1  0  0  0  0
  1  3  1  0  0  0  0
  1  4  1  0  0  0  0
  1  5  1  0  0  0  0
  5  6  1  0  0  0  0
  5  7  1  0  0  0  0
  5  8  1  0  0  0  0
  8  9  1  0  0  0  0
  8 10  1  0  0  0  0
  8 11  1  0  0  0  0
 11 12  1  0  0  0  0
 11 13  1  0  0  0  0
 11 14  1  0  0  0  0
 14 15  1  0  0  0  0
 14 16  1  0  0  0  0
 14 17  1  0  0  0  0
M  END
> <VConfSearch Rank>
183

> <Conf_Id>
19

> <Delta U+W>
2.662

> <U+W>
-13.203

> <U>
47.423

> <W>
-60.626

> <W(PB)>
-62.328

> <W(SA)>
1.702

> <Valence>
2.414

> <Coulomb>
44.831

> <VdW>
0.178

> <VdW6>
-3.743

> <VdW12>
3.921

> <Bond>
0.138

> <Angle>
0.941

> <Pdih>
1.335

> <Idih>
0.000

> <Tether>
0.000

$$$$
VeraChem MOL file


 17 16  0  0  0  0  0  0  0  0999 V2000     
   20.2035   18.2621   19.9537 N   0  3  0  0  0  0  0  0  0  0  0  0
   19.8254   18.0229   19.0314 H   0  0  0  0  0  0  0  0  0  0  0  0
   21.0838   17.7482   20.0562 H   0  0  0  0  0  0  0  0  0  0  0  0
   20.4369   19.2581   19.9353 H   0  0  0  0  0  0  0  0  0  0  0  0
   19.2267   17.9340   21.0664 C   0  0  0  0  0  0  0  0  0  0  0  0
   19.0343   16.8588   21.0164 H   0  0  0  0  0  0  0  0  0  0  0  0
   18.2860   18.4550   20.8687 H   0  0  0  0  0  0  0  0  0  0  0  0
   19.7331   18.2889   22.4803 C   0  0  0  0  0  0  0  0  0  0  0  0
   19.1614   17.6893   23.2011 H   0  0  0  0  0  0  0  0  0  0  0  0
   20.7801   17.9780   22.5933 H   0  0  0  0  0  0  0  0  0  0  0  0
   19.5692   19.7813   22.8660 C   0  0  0  0  0  0  0  0  0  0  0  0
   19.8601   19.9004   23.9192 H   0  0  0  0  0  0  0  0  0  0  0  0
   18.5084   20.0631   22.8101 H   0  0  0  0  0  0  0  0  0  0  0  0
   20.4074   20.7581   22.0104 C   0  0  0  0  0  0  0  0  0  0  0  0
   21.4599   20.4488   21.9681 H   0  0  0  0  0  0  0  0  0  0  0  0
   20.3741   21.7669   22.4421 H   0  0  0  0  0  0  0  0  0  0  0  0
   20.0188   20.8327   20.9881 H   0  0  0  0  0  0  0  0  0  0  0  0
  1  2  1  0  0  0  0
  1  3  1  0  0  0  0
  1  4  1  0  0  0  0
  1  5  1  0  0  0  0
  5  6  1  0  0  0  0
  5  7  1  0  0  0  0
  5  8  1  0  0  0  0
  8  9  1  0  0  0  0
  8 10  1  0  0  0  0
  8 11  1  0  0  0  0
 11 12  1  0  0  0  0
 11 13  1  0  0  0  0
 11 14  1  0  0  0  0
 14 15  1  0  0  0  0
 14 16  1  0  0  0  0
 14 17  1  0  0  0  0
M  END
> <VConfSearch Rank>
184

> <Conf_Id>
44

> <Delta U+W>
2.712

> <U+W>
-13.153

> <U>
47.423

> <W>
-60.576

> <W(PB)>
-62.262

> <W(SA)>
1.687

> <Valence>
2.414

> <Coulomb>
44.831

> <VdW>
0.178

> <VdW6>
-3.743

> <VdW12>
3.922

> <Bond>
0.138

> <Angle>
0.941

> <Pdih>
1.335

> <Idih>
0.000

> <Tether>
0.000

$$$$
VeraChem MOL file


 17 16  0  0  0  0  0  0  0  0999 V2000     
   21.7554   19.1318   22.3500 N   0  3  0  0  0  0  0  0  0  0  0  0
   21.5403   18.1417   22.2026 H   0  0  0  0  0  0  0  0  0  0  0  0
   21.7406   19.2978   23.3607 H   0  0  0  0  0  0  0  0  0  0  0  0
   22.7210   19.2779   22.0386 H   0  0  0  0  0  0  0  0  0  0  0  0
   20.7830   20.0335   21.6142 C   0  0  0  0  0  0  0  0  0  0  0  0
   20.8710   19.8265   20.5446 H   0  0  0  0  0  0  0  0  0  0  0  0
   21.0939   21.0679   21.7848 H   0  0  0  0  0  0  0  0  0  0  0  0
   19.3158   19.8613   22.0586 C   0  0  0  0  0  0  0  0  0  0  0  0
   19.2304   20.1107   23.1246 H   0  0  0  0  0  0  0  0  0  0  0  0
   18.6982   20.5942   21.5228 H   0  0  0  0  0  0  0  0  0  0  0  0
   18.7466   18.4412   21.8158 C   0  0  0  0  0  0  0  0  0  0  0  0
   17.7082   18.4102   22.1744 H   0  0  0  0  0  0  0  0  0  0  0  0
   19.2971   17.7057   22.4180 H   0  0  0  0  0  0  0  0  0  0  0  0
   18.7767   18.0231   20.3279 C   0  0  0  0  0  0  0  0  0  0  0  0
   18.2311   18.7433   19.7045 H   0  0  0  0  0  0  0  0  0  0  0  0
   18.3054   17.0407   20.1944 H   0  0  0  0  0  0  0  0  0  0  0  0
   19.8040   17.9514   19.9491 H   0  0  0  0  0  0  0  0  0  0  0  0
  1  2  1  0  0  0  0
  1  3  1  0  0  0  0
  1  4  1  0  0  0  0
  1  5  1  0  0  0  0
  5  6  1  0  0  0  0
  5  7  1  0  0  0  0
  5  8  1  0  0  0  0
  8  9  1  0  0  0  0
  8 10  1  0  0  0  0
  8 11  1  0  0  0  0
 11 12  1  0  0  0  0
 11 13  1  0  0  0  0
 11 14  1  0  0  0  0
 14 15  1  0  0  0  0
 14 16  1  0  0  0  0
 14 17  1  0  0  0  0
M  END
> <VConfSearch Rank>
185

> <Conf_Id>
1

> <Delta U+W>
0.685

> <U+W>
-15.179

> <U>
45.697

> <W>
-60.876

> <W(PB)>
-62.586

> <W(SA)>
1.710

> <Valence>
1.263

> <Coulomb>
44.179

> <VdW>
0.255

> <VdW6>
-3.552

> <VdW12>
3.807

> <Bond>
0.125

> <Angle>
0.616

> <Pdih>
0.521

> <Idih>
0.000

> <Tether>
0.000

$$$$
VeraChem MOL file


 17 16  0  0  0  0  0  0  0  0999 V2000     
   20.3504   20.9695   21.6536 N   0  3  0  0  0  0  0  0  0  0  0  0
   21.2504   21.1700   21.2072 H   0  0  0  0  0  0  0  0  0  0  0  0
   20.5514   20.5912   22.5836 H   0  0  0  0  0  0  0  0  0  0  0  0
   19.8798   21.8695   21.7920 H   0  0  0  0  0  0  0  0  0  0  0  0
   19.5098   20.0145   20.8282 C   0  0  0  0  0  0  0  0  0  0  0  0
   19.3036   20.4965   19.8687 H   0  0  0  0  0  0  0  0  0  0  0  0
   18.5574   19.8679   21.3441 H   0  0  0  0  0  0  0  0  0  0  0  0
   20.1823   18.6486   20.5795 C   0  0  0  0  0  0  0  0  0  0  0  0
   19.5338   18.0519   19.9244 H   0  0  0  0  0  0  0  0  0  0  0  0
   21.1176   18.8029   20.0252 H   0  0  0  0  0  0  0  0  0  0  0  0
   20.4770   17.8468   21.8717 C   0  0  0  0  0  0  0  0  0  0  0  0
   21.1980   18.3904   22.4972 H   0  0  0  0  0  0  0  0  0  0  0  0
   20.9659   16.9013   21.5977 H   0  0  0  0  0  0  0  0  0  0  0  0
   19.2057   17.5348   22.6939 C   0  0  0  0  0  0  0  0  0  0  0  0
   19.4526   16.9115   23.5631 H   0  0  0  0  0  0  0  0  0  0  0  0
   18.4688   16.9898   22.0897 H   0  0  0  0  0  0  0  0  0  0  0  0
   18.7315   18.4510   23.0679 H   0  0  0  0  0  0  0  0  0  0  0  0
  1  2  1  0  0  0  0
  1  3  1  0  0  0  0
  1  4  1  0  0  0  0
  1  5  1  0  0  0  0
  5  6  1  0  0  0  0
  5  7  1  0  0  0  0
  5  8  1  0  0  0  0
  8  9  1  0  0  0  0
  8 10  1  0  0  0  0
  8 11  1  0  0  0  0
 11 12  1  0  0  0  0
 11 13  1  0  0  0  0
 11 14  1  0  0  0  0
 14 15  1  0  0  0  0
 14 16  1  0  0  0  0
 14 17  1  0  0  0  0
M  END
> <VConfSearch Rank>
186

> <Conf_Id>
43

> <Delta U+W>
0.642

> <U+W>
-15.222

> <U>
45.697

> <W>
-60.919

> <W(PB)>
-62.631

> <W(SA)>
1.712

> <Valence>
1.262

> <Coulomb>
44.179

> <VdW>
0.255

> <VdW6>
-3.552

> <VdW12>
3.807

> <Bond>
0.125

> <Angle>
0.616

> <Pdih>
0.521

> <Idih>
0.000

> <Tether>
0.000

$$$$
VeraChem MOL file


 17 16  0  0  0  0  0  0  0  0999 V2000     
   19.2369   19.0027   24.0656 N   0  3  0  0  0  0  0  0  0  0  0  0
   20.1702   18.8930   24.4738 H   0  0  0  0  0  0  0  0  0  0  0  0
   18.8023   18.0750   24.0549 H   0  0  0  0  0  0  0  0  0  0  0  0
   18.6937   19.5768   24.7185 H   0  0  0  0  0  0  0  0  0  0  0  0
   19.2910   19.6205   22.6825 C   0  0  0  0  0  0  0  0  0  0  0  0
   19.7354   20.6153   22.7743 H   0  0  0  0  0  0  0  0  0  0  0  0
   18.2645   19.7358   22.3239 H   0  0  0  0  0  0  0  0  0  0  0  0
   20.1001   18.7833   21.6753 C   0  0  0  0  0  0  0  0  0  0  0  0
   21.1259   18.6566   22.0462 H   0  0  0  0  0  0  0  0  0  0  0  0
   19.6600   17.7802   21.5972 H   0  0  0  0  0  0  0  0  0  0  0  0
   20.1302   19.4472   20.2811 C   0  0  0  0  0  0  0  0  0  0  0  0
   20.5675   20.4527   20.3591 H   0  0  0  0  0  0  0  0  0  0  0  0
   19.1034   19.5772   19.9106 H   0  0  0  0  0  0  0  0  0  0  0  0
   20.9402   18.6129   19.2653 C   0  0  0  0  0  0  0  0  0  0  0  0
   20.9494   19.1012   18.2821 H   0  0  0  0  0  0  0  0  0  0  0  0
   20.5060   17.6125   19.1398 H   0  0  0  0  0  0  0  0  0  0  0  0
   21.9816   18.4948   19.5918 H   0  0  0  0  0  0  0  0  0  0  0  0
  1  2  1  0  0  0  0
  1  3  1  0  0  0  0
  1  4  1  0  0  0  0
  1  5  1  0  0  0  0
  5  6  1  0  0  0  0
  5  7  1  0  0  0  0
  5  8  1  0  0  0  0
  8  9  1  0  0  0  0
  8 10  1  0  0  0  0
  8 11  1  0  0  0  0
 11 12  1  0  0  0  0
 11 13  1  0  0  0  0
 11 14  1  0  0  0  0
 14 15  1  0  0  0  0
 14 16  1  0  0  0  0
 14 17  1  0  0  0  0
M  END
> <VConfSearch Rank>
187

> <Conf_Id>
7

> <Delta U+W>
0.000

> <U+W>
-15.865

> <U>
44.664

> <W>
-60.529

> <W(PB)>
-62.309

> <W(SA)>
1.780

> <Valence>
0.872

> <Coulomb>
43.648

> <VdW>
0.144

> <VdW6>
-2.370

> <VdW12>
2.515

> <Bond>
0.080

> <Angle>
0.376

> <Pdih>
0.416

> <Idih>
0.000

> <Tether>
0.000

$$$$
VeraChem MOL file


 17 16  0  0  0  0  0  0  0  0999 V2000     
   20.9290   16.9435   21.1809 N   0  3  0  0  0  0  0  0  0  0  0  0
   20.8662   16.3728   22.0294 H   0  0  0  0  0  0  0  0  0  0  0  0
   21.9016   17.2553   21.0995 H   0  0  0  0  0  0  0  0  0  0  0  0
   20.7512   16.3174   20.3889 H   0  0  0  0  0  0  0  0  0  0  0  0
   19.9598   18.1085   21.2071 C   0  0  0  0  0  0  0  0  0  0  0  0
   18.9459   17.7034   21.2641 H   0  0  0  0  0  0  0  0  0  0  0  0
   20.0601   18.6501   20.2629 H   0  0  0  0  0  0  0  0  0  0  0  0
   20.1995   19.0708   22.3863 C   0  0  0  0  0  0  0  0  0  0  0  0
   20.1362   18.5091   23.3277 H   0  0  0  0  0  0  0  0  0  0  0  0
   21.2184   19.4764   22.3299 H   0  0  0  0  0  0  0  0  0  0  0  0
   19.1800   20.2332   22.4243 C   0  0  0  0  0  0  0  0  0  0  0  0
   19.3556   20.8326   23.3287 H   0  0  0  0  0  0  0  0  0  0  0  0
   18.1615   19.8297   22.5144 H   0  0  0  0  0  0  0  0  0  0  0  0
   19.2662   21.1534   21.1851 C   0  0  0  0  0  0  0  0  0  0  0  0
   20.2770   21.5656   21.0686 H   0  0  0  0  0  0  0  0  0  0  0  0
   18.5701   21.9965   21.2826 H   0  0  0  0  0  0  0  0  0  0  0  0
   19.0071   20.6155   20.2644 H   0  0  0  0  0  0  0  0  0  0  0  0
  1  2  1  0  0  0  0
  1  3  1  0  0  0  0
  1  4  1  0  0  0  0
  1  5  1  0  0  0  0
  5  6  1  0  0  0  0
  5  7  1  0  0  0  0
  5  8  1  0  0  0  0
  8  9  1  0  0  0  0
  8 10  1  0  0  0  0
  8 11  1  0  0  0  0
 11 12  1  0  0  0  0
 11 13  1  0  0  0  0
 11 14  1  0  0  0  0
 14 15  1  0  0  0  0
 14 16  1  0  0  0  0
 14 17  1  0  0  0  0
M  END
> <VConfSearch Rank>
188

> <Conf_Id>
36

> <Delta U+W>
0.275

> <U+W>
-15.590

> <U>
45.174

> <W>
-60.765

> <W(PB)>
-62.518

> <W(SA)>
1.754

> <Valence>
1.161

> <Coulomb>
43.789

> <VdW>
0.224

> <VdW6>
-2.897

> <VdW12>
3.121

> <Bond>
0.100

> <Angle>
0.500

> <Pdih>
0.561

> <Idih>
0.000

> <Tether>
0.000

$$$$
VeraChem MOL file


 17 16  0  0  0  0  0  0  0  0999 V2000     
   21.6482   18.5832   22.2084 N   0  3  0  0  0  0  0  0  0  0  0  0
   20.9442   17.9968   22.6637 H   0  0  0  0  0  0  0  0  0  0  0  0
   21.8963   19.3249   22.8701 H   0  0  0  0  0  0  0  0  0  0  0  0
   22.4859   18.0063   22.0808 H   0  0  0  0  0  0  0  0  0  0  0  0
   21.1455   19.1466   20.8931 C   0  0  0  0  0  0  0  0  0  0  0  0
   20.9623   18.3161   20.2060 H   0  0  0  0  0  0  0  0  0  0  0  0
   21.9518   19.7571   20.4776 H   0  0  0  0  0  0  0  0  0  0  0  0
   19.8734   20.0113   21.0181 C   0  0  0  0  0  0  0  0  0  0  0  0
   19.9623   20.6879   21.8783 H   0  0  0  0  0  0  0  0  0  0  0  0
   19.8189   20.6569   20.1315 H   0  0  0  0  0  0  0  0  0  0  0  0
   18.5529   19.2038   21.1015 C   0  0  0  0  0  0  0  0  0  0  0  0
   18.4453   18.5778   20.2045 H   0  0  0  0  0  0  0  0  0  0  0  0
   17.7125   19.9117   21.0804 H   0  0  0  0  0  0  0  0  0  0  0  0
   18.4219   18.3217   22.3639 C   0  0  0  0  0  0  0  0  0  0  0  0
   19.1082   17.4676   22.3310 H   0  0  0  0  0  0  0  0  0  0  0  0
   17.4050   17.9152   22.4401 H   0  0  0  0  0  0  0  0  0  0  0  0
   18.6185   18.8998   23.2762 H   0  0  0  0  0  0  0  0  0  0  0  0
  1  2  1  0  0  0  0
  1  3  1  0  0  0  0
  1  4  1  0  0  0  0
  1  5  1  0  0  0  0
  5  6  1  0  0  0  0
  5  7  1  0  0  0  0
  5  8  1  0  0  0  0
  8  9  1  0  0  0  0
  8 10  1  0  0  0  0
  8 11  1  0  0  0  0
 11 12  1  0  0  0  0
 11 13  1  0  0  0  0
 11 14  1  0  0  0  0
 14 15  1  0  0  0  0
 14 16  1  0  0  0  0
 14 17  1  0  0  0  0
M  END
> <VConfSearch Rank>
189

> <Conf_Id>
19

> <Delta U+W>
2.662

> <U+W>
-13.203

> <U>
47.423

> <W>
-60.626

> <W(PB)>
-62.328

> <W(SA)>
1.702

> <Valence>
2.414

> <Coulomb>
44.831

> <VdW>
0.178

> <VdW6>
-3.743

> <VdW12>
3.921

> <Bond>
0.138

> <Angle>
0.941

> <Pdih>
1.335

> <Idih>
0.000

> <Tether>
0.000

$$$$
VeraChem MOL file


 17 16  0  0  0  0  0  0  0  0999 V2000     
   18.8372   19.8598   20.2854 N   0  3  0  0  0  0  0  0  0  0  0  0
   17.9196   19.8997   19.8301 H   0  0  0  0  0  0  0  0  0  0  0  0
   19.4825   20.3996   19.7008 H   0  0  0  0  0  0  0  0  0  0  0  0
   18.7536   20.3545   21.1771 H   0  0  0  0  0  0  0  0  0  0  0  0
   19.3105   18.4318   20.4768 C   0  0  0  0  0  0  0  0  0  0  0  0
   19.3740   17.9800   19.4831 H   0  0  0  0  0  0  0  0  0  0  0  0
   18.5532   17.8876   21.0475 H   0  0  0  0  0  0  0  0  0  0  0  0
   20.6811   18.3058   21.1749 C   0  0  0  0  0  0  0  0  0  0  0  0
   21.0939   17.3190   20.9267 H   0  0  0  0  0  0  0  0  0  0  0  0
   21.3837   19.0396   20.7581 H   0  0  0  0  0  0  0  0  0  0  0  0
   20.6292   18.4260   22.7194 C   0  0  0  0  0  0  0  0  0  0  0  0
   21.6325   18.2175   23.1166 H   0  0  0  0  0  0  0  0  0  0  0  0
   19.9722   17.6458   23.1289 H   0  0  0  0  0  0  0  0  0  0  0  0
   20.1721   19.8084   23.2378 C   0  0  0  0  0  0  0  0  0  0  0  0
   20.7485   20.6190   22.7731 H   0  0  0  0  0  0  0  0  0  0  0  0
   20.3195   19.8754   24.3236 H   0  0  0  0  0  0  0  0  0  0  0  0
   19.1059   19.9774   23.0469 H   0  0  0  0  0  0  0  0  0  0  0  0
  1  2  1  0  0  0  0
  1  3  1  0  0  0  0
  1  4  1  0  0  0  0
  1  5  1  0  0  0  0
  5  6  1  0  0  0  0
  5  7  1  0  0  0  0
  5  8  1  0  0  0  0
  8  9  1  0  0  0  0
  8 10  1  0  0  0  0
  8 11  1  0  0  0  0
 11 12  1  0  0  0  0
 11 13  1  0  0  0  0
 11 14  1  0  0  0  0
 14 15  1  0  0  0  0
 14 16  1  0  0  0  0
 14 17  1  0  0  0  0
M  END
> <VConfSearch Rank>
190

> <Conf_Id>
44

> <Delta U+W>
2.712

> <U+W>
-13.153

> <U>
47.423

> <W>
-60.576

> <W(PB)>
-62.262

> <W(SA)>
1.687

> <Valence>
2.414

> <Coulomb>
44.831

> <VdW>
0.178

> <VdW6>
-3.743

> <VdW12>
3.922

> <Bond>
0.138

> <Angle>
0.941

> <Pdih>
1.335

> <Idih>
0.000

> <Tether>
0.000

$$$$
VeraChem MOL file


 17 16  0  0  0  0  0  0  0  0999 V2000     
   19.5497   20.8843   22.2345 N   0  3  0  0  0  0  0  0  0  0  0  0
   18.6443   20.4407   22.0560 H   0  0  0  0  0  0  0  0  0  0  0  0
   19.7003   21.5746   21.4928 H   0  0  0  0  0  0  0  0  0  0  0  0
   19.4596   21.4056   23.1124 H   0  0  0  0  0  0  0  0  0  0  0  0
   20.6718   19.8659   22.2960 C   0  0  0  0  0  0  0  0  0  0  0  0
   20.4643   19.1816   23.1227 H   0  0  0  0  0  0  0  0  0  0  0  0
   21.5963   20.4026   22.5255 H   0  0  0  0  0  0  0  0  0  0  0  0
   20.8572   19.0641   20.9911 C   0  0  0  0  0  0  0  0  0  0  0  0
   21.1052   19.7559   20.1752 H   0  0  0  0  0  0  0  0  0  0  0  0
   21.7263   18.4027   21.1057 H   0  0  0  0  0  0  0  0  0  0  0  0
   19.6229   18.2183   20.5905 C   0  0  0  0  0  0  0  0  0  0  0  0
   19.8417   17.6975   19.6478 H   0  0  0  0  0  0  0  0  0  0  0  0
   18.7668   18.8745   20.3825 H   0  0  0  0  0  0  0  0  0  0  0  0
   19.2307   17.1747   21.6614 C   0  0  0  0  0  0  0  0  0  0  0  0
   20.0710   16.5050   21.8862 H   0  0  0  0  0  0  0  0  0  0  0  0
   18.3952   16.5563   21.3086 H   0  0  0  0  0  0  0  0  0  0  0  0
   18.9153   17.6543   22.5965 H   0  0  0  0  0  0  0  0  0  0  0  0
  1  2  1  0  0  0  0
  1  3  1  0  0  0  0
  1  4  1  0  0  0  0
  1  5  1  0  0  0  0
  5  6  1  0  0  0  0
  5  7  1  0  0  0  0
  5  8  1  0  0  0  0
  8  9  1  0  0  0  0
  8 10  1  0  0  0  0
  8 11  1  0  0  0  0
 11 12  1  0  0  0  0
 11 13  1  0  0  0  0
 11 14  1  0  0  0  0
 14 15  1  0  0  0  0
 14 16  1  0  0  0  0
 14 17  1  0  0  0  0
M  END
> <VConfSearch Rank>
191

> <Conf_Id>
1

> <Delta U+W>
0.685

> <U+W>
-15.179

> <U>
45.697

> <W>
-60.876

> <W(PB)>
-62.586

> <W(SA)>
1.710

> <Valence>
1.263

> <Coulomb>
44.179

> <VdW>
0.255

> <VdW6>
-3.552

> <VdW12>
3.807

> <Bond>
0.125

> <Angle>
0.616

> <Pdih>
0.521

> <Idih>
0.000

> <Tether>
0.000

$$$$
VeraChem MOL file


 17 16  0  0  0  0  0  0  0  0999 V2000     
   20.8596   17.2943   21.3525 N   0  3  0  0  0  0  0  0  0  0  0  0
   21.4975   17.3211   20.5514 H   0  0  0  0  0  0  0  0  0  0  0  0
   19.9120   17.1817   20.9812 H   0  0  0  0  0  0  0  0  0  0  0  0
   21.0781   16.4421   21.8785 H   0  0  0  0  0  0  0  0  0  0  0  0
   20.9813   18.5360   22.2146 C   0  0  0  0  0  0  0  0  0  0  0  0
   22.0020   18.5715   22.6050 H   0  0  0  0  0  0  0  0  0  0  0  0
   20.2991   18.4292   23.0619 H   0  0  0  0  0  0  0  0  0  0  0  0
   20.6760   19.8482   21.4631 C   0  0  0  0  0  0  0  0  0  0  0  0
   20.8512   20.6918   22.1439 H   0  0  0  0  0  0  0  0  0  0  0  0
   21.3921   19.9667   20.6391 H   0  0  0  0  0  0  0  0  0  0  0  0
   19.2330   19.9344   20.9064 C   0  0  0  0  0  0  0  0  0  0  0  0
   19.0712   19.1508   20.1538 H   0  0  0  0  0  0  0  0  0  0  0  0
   19.1140   20.8909   20.3784 H   0  0  0  0  0  0  0  0  0  0  0  0
   18.1523   19.8304   22.0068 C   0  0  0  0  0  0  0  0  0  0  0  0
   17.1509   19.9617   21.5767 H   0  0  0  0  0  0  0  0  0  0  0  0
   18.2921   20.6053   22.7717 H   0  0  0  0  0  0  0  0  0  0  0  0
   18.1735   18.8519   22.5027 H   0  0  0  0  0  0  0  0  0  0  0  0
  1  2  1  0  0  0  0
  1  3  1  0  0  0  0
  1  4  1  0  0  0  0
  1  5  1  0  0  0  0
  5  6  1  0  0  0  0
  5  7  1  0  0  0  0
  5  8  1  0  0  0  0
  8  9  1  0  0  0  0
  8 10  1  0  0  0  0
  8 11  1  0  0  0  0
 11 12  1  0  0  0  0
 11 13  1  0  0  0  0
 11 14  1  0  0  0  0
 14 15  1  0  0  0  0
 14 16  1  0  0  0  0
 14 17  1  0  0  0  0
M  END
> <VConfSearch Rank>
192

> <Conf_Id>
43

> <Delta U+W>
0.642

> <U+W>
-15.222

> <U>
45.697

> <W>
-60.919

> <W(PB)>
-62.631

> <W(SA)>
1.712

> <Valence>
1.262

> <Coulomb>
44.179

> <VdW>
0.255

> <VdW6>
-3.552

> <VdW12>
3.807

> <Bond>
0.125

> <Angle>
0.616

> <Pdih>
0.521

> <Idih>
0.000

> <Tether>
0.000

$$$$
VeraChem MOL file


 17 16  0  0  0  0  0  0  0  0999 V2000     
   19.4240   21.0281   23.1630 N   0  3  0  0  0  0  0  0  0  0  0  0
   19.5913   21.7812   22.4888 H   0  0  0  0  0  0  0  0  0  0  0  0
   20.2598   20.9603   23.7517 H   0  0  0  0  0  0  0  0  0  0  0  0
   18.6585   21.3385   23.7701 H   0  0  0  0  0  0  0  0  0  0  0  0
   19.1032   19.7142   22.4788 C   0  0  0  0  0  0  0  0  0  0  0  0
   18.1881   19.8515   21.8963 H   0  0  0  0  0  0  0  0  0  0  0  0
   18.9070   18.9688   23.2542 H   0  0  0  0  0  0  0  0  0  0  0  0
   20.2330   19.2179   21.5581 C   0  0  0  0  0  0  0  0  0  0  0  0
   20.4378   19.9757   20.7901 H   0  0  0  0  0  0  0  0  0  0  0  0
   21.1542   19.0959   22.1434 H   0  0  0  0  0  0  0  0  0  0  0  0
   19.8661   17.8788   20.8817 C   0  0  0  0  0  0  0  0  0  0  0  0
   18.9422   17.9995   20.2983 H   0  0  0  0  0  0  0  0  0  0  0  0
   19.6578   17.1207   21.6500 H   0  0  0  0  0  0  0  0  0  0  0  0
   20.9947   17.3747   19.9565 C   0  0  0  0  0  0  0  0  0  0  0  0
   20.7147   16.4232   19.4860 H   0  0  0  0  0  0  0  0  0  0  0  0
   21.9235   17.2114   20.5186 H   0  0  0  0  0  0  0  0  0  0  0  0
   21.2023   18.0972   19.1563 H   0  0  0  0  0  0  0  0  0  0  0  0
  1  2  1  0  0  0  0
  1  3  1  0  0  0  0
  1  4  1  0  0  0  0
  1  5  1  0  0  0  0
  5  6  1  0  0  0  0
  5  7  1  0  0  0  0
  5  8  1  0  0  0  0
  8  9  1  0  0  0  0
  8 10  1  0  0  0  0
  8 11  1  0  0  0  0
 11 12  1  0  0  0  0
 11 13  1  0  0  0  0
 11 14  1  0  0  0  0
 14 15  1  0  0  0  0
 14 16  1  0  0  0  0
 14 17  1  0  0  0  0
M  END
> <VConfSearch Rank>
193

> <Conf_Id>
7

> <Delta U+W>
0.000

> <U+W>
-15.865

> <U>
44.664

> <W>
-60.529

> <W(PB)>
-62.309

> <W(SA)>
1.780

> <Valence>
0.872

> <Coulomb>
43.648

> <VdW>
0.144

> <VdW6>
-2.370

> <VdW12>
2.515

> <Bond>
0.080

> <Angle>
0.376

> <Pdih>
0.416

> <Idih>
0.000

> <Tether>
0.000

$$$$
VeraChem MOL file


 17 16  0  0  0  0  0  0  0  0999 V2000     
   18.4108   20.4601   20.3304 N   0  3  0  0  0  0  0  0  0  0  0  0
   17.4585   20.1061   20.4620 H   0  0  0  0  0  0  0  0  0  0  0  0
   18.7154   20.1647   19.3979 H   0  0  0  0  0  0  0  0  0  0  0  0
   18.3465   21.4830   20.3110 H   0  0  0  0  0  0  0  0  0  0  0  0
   19.3519   19.9749   21.4151 C   0  0  0  0  0  0  0  0  0  0  0  0
   18.9844   20.3501   22.3740 H   0  0  0  0  0  0  0  0  0  0  0  0
   20.3348   20.4152   21.2285 H   0  0  0  0  0  0  0  0  0  0  0  0
   19.4722   18.4399   21.4719 C   0  0  0  0  0  0  0  0  0  0  0  0
   18.4743   18.0060   21.6195 H   0  0  0  0  0  0  0  0  0  0  0  0
   19.8398   18.0630   20.5082 H   0  0  0  0  0  0  0  0  0  0  0  0
   20.4043   17.9563   22.6074 C   0  0  0  0  0  0  0  0  0  0  0  0
   20.3826   16.8581   22.6437 H   0  0  0  0  0  0  0  0  0  0  0  0
   20.0193   18.3049   23.5762 H   0  0  0  0  0  0  0  0  0  0  0  0
   21.8664   18.4261   22.4304 C   0  0  0  0  0  0  0  0  0  0  0  0
   22.2736   18.0955   21.4660 H   0  0  0  0  0  0  0  0  0  0  0  0
   22.5028   18.0105   23.2224 H   0  0  0  0  0  0  0  0  0  0  0  0
   21.9478   19.5192   22.4803 H   0  0  0  0  0  0  0  0  0  0  0  0
  1  2  1  0  0  0  0
  1  3  1  0  0  0  0
  1  4  1  0  0  0  0
  1  5  1  0  0  0  0
  5  6  1  0  0  0  0
  5  7  1  0  0  0  0
  5  8  1  0  0  0  0
  8  9  1  0  0  0  0
  8 10  1  0  0  0  0
  8 11  1  0  0  0  0
 11 12  1  0  0  0  0
 11 13  1  0  0  0  0
 11 14  1  0  0  0  0
 14 15  1  0  0  0  0
 14 16  1  0  0  0  0
 14 17  1  0  0  0  0
M  END
> <VConfSearch Rank>
194

> <Conf_Id>
36

> <Delta U+W>
0.275

> <U+W>
-15.590

> <U>
45.174

> <W>
-60.765

> <W(PB)>
-62.518

> <W(SA)>
1.754

> <Valence>
1.161

> <Coulomb>
43.789

> <VdW>
0.224

> <VdW6>
-2.897

> <VdW12>
3.121

> <Bond>
0.100

> <Angle>
0.500

> <Pdih>
0.561

> <Idih>
0.000

> <Tether>
0.000

$$$$
VeraChem MOL file


 17 16  0  0  0  0  0  0  0  0999 V2000     
   21.6503   19.4338   22.1717 N   0  3  0  0  0  0  0  0  0  0  0  0
   21.5198   18.4193   22.1470 H   0  0  0  0  0  0  0  0  0  0  0  0
   21.5559   19.7261   23.1490 H   0  0  0  0  0  0  0  0  0  0  0  0
   22.6203   19.6208   21.8979 H   0  0  0  0  0  0  0  0  0  0  0  0
   20.6620   20.1499   21.2714 C   0  0  0  0  0  0  0  0  0  0  0  0
   20.8538   19.8517   20.2372 H   0  0  0  0  0  0  0  0  0  0  0  0
   20.8680   21.2203   21.3580 H   0  0  0  0  0  0  0  0  0  0  0  0
   19.1816   19.8927   21.6232 C   0  0  0  0  0  0  0  0  0  0  0  0
   19.0382   19.9514   22.7103 H   0  0  0  0  0  0  0  0  0  0  0  0
   18.5887   20.7127   21.1966 H   0  0  0  0  0  0  0  0  0  0  0  0
   18.6132   18.5586   21.0756 C   0  0  0  0  0  0  0  0  0  0  0  0
   18.7052   18.5395   19.9806 H   0  0  0  0  0  0  0  0  0  0  0  0
   17.5358   18.5275   21.2905 H   0  0  0  0  0  0  0  0  0  0  0  0
   19.2704   17.2922   21.6699 C   0  0  0  0  0  0  0  0  0  0  0  0
   20.2984   17.1661   21.3107 H   0  0  0  0  0  0  0  0  0  0  0  0
   18.7117   16.3966   21.3687 H   0  0  0  0  0  0  0  0  0  0  0  0
   19.2797   17.3254   22.7672 H   0  0  0  0  0  0  0  0  0  0  0  0
  1  2  1  0  0  0  0
  1  3  1  0  0  0  0
  1  4  1  0  0  0  0
  1  5  1  0  0  0  0
  5  6  1  0  0  0  0
  5  7  1  0  0  0  0
  5  8  1  0  0  0  0
  8  9  1  0  0  0  0
  8 10  1  0  0  0  0
  8 11  1  0  0  0  0
 11 12  1  0  0  0  0
 11 13  1  0  0  0  0
 11 14  1  0  0  0  0
 14 15  1  0  0  0  0
 14 16  1  0  0  0  0
 14 17  1  0  0  0  0
M  END
> <VConfSearch Rank>
195

> <Conf_Id>
19

> <Delta U+W>
2.662

> <U+W>
-13.203

> <U>
47.423

> <W>
-60.626

> <W(PB)>
-62.328

> <W(SA)>
1.702

> <Valence>
2.414

> <Coulomb>
44.831

> <VdW>
0.178

> <VdW6>
-3.743

> <VdW12>
3.921

> <Bond>
0.138

> <Angle>
0.941

> <Pdih>
1.335

> <Idih>
0.000

> <Tether>
0.000

$$$$
VeraChem MOL file


 17 16  0  0  0  0  0  0  0  0999 V2000     
   21.2708   20.2890   21.4751 N   0  3  0  0  0  0  0  0  0  0  0  0
   21.5696   21.2096   21.1374 H   0  0  0  0  0  0  0  0  0  0  0  0
   22.1176   19.7879   21.7601 H   0  0  0  0  0  0  0  0  0  0  0  0
   20.7139   20.4433   22.3195 H   0  0  0  0  0  0  0  0  0  0  0  0
   20.4927   19.5264   20.4201 C   0  0  0  0  0  0  0  0  0  0  0  0
   21.1562   19.4040   19.5596 H   0  0  0  0  0  0  0  0  0  0  0  0
   19.6417   20.1367   20.1061 H   0  0  0  0  0  0  0  0  0  0  0  0
   19.9992   18.1372   20.8762 C   0  0  0  0  0  0  0  0  0  0  0  0
   19.8048   17.5388   19.9762 H   0  0  0  0  0  0  0  0  0  0  0  0
   20.7980   17.6143   21.4187 H   0  0  0  0  0  0  0  0  0  0  0  0
   18.7003   18.1622   21.7216 C   0  0  0  0  0  0  0  0  0  0  0  0
   18.3838   17.1250   21.9004 H   0  0  0  0  0  0  0  0  0  0  0  0
   17.8918   18.6311   21.1432 H   0  0  0  0  0  0  0  0  0  0  0  0
   18.8390   18.8764   23.0853 C   0  0  0  0  0  0  0  0  0  0  0  0
   19.6997   18.4943   23.6496 H   0  0  0  0  0  0  0  0  0  0  0  0
   17.9412   18.7105   23.6948 H   0  0  0  0  0  0  0  0  0  0  0  0
   18.9488   19.9601   22.9626 H   0  0  0  0  0  0  0  0  0  0  0  0
  1  2  1  0  0  0  0
  1  3  1  0  0  0  0
  1  4  1  0  0  0  0
  1  5  1  0  0  0  0
  5  6  1  0  0  0  0
  5  7  1  0  0  0  0
  5  8  1  0  0  0  0
  8  9  1  0  0  0  0
  8 10  1  0  0  0  0
  8 11  1  0  0  0  0
 11 12  1  0  0  0  0
 11 13  1  0  0  0  0
 11 14  1  0  0  0  0
 14 15  1  0  0  0  0
 14 16  1  0  0  0  0
 14 17  1  0  0  0  0
M  END
> <VConfSearch Rank>
196

> <Conf_Id>
44

> <Delta U+W>
2.712

> <U+W>
-13.153

> <U>
47.423

> <W>
-60.576

> <W(PB)>
-62.262

> <W(SA)>
1.687

> <Valence>
2.414

> <Coulomb>
44.831

> <VdW>
0.178

> <VdW6>
-3.743

> <VdW12>
3.922

> <Bond>
0.138

> <Angle>
0.941

> <Pdih>
1.335

> <Idih>
0.000

> <Tether>
0.000

$$$$
VeraChem MOL file


 17 16  0  0  0  0  0  0  0  0999 V2000     
   18.1569   18.1312   21.4653 N   0  3  0  0  0  0  0  0  0  0  0  0
   18.0072   19.1157   21.2270 H   0  0  0  0  0  0  0  0  0  0  0  0
   17.7422   17.9768   22.3892 H   0  0  0  0  0  0  0  0  0  0  0  0
   17.6121   17.5757   20.7980 H   0  0  0  0  0  0  0  0  0  0  0  0
   19.6279   17.7637   21.4368 C   0  0  0  0  0  0  0  0  0  0  0  0
   19.9980   17.9232   20.4208 H   0  0  0  0  0  0  0  0  0  0  0  0
   19.7090   16.6968   21.6623 H   0  0  0  0  0  0  0  0  0  0  0  0
   20.4891   18.5637   22.4359 C   0  0  0  0  0  0  0  0  0  0  0  0
   20.1355   18.3651   23.4563 H   0  0  0  0  0  0  0  0  0  0  0  0
   21.5198   18.1875   22.3910 H   0  0  0  0  0  0  0  0  0  0  0  0
   20.4933   20.0917   22.1816 C   0  0  0  0  0  0  0  0  0  0  0  0
   21.1171   20.5759   22.9459 H   0  0  0  0  0  0  0  0  0  0  0  0
   19.4817   20.4992   22.3134 H   0  0  0  0  0  0  0  0  0  0  0  0
   21.0290   20.4711   20.7820 C   0  0  0  0  0  0  0  0  0  0  0  0
   22.0410   20.0754   20.6263 H   0  0  0  0  0  0  0  0  0  0  0  0
   21.0755   21.5622   20.6703 H   0  0  0  0  0  0  0  0  0  0  0  0
   20.3833   20.0841   19.9837 H   0  0  0  0  0  0  0  0  0  0  0  0
  1  2  1  0  0  0  0
  1  3  1  0  0  0  0
  1  4  1  0  0  0  0
  1  5  1  0  0  0  0
  5  6  1  0  0  0  0
  5  7  1  0  0  0  0
  5  8  1  0  0  0  0
  8  9  1  0  0  0  0
  8 10  1  0  0  0  0
  8 11  1  0  0  0  0
 11 12  1  0  0  0  0
 11 13  1  0  0  0  0
 11 14  1  0  0  0  0
 14 15  1  0  0  0  0
 14 16  1  0  0  0  0
 14 17  1  0  0  0  0
M  END
> <VConfSearch Rank>
197

> <Conf_Id>
1

> <Delta U+W>
0.685

> <U+W>
-15.179

> <U>
45.697

> <W>
-60.876

> <W(PB)>
-62.586

> <W(SA)>
1.710

> <Valence>
1.263

> <Coulomb>
44.179

> <VdW>
0.255

> <VdW6>
-3.552

> <VdW12>
3.807

> <Bond>
0.125

> <Angle>
0.616

> <Pdih>
0.521

> <Idih>
0.000

> <Tether>
0.000

$$$$
VeraChem MOL file


 17 16  0  0  0  0  0  0  0  0999 V2000     
   20.1398   20.2036   23.1873 N   0  3  0  0  0  0  0  0  0  0  0  0
   19.2471   20.3543   23.6667 H   0  0  0  0  0  0  0  0  0  0  0  0
   20.1463   20.8097   22.3620 H   0  0  0  0  0  0  0  0  0  0  0  0
   20.8755   20.5442   23.8145 H   0  0  0  0  0  0  0  0  0  0  0  0
   20.3442   18.7474   22.8166 C   0  0  0  0  0  0  0  0  0  0  0  0
   20.3638   18.1674   23.7434 H   0  0  0  0  0  0  0  0  0  0  0  0
   21.3225   18.6529   22.3384 H   0  0  0  0  0  0  0  0  0  0  0  0
   19.2526   18.1830   21.8840 C   0  0  0  0  0  0  0  0  0  0  0  0
   19.4461   17.1142   21.7232 H   0  0  0  0  0  0  0  0  0  0  0  0
   18.2796   18.2448   22.3893 H   0  0  0  0  0  0  0  0  0  0  0  0
   19.1654   18.8968   20.5120 C   0  0  0  0  0  0  0  0  0  0  0  0
   18.8814   19.9488   20.6510 H   0  0  0  0  0  0  0  0  0  0  0  0
   18.3560   18.4392   19.9259 H   0  0  0  0  0  0  0  0  0  0  0  0
   20.4797   18.8150   19.7023 C   0  0  0  0  0  0  0  0  0  0  0  0
   20.3523   19.2751   18.7138 H   0  0  0  0  0  0  0  0  0  0  0  0
   20.7844   17.7715   19.5489 H   0  0  0  0  0  0  0  0  0  0  0  0
   21.2994   19.3402   20.2085 H   0  0  0  0  0  0  0  0  0  0  0  0
  1  2  1  0  0  0  0
  1  3  1  0  0  0  0
  1  4  1  0  0  0  0
  1  5  1  0  0  0  0
  5  6  1  0  0  0  0
  5  7  1  0  0  0  0
  5  8  1  0  0  0  0
  8  9  1  0  0  0  0
  8 10  1  0  0  0  0
  8 11  1  0  0  0  0
 11 12  1  0  0  0  0
 11 13  1  0  0  0  0
 11 14  1  0  0  0  0
 14 15  1  0  0  0  0
 14 16  1  0  0  0  0
 14 17  1  0  0  0  0
M  END
> <VConfSearch Rank>
198

> <Conf_Id>
43

> <Delta U+W>
0.642

> <U+W>
-15.222

> <U>
45.697

> <W>
-60.919

> <W(PB)>
-62.631

> <W(SA)>
1.712

> <Valence>
1.262

> <Coulomb>
44.179

> <VdW>
0.255

> <VdW6>
-3.552

> <VdW12>
3.807

> <Bond>
0.125

> <Angle>
0.616

> <Pdih>
0.521

> <Idih>
0.000

> <Tether>
0.000

$$$$
VeraChem MOL file


 17 16  0  0  0  0  0  0  0  0999 V2000     
   21.1151   16.7912   21.9072 N   0  3  0  0  0  0  0  0  0  0  0  0
   22.0809   17.1331   21.8990 H   0  0  0  0  0  0  0  0  0  0  0  0
   20.9209   16.4167   20.9735 H   0  0  0  0  0  0  0  0  0  0  0  0
   21.0872   15.9981   22.5561 H   0  0  0  0  0  0  0  0  0  0  0  0
   20.1319   17.8757   22.3000 C   0  0  0  0  0  0  0  0  0  0  0  0
   20.3791   18.2047   23.3130 H   0  0  0  0  0  0  0  0  0  0  0  0
   19.1317   17.4343   22.3178 H   0  0  0  0  0  0  0  0  0  0  0  0
   20.1475   19.0835   21.3454 C   0  0  0  0  0  0  0  0  0  0  0  0
   21.1571   19.5147   21.3182 H   0  0  0  0  0  0  0  0  0  0  0  0
   19.9139   18.7469   20.3265 H   0  0  0  0  0  0  0  0  0  0  0  0
   19.1330   20.1636   21.7811 C   0  0  0  0  0  0  0  0  0  0  0  0
   19.3644   20.4985   22.8021 H   0  0  0  0  0  0  0  0  0  0  0  0
   18.1226   19.7317   21.8116 H   0  0  0  0  0  0  0  0  0  0  0  0
   19.1431   21.3784   20.8281 C   0  0  0  0  0  0  0  0  0  0  0  0
   18.4163   22.1335   21.1547 H   0  0  0  0  0  0  0  0  0  0  0  0
   18.8811   21.0801   19.8046 H   0  0  0  0  0  0  0  0  0  0  0  0
   20.1327   21.8529   20.8029 H   0  0  0  0  0  0  0  0  0  0  0  0
  1  2  1  0  0  0  0
  1  3  1  0  0  0  0
  1  4  1  0  0  0  0
  1  5  1  0  0  0  0
  5  6  1  0  0  0  0
  5  7  1  0  0  0  0
  5  8  1  0  0  0  0
  8  9  1  0  0  0  0
  8 10  1  0  0  0  0
  8 11  1  0  0  0  0
 11 12  1  0  0  0  0
 11 13  1  0  0  0  0
 11 14  1  0  0  0  0
 14 15  1  0  0  0  0
 14 16  1  0  0  0  0
 14 17  1  0  0  0  0
M  END
> <VConfSearch Rank>
199

> <Conf_Id>
7

> <Delta U+W>
0.000

> <U+W>
-15.865

> <U>
44.664

> <W>
-60.529

> <W(PB)>
-62.309

> <W(SA)>
1.780

> <Valence>
0.872

> <Coulomb>
43.648

> <VdW>
0.144

> <VdW6>
-2.370

> <VdW12>
2.515

> <Bond>
0.080

> <Angle>
0.376

> <Pdih>
0.416

> <Idih>
0.000

> <Tether>
0.000

$$$$
VeraChem MOL file


 17 16  0  0  0  0  0  0  0  0999 V2000     
   19.2249   19.4485   19.3381 N   0  3  0  0  0  0  0  0  0  0  0  0
   18.3281   18.9746   19.1940 H   0  0  0  0  0  0  0  0  0  0  0  0
   19.9430   18.8787   18.8807 H   0  0  0  0  0  0  0  0  0  0  0  0
   19.1777   20.3343   18.8243 H   0  0  0  0  0  0  0  0  0  0  0  0
   19.5231   19.6648   20.8084 C   0  0  0  0  0  0  0  0  0  0  0  0
   18.7370   20.3020   21.2225 H   0  0  0  0  0  0  0  0  0  0  0  0
   20.4733   20.2000   20.8831 H   0  0  0  0  0  0  0  0  0  0  0  0
   19.6014   18.3520   21.6111 C   0  0  0  0  0  0  0  0  0  0  0  0
   18.6570   17.8034   21.4967 H   0  0  0  0  0  0  0  0  0  0  0  0
   20.3898   17.7113   21.1941 H   0  0  0  0  0  0  0  0  0  0  0  0
   19.8671   18.5882   23.1163 C   0  0  0  0  0  0  0  0  0  0  0  0
   19.8309   17.6230   23.6409 H   0  0  0  0  0  0  0  0  0  0  0  0
   19.0610   19.2018   23.5428 H   0  0  0  0  0  0  0  0  0  0  0  0
   21.2319   19.2603   23.3908 C   0  0  0  0  0  0  0  0  0  0  0  0
   22.0553   18.6694   22.9689 H   0  0  0  0  0  0  0  0  0  0  0  0
   21.4053   19.3525   24.4708 H   0  0  0  0  0  0  0  0  0  0  0  0
   21.2786   20.2689   22.9612 H   0  0  0  0  0  0  0  0  0  0  0  0
  1  2  1  0  0  0  0
  1  3  1  0  0  0  0
  1  4  1  0  0  0  0
  1  5  1  0  0  0  0
  5  6  1  0  0  0  0
  5  7  1  0  0  0  0
  5  8  1  0  0  0  0
  8  9  1  0  0  0  0
  8 10  1  0  0  0  0
  8 11  1  0  0  0  0
 11 12  1  0  0  0  0
 11 13  1  0  0  0  0
 11 14  1  0  0  0  0
 14 15  1  0  0  0  0
 14 16  1  0  0  0  0
 14 17  1  0  0  0  0
M  END
> <VConfSearch Rank>
200

> <Conf_Id>
36

> <Delta U+W>
0.275

> <U+W>
-15.590

> <U>
45.174

> <W>
-60.765

> <W(PB)>
-62.518

> <W(SA)>
1.754

> <Valence>
1.161

> <Coulomb>
43.789

> <VdW>
0.224

> <VdW6>
-2.897

> <VdW12>
3.121

> <Bond>
0.100

> <Angle>
0.500

> <Pdih>
0.561

> <Idih>
0.000

> <Tether>
0.000

$$$$
VeraChem MOL file


 17 16  0  0  0  0  0  0  0  0999 V2000     
   19.2022   19.6279   20.0195 N   0  3  0  0  0  0  0  0  0  0  0  0
   19.9668   18.9734   19.8351 H   0  0  0  0  0  0  0  0  0  0  0  0
   19.5778   20.5728   19.8948 H   0  0  0  0  0  0  0  0  0  0  0  0
   18.5004   19.4877   19.2855 H   0  0  0  0  0  0  0  0  0  0  0  0
   18.6166   19.4326   21.4047 C   0  0  0  0  0  0  0  0  0  0  0  0
   18.1719   18.4352   21.4572 H   0  0  0  0  0  0  0  0  0  0  0  0
   17.8143   20.1666   21.5191 H   0  0  0  0  0  0  0  0  0  0  0  0
   19.6309   19.6133   22.5536 C   0  0  0  0  0  0  0  0  0  0  0  0
   20.2548   20.4977   22.3682 H   0  0  0  0  0  0  0  0  0  0  0  0
   19.0648   19.8308   23.4691 H   0  0  0  0  0  0  0  0  0  0  0  0
   20.5205   18.3736   22.8266 C   0  0  0  0  0  0  0  0  0  0  0  0
   19.8861   17.5105   23.0729 H   0  0  0  0  0  0  0  0  0  0  0  0
   21.1248   18.5720   23.7230 H   0  0  0  0  0  0  0  0  0  0  0  0
   21.4701   18.0003   21.6657 C   0  0  0  0  0  0  0  0  0  0  0  0
   20.9188   17.5932   20.8101 H   0  0  0  0  0  0  0  0  0  0  0  0
   22.1803   17.2279   21.9884 H   0  0  0  0  0  0  0  0  0  0  0  0
   22.0522   18.8691   21.3317 H   0  0  0  0  0  0  0  0  0  0  0  0
  1  2  1  0  0  0  0
  1  3  1  0  0  0  0
  1  4  1  0  0  0  0
  1  5  1  0  0  0  0
  5  6  1  0  0  0  0
  5  7  1  0  0  0  0
  5  8  1  0  0  0  0
  8  9  1  0  0  0  0
  8 10  1  0  0  0  0
  8 11  1  0  0  0  0
 11 12  1  0  0  0  0
 11 13  1  0  0  0  0
 11 14  1  0  0  0  0
 14 15  1  0  0  0  0
 14 16  1  0  0  0  0
 14 17  1  0  0  0  0
M  END
> <VConfSearch Rank>
201

> <Conf_Id>
19

> <Delta U+W>
2.662

> <U+W>
-13.203

> <U>
47.423

> <W>
-60.626

> <W(PB)>
-62.328

> <W(SA)>
1.702

> <Valence>
2.414

> <Coulomb>
44.831

> <VdW>
0.178

> <VdW6>
-3.743

> <VdW12>
3.921

> <Bond>
0.138

> <Angle>
0.941

> <Pdih>
1.335

> <Idih>
0.000

> <Tether>
0.000

$$$$
VeraChem MOL file


 17 16  0  0  0  0  0  0  0  0999 V2000     
   21.5517   19.3591   22.3579 N   0  3  0  0  0  0  0  0  0  0  0  0
   22.4995   18.9975   22.5050 H   0  0  0  0  0  0  0  0  0  0  0  0
   21.4402   20.1632   22.9829 H   0  0  0  0  0  0  0  0  0  0  0  0
   21.5096   19.7148   21.3995 H   0  0  0  0  0  0  0  0  0  0  0  0
   20.4976   18.2985   22.6108 C   0  0  0  0  0  0  0  0  0  0  0  0
   20.6104   17.9768   23.6497 H   0  0  0  0  0  0  0  0  0  0  0  0
   20.7062   17.4399   21.9668 H   0  0  0  0  0  0  0  0  0  0  0  0
   19.0480   18.7787   22.3878 C   0  0  0  0  0  0  0  0  0  0  0  0
   18.3826   18.1042   22.9429 H   0  0  0  0  0  0  0  0  0  0  0  0
   18.9090   19.7727   22.8332 H   0  0  0  0  0  0  0  0  0  0  0  0
   18.5933   18.7835   20.9059 C   0  0  0  0  0  0  0  0  0  0  0  0
   17.5245   19.0376   20.8727 H   0  0  0  0  0  0  0  0  0  0  0  0
   18.6775   17.7695   20.4902 H   0  0  0  0  0  0  0  0  0  0  0  0
   19.3632   19.7752   20.0044 C   0  0  0  0  0  0  0  0  0  0  0  0
   19.3787   20.7820   20.4418 H   0  0  0  0  0  0  0  0  0  0  0  0
   18.8820   19.8471   19.0203 H   0  0  0  0  0  0  0  0  0  0  0  0
   20.3952   19.4468   19.8346 H   0  0  0  0  0  0  0  0  0  0  0  0
  1  2  1  0  0  0  0
  1  3  1  0  0  0  0
  1  4  1  0  0  0  0
  1  5  1  0  0  0  0
  5  6  1  0  0  0  0
  5  7  1  0  0  0  0
  5  8  1  0  0  0  0
  8  9  1  0  0  0  0
  8 10  1  0  0  0  0
  8 11  1  0  0  0  0
 11 12  1  0  0  0  0
 11 13  1  0  0  0  0
 11 14  1  0  0  0  0
 14 15  1  0  0  0  0
 14 16  1  0  0  0  0
 14 17  1  0  0  0  0
M  END
> <VConfSearch Rank>
202

> <Conf_Id>
44

> <Delta U+W>
2.712

> <U+W>
-13.153

> <U>
47.423

> <W>
-60.576

> <W(PB)>
-62.262

> <W(SA)>
1.687

> <Valence>
2.414

> <Coulomb>
44.831

> <VdW>
0.178

> <VdW6>
-3.743

> <VdW12>
3.922

> <Bond>
0.138

> <Angle>
0.941

> <Pdih>
1.335

> <Idih>
0.000

> <Tether>
0.000

$$$$
VeraChem MOL file


 17 16  0  0  0  0  0  0  0  0999 V2000     
   18.7082   20.0772   20.4151 N   0  3  0  0  0  0  0  0  0  0  0  0
   18.6763   19.1038   20.0990 H   0  0  0  0  0  0  0  0  0  0  0  0
   19.2327   20.6068   19.7124 H   0  0  0  0  0  0  0  0  0  0  0  0
   17.7458   20.4296   20.3962 H   0  0  0  0  0  0  0  0  0  0  0  0
   19.3269   20.2000   21.7942 C   0  0  0  0  0  0  0  0  0  0  0  0
   18.7048   19.6391   22.4965 H   0  0  0  0  0  0  0  0  0  0  0  0
   19.2938   21.2545   22.0813 H   0  0  0  0  0  0  0  0  0  0  0  0
   20.7827   19.6952   21.8708 C   0  0  0  0  0  0  0  0  0  0  0  0
   21.4070   20.2914   21.1922 H   0  0  0  0  0  0  0  0  0  0  0  0
   21.1664   19.8821   22.8826 H   0  0  0  0  0  0  0  0  0  0  0  0
   20.9470   18.1923   21.5334 C   0  0  0  0  0  0  0  0  0  0  0  0
   22.0120   17.9293   21.5996 H   0  0  0  0  0  0  0  0  0  0  0  0
   20.6528   18.0049   20.4918 H   0  0  0  0  0  0  0  0  0  0  0  0
   20.1420   17.2686   22.4760 C   0  0  0  0  0  0  0  0  0  0  0  0
   20.4194   17.4367   23.5248 H   0  0  0  0  0  0  0  0  0  0  0  0
   20.3392   16.2143   22.2426 H   0  0  0  0  0  0  0  0  0  0  0  0
   19.0617   17.4329   22.3770 H   0  0  0  0  0  0  0  0  0  0  0  0
  1  2  1  0  0  0  0
  1  3  1  0  0  0  0
  1  4  1  0  0  0  0
  1  5  1  0  0  0  0
  5  6  1  0  0  0  0
  5  7  1  0  0  0  0
  5  8  1  0  0  0  0
  8  9  1  0  0  0  0
  8 10  1  0  0  0  0
  8 11  1  0  0  0  0
 11 12  1  0  0  0  0
 11 13  1  0  0  0  0
 11 14  1  0  0  0  0
 14 15  1  0  0  0  0
 14 16  1  0  0  0  0
 14 17  1  0  0  0  0
M  END
> <VConfSearch Rank>
203

> <Conf_Id>
1

> <Delta U+W>
0.685

> <U+W>
-15.179

> <U>
45.697

> <W>
-60.876

> <W(PB)>
-62.586

> <W(SA)>
1.710

> <Valence>
1.263

> <Coulomb>
44.179

> <VdW>
0.255

> <VdW6>
-3.552

> <VdW12>
3.807

> <Bond>
0.125

> <Angle>
0.616

> <Pdih>
0.521

> <Idih>
0.000

> <Tether>
0.000

$$$$
VeraChem MOL file


 17 16  0  0  0  0  0  0  0  0999 V2000     
   21.0683   17.9577   20.3786 N   0  3  0  0  0  0  0  0  0  0  0  0
   21.0002   16.9561   20.5827 H   0  0  0  0  0  0  0  0  0  0  0  0
   21.6854   18.3691   21.0846 H   0  0  0  0  0  0  0  0  0  0  0  0
   21.5460   18.0457   19.4759 H   0  0  0  0  0  0  0  0  0  0  0  0
   19.7071   18.6260   20.3639 C   0  0  0  0  0  0  0  0  0  0  0  0
   19.1183   18.1648   19.5664 H   0  0  0  0  0  0  0  0  0  0  0  0
   19.8492   19.6802   20.1124 H   0  0  0  0  0  0  0  0  0  0  0  0
   18.9411   18.5081   21.6978 C   0  0  0  0  0  0  0  0  0  0  0  0
   17.9483   18.9607   21.5739 H   0  0  0  0  0  0  0  0  0  0  0  0
   18.7675   17.4471   21.9212 H   0  0  0  0  0  0  0  0  0  0  0  0
   19.6587   19.1753   22.8976 C   0  0  0  0  0  0  0  0  0  0  0  0
   20.6155   18.6720   23.0927 H   0  0  0  0  0  0  0  0  0  0  0  0
   19.0494   19.0286   23.8004 H   0  0  0  0  0  0  0  0  0  0  0  0
   19.8986   20.6889   22.6942 C   0  0  0  0  0  0  0  0  0  0  0  0
   20.3485   21.1315   23.5924 H   0  0  0  0  0  0  0  0  0  0  0  0
   18.9553   21.2151   22.4983 H   0  0  0  0  0  0  0  0  0  0  0  0
   20.5786   20.8809   21.8547 H   0  0  0  0  0  0  0  0  0  0  0  0
  1  2  1  0  0  0  0
  1  3  1  0  0  0  0
  1  4  1  0  0  0  0
  1  5  1  0  0  0  0
  5  6  1  0  0  0  0
  5  7  1  0  0  0  0
  5  8  1  0  0  0  0
  8  9  1  0  0  0  0
  8 10  1  0  0  0  0
  8 11  1  0  0  0  0
 11 12  1  0  0  0  0
 11 13  1  0  0  0  0
 11 14  1  0  0  0  0
 14 15  1  0  0  0  0
 14 16  1  0  0  0  0
 14 17  1  0  0  0  0
M  END
> <VConfSearch Rank>
204

> <Conf_Id>
43

> <Delta U+W>
0.642

> <U+W>
-15.222

> <U>
45.697

> <W>
-60.919

> <W(PB)>
-62.631

> <W(SA)>
1.712

> <Valence>
1.262

> <Coulomb>
44.179

> <VdW>
0.255

> <VdW6>
-3.552

> <VdW12>
3.807

> <Bond>
0.125

> <Angle>
0.616

> <Pdih>
0.521

> <Idih>
0.000

> <Tether>
0.000

$$$$
VeraChem MOL file


 17 16  0  0  0  0  0  0  0  0999 V2000     
   20.4411   18.5533   24.0713 N   0  3  0  0  0  0  0  0  0  0  0  0
   19.5569   18.0823   24.2859 H   0  0  0  0  0  0  0  0  0  0  0  0
   20.3634   19.5129   24.4218 H   0  0  0  0  0  0  0  0  0  0  0  0
   21.1659   18.0916   24.6302 H   0  0  0  0  0  0  0  0  0  0  0  0
   20.7608   18.5138   22.5902 C   0  0  0  0  0  0  0  0  0  0  0  0
   20.8592   17.4659   22.2940 H   0  0  0  0  0  0  0  0  0  0  0  0
   21.7265   19.0043   22.4401 H   0  0  0  0  0  0  0  0  0  0  0  0
   19.6915   19.1992   21.7202 C   0  0  0  0  0  0  0  0  0  0  0  0
   18.7203   18.7140   21.8852 H   0  0  0  0  0  0  0  0  0  0  0  0
   19.5846   20.2471   22.0307 H   0  0  0  0  0  0  0  0  0  0  0  0
   20.0553   19.1365   20.2205 C   0  0  0  0  0  0  0  0  0  0  0  0
   20.1658   18.0878   19.9098 H   0  0  0  0  0  0  0  0  0  0  0  0
   21.0290   19.6191   20.0551 H   0  0  0  0  0  0  0  0  0  0  0  0
   18.9871   19.8221   19.3414 C   0  0  0  0  0  0  0  0  0  0  0  0
   19.2639   19.7667   18.2806 H   0  0  0  0  0  0  0  0  0  0  0  0
   18.8786   20.8821   19.6056 H   0  0  0  0  0  0  0  0  0  0  0  0
   18.0085   19.3388   19.4592 H   0  0  0  0  0  0  0  0  0  0  0  0
  1  2  1  0  0  0  0
  1  3  1  0  0  0  0
  1  4  1  0  0  0  0
  1  5  1  0  0  0  0
  5  6  1  0  0  0  0
  5  7  1  0  0  0  0
  5  8  1  0  0  0  0
  8  9  1  0  0  0  0
  8 10  1  0  0  0  0
  8 11  1  0  0  0  0
 11 12  1  0  0  0  0
 11 13  1  0  0  0  0
 11 14  1  0  0  0  0
 14 15  1  0  0  0  0
 14 16  1  0  0  0  0
 14 17  1  0  0  0  0
M  END
> <VConfSearch Rank>
205

> <Conf_Id>
7

> <Delta U+W>
0.000

> <U+W>
-15.865

> <U>
44.664

> <W>
-60.529

> <W(PB)>
-62.309

> <W(SA)>
1.780

> <Valence>
0.872

> <Coulomb>
43.648

> <VdW>
0.144

> <VdW6>
-2.370

> <VdW12>
2.515

> <Bond>
0.080

> <Angle>
0.376

> <Pdih>
0.416

> <Idih>
0.000

> <Tether>
0.000

$$$$
VeraChem MOL file


 17 16  0  0  0  0  0  0  0  0999 V2000     
   22.2405   19.1735   20.9300 N   0  3  0  0  0  0  0  0  0  0  0  0
   22.8243   19.3402   21.7553 H   0  0  0  0  0  0  0  0  0  0  0  0
   22.2010   20.0535   20.4070 H   0  0  0  0  0  0  0  0  0  0  0  0
   22.7440   18.5015   20.3419 H   0  0  0  0  0  0  0  0  0  0  0  0
   20.8596   18.6723   21.3031 C   0  0  0  0  0  0  0  0  0  0  0  0
   20.9760   17.7208   21.8289 H   0  0  0  0  0  0  0  0  0  0  0  0
   20.3080   18.4875   20.3776 H   0  0  0  0  0  0  0  0  0  0  0  0
   20.0743   19.6596   22.1878 C   0  0  0  0  0  0  0  0  0  0  0  0
   20.6551   19.8694   23.0958 H   0  0  0  0  0  0  0  0  0  0  0  0
   19.9589   20.6158   21.6603 H   0  0  0  0  0  0  0  0  0  0  0  0
   18.6830   19.1199   22.5938 C   0  0  0  0  0  0  0  0  0  0  0  0
   18.2116   19.8325   23.2852 H   0  0  0  0  0  0  0  0  0  0  0  0
   18.7987   18.1796   23.1510 H   0  0  0  0  0  0  0  0  0  0  0  0
   17.7457   18.8953   21.3851 C   0  0  0  0  0  0  0  0  0  0  0  0
   17.6179   19.8198   20.8070 H   0  0  0  0  0  0  0  0  0  0  0  0
   16.7526   18.5719   21.7230 H   0  0  0  0  0  0  0  0  0  0  0  0
   18.1342   18.1209   20.7118 H   0  0  0  0  0  0  0  0  0  0  0  0
  1  2  1  0  0  0  0
  1  3  1  0  0  0  0
  1  4  1  0  0  0  0
  1  5  1  0  0  0  0
  5  6  1  0  0  0  0
  5  7  1  0  0  0  0
  5  8  1  0  0  0  0
  8  9  1  0  0  0  0
  8 10  1  0  0  0  0
  8 11  1  0  0  0  0
 11 12  1  0  0  0  0
 11 13  1  0  0  0  0
 11 14  1  0  0  0  0
 14 15  1  0  0  0  0
 14 16  1  0  0  0  0
 14 17  1  0  0  0  0
M  END
> <VConfSearch Rank>
206

> <Conf_Id>
36

> <Delta U+W>
0.275

> <U+W>
-15.590

> <U>
45.174

> <W>
-60.765

> <W(PB)>
-62.518

> <W(SA)>
1.754

> <Valence>
1.161

> <Coulomb>
43.789

> <VdW>
0.224

> <VdW6>
-2.897

> <VdW12>
3.121

> <Bond>
0.100

> <Angle>
0.500

> <Pdih>
0.561

> <Idih>
0.000

> <Tether>
0.000

$$$$
VeraChem MOL file


 17 16  0  0  0  0  0  0  0  0999 V2000     
   19.8230   20.5070   22.6657 N   0  3  0  0  0  0  0  0  0  0  0  0
   20.0291   20.7493   21.6932 H   0  0  0  0  0  0  0  0  0  0  0  0
   20.7060   20.5582   23.1826 H   0  0  0  0  0  0  0  0  0  0  0  0
   19.2167   21.2443   23.0392 H   0  0  0  0  0  0  0  0  0  0  0  0
   19.1818   19.1374   22.7801 C   0  0  0  0  0  0  0  0  0  0  0  0
   18.2152   19.1618   22.2697 H   0  0  0  0  0  0  0  0  0  0  0  0
   18.9981   18.9581   23.8430 H   0  0  0  0  0  0  0  0  0  0  0  0
   20.0408   17.9856   22.2171 C   0  0  0  0  0  0  0  0  0  0  0  0
   21.0844   18.1041   22.5374 H   0  0  0  0  0  0  0  0  0  0  0  0
   19.6896   17.0512   22.6749 H   0  0  0  0  0  0  0  0  0  0  0  0
   19.9647   17.8200   20.6778 C   0  0  0  0  0  0  0  0  0  0  0  0
   18.9233   17.6390   20.3766 H   0  0  0  0  0  0  0  0  0  0  0  0
   20.5232   16.9154   20.3991 H   0  0  0  0  0  0  0  0  0  0  0  0
   20.5320   19.0146   19.8778 C   0  0  0  0  0  0  0  0  0  0  0  0
   19.8850   19.8959   19.9575 H   0  0  0  0  0  0  0  0  0  0  0  0
   20.6006   18.7606   18.8120 H   0  0  0  0  0  0  0  0  0  0  0  0
   21.5397   19.2821   20.2217 H   0  0  0  0  0  0  0  0  0  0  0  0
  1  2  1  0  0  0  0
  1  3  1  0  0  0  0
  1  4  1  0  0  0  0
  1  5  1  0  0  0  0
  5  6  1  0  0  0  0
  5  7  1  0  0  0  0
  5  8  1  0  0  0  0
  8  9  1  0  0  0  0
  8 10  1  0  0  0  0
  8 11  1  0  0  0  0
 11 12  1  0  0  0  0
 11 13  1  0  0  0  0
 11 14  1  0  0  0  0
 14 15  1  0  0  0  0
 14 16  1  0  0  0  0
 14 17  1  0  0  0  0
M  END
> <VConfSearch Rank>
207

> <Conf_Id>
19

> <Delta U+W>
2.662

> <U+W>
-13.203

> <U>
47.423

> <W>
-60.626

> <W(PB)>
-62.328

> <W(SA)>
1.702

> <Valence>
2.414

> <Coulomb>
44.831

> <VdW>
0.178

> <VdW6>
-3.743

> <VdW12>
3.921

> <Bond>
0.138

> <Angle>
0.941

> <Pdih>
1.335

> <Idih>
0.000

> <Tether>
0.000

$$$$
VeraChem MOL file


 17 16  0  0  0  0  0  0  0  0999 V2000     
   19.5161   17.4294   22.4117 N   0  3  0  0  0  0  0  0  0  0  0  0
   18.7951   16.8008   22.7803 H   0  0  0  0  0  0  0  0  0  0  0  0
   20.4196   17.0593   22.7218 H   0  0  0  0  0  0  0  0  0  0  0  0
   19.4926   17.3508   21.3919 H   0  0  0  0  0  0  0  0  0  0  0  0
   19.3057   18.8596   22.8703 C   0  0  0  0  0  0  0  0  0  0  0  0
   19.3471   18.8544   23.9630 H   0  0  0  0  0  0  0  0  0  0  0  0
   18.3030   19.1770   22.5718 H   0  0  0  0  0  0  0  0  0  0  0  0
   20.3516   19.8587   22.3323 C   0  0  0  0  0  0  0  0  0  0  0  0
   20.3492   20.7349   22.9943 H   0  0  0  0  0  0  0  0  0  0  0  0
   21.3580   19.4264   22.4086 H   0  0  0  0  0  0  0  0  0  0  0  0
   20.0850   20.3525   20.8874 C   0  0  0  0  0  0  0  0  0  0  0  0
   20.8219   21.1315   20.6465 H   0  0  0  0  0  0  0  0  0  0  0  0
   19.1010   20.8397   20.8390 H   0  0  0  0  0  0  0  0  0  0  0  0
   20.1663   19.2478   19.8094 C   0  0  0  0  0  0  0  0  0  0  0  0
   21.1009   18.6779   19.8923 H   0  0  0  0  0  0  0  0  0  0  0  0
   20.1354   19.6923   18.8061 H   0  0  0  0  0  0  0  0  0  0  0  0
   19.3208   18.5538   19.8800 H   0  0  0  0  0  0  0  0  0  0  0  0
  1  2  1  0  0  0  0
  1  3  1  0  0  0  0
  1  4  1  0  0  0  0
  1  5  1  0  0  0  0
  5  6  1  0  0  0  0
  5  7  1  0  0  0  0
  5  8  1  0  0  0  0
  8  9  1  0  0  0  0
  8 10  1  0  0  0  0
  8 11  1  0  0  0  0
 11 12  1  0  0  0  0
 11 13  1  0  0  0  0
 11 14  1  0  0  0  0
 14 15  1  0  0  0  0
 14 16  1  0  0  0  0
 14 17  1  0  0  0  0
M  END
> <VConfSearch Rank>
208

> <Conf_Id>
44

> <Delta U+W>
2.712

> <U+W>
-13.153

> <U>
47.423

> <W>
-60.576

> <W(PB)>
-62.262

> <W(SA)>
1.687

> <Valence>
2.414

> <Coulomb>
44.831

> <VdW>
0.178

> <VdW6>
-3.743

> <VdW12>
3.922

> <Bond>
0.138

> <Angle>
0.941

> <Pdih>
1.335

> <Idih>
0.000

> <Tether>
0.000

$$$$
VeraChem MOL file


 17 16  0  0  0  0  0  0  0  0999 V2000     
   19.2650   20.9125   21.5132 N   0  3  0  0  0  0  0  0  0  0  0  0
   19.7451   20.7204   20.6294 H   0  0  0  0  0  0  0  0  0  0  0  0
   19.8642   21.5450   22.0521 H   0  0  0  0  0  0  0  0  0  0  0  0
   18.4127   21.4336   21.2836 H   0  0  0  0  0  0  0  0  0  0  0  0
   18.9587   19.6374   22.2749 C   0  0  0  0  0  0  0  0  0  0  0  0
   18.2953   19.0250   21.6587 H   0  0  0  0  0  0  0  0  0  0  0  0
   18.4162   19.9142   23.1830 H   0  0  0  0  0  0  0  0  0  0  0  0
   20.2124   18.8237   22.6568 C   0  0  0  0  0  0  0  0  0  0  0  0
   20.8526   19.4328   23.3086 H   0  0  0  0  0  0  0  0  0  0  0  0
   19.9003   17.9586   23.2569 H   0  0  0  0  0  0  0  0  0  0  0  0
   21.0372   18.3299   21.4421 C   0  0  0  0  0  0  0  0  0  0  0  0
   21.9124   17.7765   21.8103 H   0  0  0  0  0  0  0  0  0  0  0  0
   21.4345   19.1872   20.8819 H   0  0  0  0  0  0  0  0  0  0  0  0
   20.2287   17.4168   20.4922 C   0  0  0  0  0  0  0  0  0  0  0  0
   19.8214   16.5505   21.0295 H   0  0  0  0  0  0  0  0  0  0  0  0
   20.8686   17.0388   19.6844 H   0  0  0  0  0  0  0  0  0  0  0  0
   19.3933   17.9556   20.0278 H   0  0  0  0  0  0  0  0  0  0  0  0
  1  2  1  0  0  0  0
  1  3  1  0  0  0  0
  1  4  1  0  0  0  0
  1  5  1  0  0  0  0
  5  6  1  0  0  0  0
  5  7  1  0  0  0  0
  5  8  1  0  0  0  0
  8  9  1  0  0  0  0
  8 10  1  0  0  0  0
  8 11  1  0  0  0  0
 11 12  1  0  0  0  0
 11 13  1  0  0  0  0
 11 14  1  0  0  0  0
 14 15  1  0  0  0  0
 14 16  1  0  0  0  0
 14 17  1  0  0  0  0
M  END
> <VConfSearch Rank>
209

> <Conf_Id>
1

> <Delta U+W>
0.685

> <U+W>
-15.179

> <U>
45.697

> <W>
-60.876

> <W(PB)>
-62.586

> <W(SA)>
1.710

> <Valence>
1.263

> <Coulomb>
44.179

> <VdW>
0.255

> <VdW6>
-3.552

> <VdW12>
3.807

> <Bond>
0.125

> <Angle>
0.616

> <Pdih>
0.521

> <Idih>
0.000

> <Tether>
0.000

$$$$
VeraChem MOL file


 17 16  0  0  0  0  0  0  0  0999 V2000     
   18.8460   18.2918   23.0942 N   0  3  0  0  0  0  0  0  0  0  0  0
   18.3744   17.4233   22.8245 H   0  0  0  0  0  0  0  0  0  0  0  0
   18.3107   19.0652   22.6895 H   0  0  0  0  0  0  0  0  0  0  0  0
   18.7632   18.3714   24.1128 H   0  0  0  0  0  0  0  0  0  0  0  0
   20.2935   18.3135   22.6425 C   0  0  0  0  0  0  0  0  0  0  0  0
   20.8099   17.4880   23.1399 H   0  0  0  0  0  0  0  0  0  0  0  0
   20.7425   19.2489   22.9865 H   0  0  0  0  0  0  0  0  0  0  0  0
   20.4715   18.1816   21.1158 C   0  0  0  0  0  0  0  0  0  0  0  0
   21.5453   18.1420   20.8895 H   0  0  0  0  0  0  0  0  0  0  0  0
   20.0541   17.2210   20.7860 H   0  0  0  0  0  0  0  0  0  0  0  0
   19.8220   19.3301   20.3042 C   0  0  0  0  0  0  0  0  0  0  0  0
   18.7331   19.3254   20.4484 H   0  0  0  0  0  0  0  0  0  0  0  0
   19.9868   19.1439   19.2337 H   0  0  0  0  0  0  0  0  0  0  0  0
   20.3890   20.7223   20.6649 C   0  0  0  0  0  0  0  0  0  0  0  0
   19.9490   21.4956   20.0220 H   0  0  0  0  0  0  0  0  0  0  0  0
   21.4777   20.7526   20.5277 H   0  0  0  0  0  0  0  0  0  0  0  0
   20.1673   20.9916   21.7053 H   0  0  0  0  0  0  0  0  0  0  0  0
  1  2  1  0  0  0  0
  1  3  1  0  0  0  0
  1  4  1  0  0  0  0
  1  5  1  0  0  0  0
  5  6  1  0  0  0  0
  5  7  1  0  0  0  0
  5  8  1  0  0  0  0
  8  9  1  0  0  0  0
  8 10  1  0  0  0  0
  8 11  1  0  0  0  0
 11 12  1  0  0  0  0
 11 13  1  0  0  0  0
 11 14  1  0  0  0  0
 14 15  1  0  0  0  0
 14 16  1  0  0  0  0
 14 17  1  0  0  0  0
M  END
> <VConfSearch Rank>
210

> <Conf_Id>
43

> <Delta U+W>
0.642

> <U+W>
-15.222

> <U>
45.697

> <W>
-60.919

> <W(PB)>
-62.631

> <W(SA)>
1.712

> <Valence>
1.262

> <Coulomb>
44.179

> <VdW>
0.255

> <VdW6>
-3.552

> <VdW12>
3.807

> <Bond>
0.125

> <Angle>
0.616

> <Pdih>
0.521

> <Idih>
0.000

> <Tether>
0.000

$$$$
VeraChem MOL file


 17 16  0  0  0  0  0  0  0  0999 V2000     
   19.1203   16.7487   20.8662 N   0  3  0  0  0  0  0  0  0  0  0  0
   20.0040   16.2442   20.9850 H   0  0  0  0  0  0  0  0  0  0  0  0
   19.0235   16.9546   19.8673 H   0  0  0  0  0  0  0  0  0  0  0  0
   18.3701   16.0931   21.1076 H   0  0  0  0  0  0  0  0  0  0  0  0
   19.0651   18.0047   21.7129 C   0  0  0  0  0  0  0  0  0  0  0  0
   19.1429   17.7080   22.7624 H   0  0  0  0  0  0  0  0  0  0  0  0
   18.0884   18.4719   21.5605 H   0  0  0  0  0  0  0  0  0  0  0  0
   20.1791   19.0127   21.3763 C   0  0  0  0  0  0  0  0  0  0  0  0
   21.1582   18.5352   21.5156 H   0  0  0  0  0  0  0  0  0  0  0  0
   20.1073   19.2966   20.3178 H   0  0  0  0  0  0  0  0  0  0  0  0
   20.0867   20.2758   22.2602 C   0  0  0  0  0  0  0  0  0  0  0  0
   20.1552   19.9920   23.3200 H   0  0  0  0  0  0  0  0  0  0  0  0
   19.1057   20.7525   22.1237 H   0  0  0  0  0  0  0  0  0  0  0  0
   21.2011   21.2916   21.9283 C   0  0  0  0  0  0  0  0  0  0  0  0
   21.1181   22.1809   22.5665 H   0  0  0  0  0  0  0  0  0  0  0  0
   21.1374   21.6209   20.8829 H   0  0  0  0  0  0  0  0  0  0  0  0
   22.1953   20.8544   22.0886 H   0  0  0  0  0  0  0  0  0  0  0  0
  1  2  1  0  0  0  0
  1  3  1  0  0  0  0
  1  4  1  0  0  0  0
  1  5  1  0  0  0  0
  5  6  1  0  0  0  0
  5  7  1  0  0  0  0
  5  8  1  0  0  0  0
  8  9  1  0  0  0  0
  8 10  1  0  0  0  0
  8 11  1  0  0  0  0
 11 12  1  0  0  0  0
 11 13  1  0  0  0  0
 11 14  1  0  0  0  0
 14 15  1  0  0  0  0
 14 16  1  0  0  0  0
 14 17  1  0  0  0  0
M  END
> <VConfSearch Rank>
211

> <Conf_Id>
7

> <Delta U+W>
0.000

> <U+W>
-15.865

> <U>
44.664

> <W>
-60.529

> <W(PB)>
-62.309

> <W(SA)>
1.780

> <Valence>
0.872

> <Coulomb>
43.648

> <VdW>
0.144

> <VdW6>
-2.370

> <VdW12>
2.515

> <Bond>
0.080

> <Angle>
0.376

> <Pdih>
0.416

> <Idih>
0.000

> <Tether>
0.000

$$$$
VeraChem MOL file


 17 16  0  0  0  0  0  0  0  0999 V2000     
   17.7452   18.0992   21.3615 N   0  3  0  0  0  0  0  0  0  0  0  0
   17.0918   18.5707   21.9943 H   0  0  0  0  0  0  0  0  0  0  0  0
   17.9584   17.1863   21.7748 H   0  0  0  0  0  0  0  0  0  0  0  0
   17.2357   17.9185   20.4905 H   0  0  0  0  0  0  0  0  0  0  0  0
   18.9967   18.9203   21.1226 C   0  0  0  0  0  0  0  0  0  0  0  0
   18.6984   19.8627   20.6552 H   0  0  0  0  0  0  0  0  0  0  0  0
   19.6281   18.3728   20.4181 H   0  0  0  0  0  0  0  0  0  0  0  0
   19.7876   19.2102   22.4127 C   0  0  0  0  0  0  0  0  0  0  0  0
   19.1325   19.7246   23.1284 H   0  0  0  0  0  0  0  0  0  0  0  0
   20.0857   18.2638   22.8830 H   0  0  0  0  0  0  0  0  0  0  0  0
   21.0404   20.0815   22.1612 C   0  0  0  0  0  0  0  0  0  0  0  0
   21.5110   20.3171   23.1261 H   0  0  0  0  0  0  0  0  0  0  0  0
   20.7406   21.0430   21.7209 H   0  0  0  0  0  0  0  0  0  0  0  0
   22.0809   19.3941   21.2474 C   0  0  0  0  0  0  0  0  0  0  0  0
   22.3932   18.4269   21.6622 H   0  0  0  0  0  0  0  0  0  0  0  0
   22.9771   20.0198   21.1461 H   0  0  0  0  0  0  0  0  0  0  0  0
   21.6819   19.2223   20.2398 H   0  0  0  0  0  0  0  0  0  0  0  0
  1  2  1  0  0  0  0
  1  3  1  0  0  0  0
  1  4  1  0  0  0  0
  1  5  1  0  0  0  0
  5  6  1  0  0  0  0
  5  7  1  0  0  0  0
  5  8  1  0  0  0  0
  8  9  1  0  0  0  0
  8 10  1  0  0  0  0
  8 11  1  0  0  0  0
 11 12  1  0  0  0  0
 11 13  1  0  0  0  0
 11 14  1  0  0  0  0
 14 15  1  0  0  0  0
 14 16  1  0  0  0  0
 14 17  1  0  0  0  0
M  END
> <VConfSearch Rank>
212

> <Conf_Id>
36

> <Delta U+W>
0.275

> <U+W>
-15.590

> <U>
45.174

> <W>
-60.765

> <W(PB)>
-62.518

> <W(SA)>
1.754

> <Valence>
1.161

> <Coulomb>
43.789

> <VdW>
0.224

> <VdW6>
-2.897

> <VdW12>
3.121

> <Bond>
0.100

> <Angle>
0.500

> <Pdih>
0.561

> <Idih>
0.000

> <Tether>
0.000

$$$$
VeraChem MOL file


 17 16  0  0  0  0  0  0  0  0999 V2000     
   19.4848   20.4360   22.6742 N   0  3  0  0  0  0  0  0  0  0  0  0
   20.2112   20.6870   21.9988 H   0  0  0  0  0  0  0  0  0  0  0  0
   19.9505   20.2792   23.5732 H   0  0  0  0  0  0  0  0  0  0  0  0
   18.8830   21.2576   22.7905 H   0  0  0  0  0  0  0  0  0  0  0  0
   18.6980   19.2189   22.2275 C   0  0  0  0  0  0  0  0  0  0  0  0
   18.1699   19.4661   21.3026 H   0  0  0  0  0  0  0  0  0  0  0  0
   17.9506   19.0199   23.0004 H   0  0  0  0  0  0  0  0  0  0  0  0
   19.5538   17.9520   22.0176 C   0  0  0  0  0  0  0  0  0  0  0  0
   20.2680   17.8400   22.8442 H   0  0  0  0  0  0  0  0  0  0  0  0
   18.8855   17.0827   22.0773 H   0  0  0  0  0  0  0  0  0  0  0  0
   20.2918   17.8932   20.6558 C   0  0  0  0  0  0  0  0  0  0  0  0
   19.5606   17.9425   19.8367 H   0  0  0  0  0  0  0  0  0  0  0  0
   20.7797   16.9121   20.5687 H   0  0  0  0  0  0  0  0  0  0  0  0
   21.3598   18.9930   20.4597 C   0  0  0  0  0  0  0  0  0  0  0  0
   20.9015   19.9803   20.3297 H   0  0  0  0  0  0  0  0  0  0  0  0
   21.9523   18.7916   19.5577 H   0  0  0  0  0  0  0  0  0  0  0  0
   22.0522   19.0326   21.3107 H   0  0  0  0  0  0  0  0  0  0  0  0
  1  2  1  0  0  0  0
  1  3  1  0  0  0  0
  1  4  1  0  0  0  0
  1  5  1  0  0  0  0
  5  6  1  0  0  0  0
  5  7  1  0  0  0  0
  5  8  1  0  0  0  0
  8  9  1  0  0  0  0
  8 10  1  0  0  0  0
  8 11  1  0  0  0  0
 11 12  1  0  0  0  0
 11 13  1  0  0  0  0
 11 14  1  0  0  0  0
 14 15  1  0  0  0  0
 14 16  1  0  0  0  0
 14 17  1  0  0  0  0
M  END
> <VConfSearch Rank>
213

> <Conf_Id>
19

> <Delta U+W>
2.662

> <U+W>
-13.203

> <U>
47.423

> <W>
-60.626

> <W(PB)>
-62.328

> <W(SA)>
1.702

> <Valence>
2.414

> <Coulomb>
44.831

> <VdW>
0.178

> <VdW6>
-3.743

> <VdW12>
3.921

> <Bond>
0.138

> <Angle>
0.941

> <Pdih>
1.335

> <Idih>
0.000

> <Tether>
0.000

$$$$
VeraChem MOL file


 17 16  0  0  0  0  0  0  0  0999 V2000     
   20.0870   19.4767   19.8004 N   0  3  0  0  0  0  0  0  0  0  0  0
   19.6188   19.6892   18.9136 H   0  0  0  0  0  0  0  0  0  0  0  0
   21.0739   19.3092   19.5825 H   0  0  0  0  0  0  0  0  0  0  0  0
   20.0450   20.3227   20.3743 H   0  0  0  0  0  0  0  0  0  0  0  0
   19.4553   18.2896   20.5016 C   0  0  0  0  0  0  0  0  0  0  0  0
   19.5441   17.4347   19.8258 H   0  0  0  0  0  0  0  0  0  0  0  0
   18.3916   18.4966   20.6466 H   0  0  0  0  0  0  0  0  0  0  0  0
   20.1068   17.9313   21.8539 C   0  0  0  0  0  0  0  0  0  0  0  0
   19.8564   16.8862   22.0798 H   0  0  0  0  0  0  0  0  0  0  0  0
   21.2007   17.9663   21.7648 H   0  0  0  0  0  0  0  0  0  0  0  0
   19.6347   18.8027   23.0458 C   0  0  0  0  0  0  0  0  0  0  0  0
   20.0760   18.3972   23.9671 H   0  0  0  0  0  0  0  0  0  0  0  0
   18.5460   18.7090   23.1637 H   0  0  0  0  0  0  0  0  0  0  0  0
   20.0140   20.2969   22.9346 C   0  0  0  0  0  0  0  0  0  0  0  0
   21.0835   20.4219   22.7213 H   0  0  0  0  0  0  0  0  0  0  0  0
   19.8001   20.8149   23.8786 H   0  0  0  0  0  0  0  0  0  0  0  0
   19.4353   20.8018   22.1524 H   0  0  0  0  0  0  0  0  0  0  0  0
  1  2  1  0  0  0  0
  1  3  1  0  0  0  0
  1  4  1  0  0  0  0
  1  5  1  0  0  0  0
  5  6  1  0  0  0  0
  5  7  1  0  0  0  0
  5  8  1  0  0  0  0
  8  9  1  0  0  0  0
  8 10  1  0  0  0  0
  8 11  1  0  0  0  0
 11 12  1  0  0  0  0
 11 13  1  0  0  0  0
 11 14  1  0  0  0  0
 14 15  1  0  0  0  0
 14 16  1  0  0  0  0
 14 17  1  0  0  0  0
M  END
> <VConfSearch Rank>
214

> <Conf_Id>
44

> <Delta U+W>
2.712

> <U+W>
-13.153

> <U>
47.423

> <W>
-60.576

> <W(PB)>
-62.262

> <W(SA)>
1.687

> <Valence>
2.414

> <Coulomb>
44.831

> <VdW>
0.178

> <VdW6>
-3.743

> <VdW12>
3.922

> <Bond>
0.138

> <Angle>
0.941

> <Pdih>
1.335

> <Idih>
0.000

> <Tether>
0.000

$$$$
VeraChem MOL file


 17 16  0  0  0  0  0  0  0  0999 V2000     
   18.9809   17.2932   21.4609 N   0  3  0  0  0  0  0  0  0  0  0  0
   18.3829   17.9131   22.0146 H   0  0  0  0  0  0  0  0  0  0  0  0
   19.3774   16.6012   22.1039 H   0  0  0  0  0  0  0  0  0  0  0  0
   18.3681   16.7836   20.8163 H   0  0  0  0  0  0  0  0  0  0  0  0
   20.0591   18.0637   20.7237 C   0  0  0  0  0  0  0  0  0  0  0  0
   19.5699   18.7595   20.0372 H   0  0  0  0  0  0  0  0  0  0  0  0
   20.6317   17.3477   20.1279 H   0  0  0  0  0  0  0  0  0  0  0  0
   21.0176   18.8370   21.6528 C   0  0  0  0  0  0  0  0  0  0  0  0
   21.5341   18.1254   22.3106 H   0  0  0  0  0  0  0  0  0  0  0  0
   21.7975   19.3078   21.0396 H   0  0  0  0  0  0  0  0  0  0  0  0
   20.3226   19.9213   22.5134 C   0  0  0  0  0  0  0  0  0  0  0  0
   21.0770   20.4057   23.1492 H   0  0  0  0  0  0  0  0  0  0  0  0
   19.6026   19.4548   23.1995 H   0  0  0  0  0  0  0  0  0  0  0  0
   19.6107   21.0016   21.6672 C   0  0  0  0  0  0  0  0  0  0  0  0
   20.3110   21.4840   20.9730 H   0  0  0  0  0  0  0  0  0  0  0  0
   19.1898   21.7821   22.3142 H   0  0  0  0  0  0  0  0  0  0  0  0
   18.7857   20.5771   21.0814 H   0  0  0  0  0  0  0  0  0  0  0  0
  1  2  1  0  0  0  0
  1  3  1  0  0  0  0
  1  4  1  0  0  0  0
  1  5  1  0  0  0  0
  5  6  1  0  0  0  0
  5  7  1  0  0  0  0
  5  8  1  0  0  0  0
  8  9  1  0  0  0  0
  8 10  1  0  0  0  0
  8 11  1  0  0  0  0
 11 12  1  0  0  0  0
 11 13  1  0  0  0  0
 11 14  1  0  0  0  0
 14 15  1  0  0  0  0
 14 16  1  0  0  0  0
 14 17  1  0  0  0  0
M  END
> <VConfSearch Rank>
215

> <Conf_Id>
1

> <Delta U+W>
0.685

> <U+W>
-15.179

> <U>
45.697

> <W>
-60.876

> <W(PB)>
-62.586

> <W(SA)>
1.710

> <Valence>
1.263

> <Coulomb>
44.179

> <VdW>
0.255

> <VdW6>
-3.552

> <VdW12>
3.807

> <Bond>
0.125

> <Angle>
0.616

> <Pdih>
0.521

> <Idih>
0.000

> <Tether>
0.000

$$$$
VeraChem MOL file


 17 16  0  0  0  0  0  0  0  0999 V2000     
   17.9827   18.8234   21.9565 N   0  3  0  0  0  0  0  0  0  0  0  0
   17.4203   19.0912   21.1432 H   0  0  0  0  0  0  0  0  0  0  0  0
   18.2828   19.6883   22.4151 H   0  0  0  0  0  0  0  0  0  0  0  0
   17.3541   18.3421   22.6075 H   0  0  0  0  0  0  0  0  0  0  0  0
   19.1635   17.9552   21.5667 C   0  0  0  0  0  0  0  0  0  0  0  0
   18.7695   17.0383   21.1200 H   0  0  0  0  0  0  0  0  0  0  0  0
   19.7003   17.6828   22.4791 H   0  0  0  0  0  0  0  0  0  0  0  0
   20.1328   18.6310   20.5749 C   0  0  0  0  0  0  0  0  0  0  0  0
   20.9150   17.9103   20.3020 H   0  0  0  0  0  0  0  0  0  0  0  0
   19.5943   18.8638   19.6467 H   0  0  0  0  0  0  0  0  0  0  0  0
   20.7961   19.9198   21.1214 C   0  0  0  0  0  0  0  0  0  0  0  0
   20.0322   20.6855   21.3132 H   0  0  0  0  0  0  0  0  0  0  0  0
   21.4538   20.3356   20.3452 H   0  0  0  0  0  0  0  0  0  0  0  0
   21.6241   19.6775   22.4042 C   0  0  0  0  0  0  0  0  0  0  0  0
   22.1275   20.6012   22.7177 H   0  0  0  0  0  0  0  0  0  0  0  0
   22.3964   18.9155   22.2373 H   0  0  0  0  0  0  0  0  0  0  0  0
   20.9910   19.3467   23.2371 H   0  0  0  0  0  0  0  0  0  0  0  0
  1  2  1  0  0  0  0
  1  3  1  0  0  0  0
  1  4  1  0  0  0  0
  1  5  1  0  0  0  0
  5  6  1  0  0  0  0
  5  7  1  0  0  0  0
  5  8  1  0  0  0  0
  8  9  1  0  0  0  0
  8 10  1  0  0  0  0
  8 11  1  0  0  0  0
 11 12  1  0  0  0  0
 11 13  1  0  0  0  0
 11 14  1  0  0  0  0
 14 15  1  0  0  0  0
 14 16  1  0  0  0  0
 14 17  1  0  0  0  0
M  END
> <VConfSearch Rank>
216

> <Conf_Id>
43

> <Delta U+W>
0.642

> <U+W>
-15.222

> <U>
45.697

> <W>
-60.919

> <W(PB)>
-62.631

> <W(SA)>
1.712

> <Valence>
1.262

> <Coulomb>
44.179

> <VdW>
0.255

> <VdW6>
-3.552

> <VdW12>
3.807

> <Bond>
0.125

> <Angle>
0.616

> <Pdih>
0.521

> <Idih>
0.000

> <Tether>
0.000

$$$$
VeraChem MOL file


 17 16  0  0  0  0  0  0  0  0999 V2000     
   21.4703   20.8223   20.5098 N   0  3  0  0  0  0  0  0  0  0  0  0
   21.9229   21.1575   21.3657 H   0  0  0  0  0  0  0  0  0  0  0  0
   20.7377   21.4981   20.2726 H   0  0  0  0  0  0  0  0  0  0  0  0
   22.1723   20.8725   19.7644 H   0  0  0  0  0  0  0  0  0  0  0  0
   20.9186   19.4198   20.6709 C   0  0  0  0  0  0  0  0  0  0  0  0
   21.7552   18.7512   20.8912 H   0  0  0  0  0  0  0  0  0  0  0  0
   20.4808   19.1175   19.7157 H   0  0  0  0  0  0  0  0  0  0  0  0
   19.8603   19.3082   21.7835 C   0  0  0  0  0  0  0  0  0  0  0  0
   20.2991   19.6273   22.7383 H   0  0  0  0  0  0  0  0  0  0  0  0
   19.0290   19.9922   21.5669 H   0  0  0  0  0  0  0  0  0  0  0  0
   19.3252   17.8653   21.9142 C   0  0  0  0  0  0  0  0  0  0  0  0
   20.1574   17.1796   22.1278 H   0  0  0  0  0  0  0  0  0  0  0  0
   18.8888   17.5441   20.9578 H   0  0  0  0  0  0  0  0  0  0  0  0
   18.2631   17.7456   23.0285 C   0  0  0  0  0  0  0  0  0  0  0  0
   17.8960   16.7139   23.1052 H   0  0  0  0  0  0  0  0  0  0  0  0
   17.4015   18.3948   22.8249 H   0  0  0  0  0  0  0  0  0  0  0  0
   18.6801   18.0275   24.0041 H   0  0  0  0  0  0  0  0  0  0  0  0
  1  2  1  0  0  0  0
  1  3  1  0  0  0  0
  1  4  1  0  0  0  0
  1  5  1  0  0  0  0
  5  6  1  0  0  0  0
  5  7  1  0  0  0  0
  5  8  1  0  0  0  0
  8  9  1  0  0  0  0
  8 10  1  0  0  0  0
  8 11  1  0  0  0  0
 11 12  1  0  0  0  0
 11 13  1  0  0  0  0
 11 14  1  0  0  0  0
 14 15  1  0  0  0  0
 14 16  1  0  0  0  0
 14 17  1  0  0  0  0
M  END
> <VConfSearch Rank>
217

> <Conf_Id>
7

> <Delta U+W>
0.000

> <U+W>
-15.865

> <U>
44.664

> <W>
-60.529

> <W(PB)>
-62.309

> <W(SA)>
1.780

> <Valence>
0.872

> <Coulomb>
43.648

> <VdW>
0.144

> <VdW6>
-2.370

> <VdW12>
2.515

> <Bond>
0.080

> <Angle>
0.376

> <Pdih>
0.416

> <Idih>
0.000

> <Tether>
0.000

$$$$
VeraChem MOL file


 17 16  0  0  0  0  0  0  0  0999 V2000     
   21.2297   17.3760   20.5358 N   0  3  0  0  0  0  0  0  0  0  0  0
   20.6144   16.8407   19.9157 H   0  0  0  0  0  0  0  0  0  0  0  0
   21.4063   16.7937   21.3600 H   0  0  0  0  0  0  0  0  0  0  0  0
   22.1254   17.4787   20.0480 H   0  0  0  0  0  0  0  0  0  0  0  0
   20.6327   18.7189   20.9069 C   0  0  0  0  0  0  0  0  0  0  0  0
   20.4999   19.2954   19.9875 H   0  0  0  0  0  0  0  0  0  0  0  0
   21.3535   19.2435   21.5396 H   0  0  0  0  0  0  0  0  0  0  0  0
   19.2843   18.6009   21.6430 C   0  0  0  0  0  0  0  0  0  0  0  0
   18.5802   18.0379   21.0160 H   0  0  0  0  0  0  0  0  0  0  0  0
   19.4174   18.0204   22.5656 H   0  0  0  0  0  0  0  0  0  0  0  0
   18.6669   19.9780   21.9812 C   0  0  0  0  0  0  0  0  0  0  0  0
   17.6753   19.8242   22.4296 H   0  0  0  0  0  0  0  0  0  0  0  0
   18.5021   20.5474   21.0555 H   0  0  0  0  0  0  0  0  0  0  0  0
   19.5366   20.8078   22.9533 C   0  0  0  0  0  0  0  0  0  0  0  0
   19.7214   20.2582   23.8854 H   0  0  0  0  0  0  0  0  0  0  0  0
   19.0330   21.7479   23.2133 H   0  0  0  0  0  0  0  0  0  0  0  0
   20.5063   21.0642   22.5084 H   0  0  0  0  0  0  0  0  0  0  0  0
  1  2  1  0  0  0  0
  1  3  1  0  0  0  0
  1  4  1  0  0  0  0
  1  5  1  0  0  0  0
  5  6  1  0  0  0  0
  5  7  1  0  0  0  0
  5  8  1  0  0  0  0
  8  9  1  0  0  0  0
  8 10  1  0  0  0  0
  8 11  1  0  0  0  0
 11 12  1  0  0  0  0
 11 13  1  0  0  0  0
 11 14  1  0  0  0  0
 14 15  1  0  0  0  0
 14 16  1  0  0  0  0
 14 17  1  0  0  0  0
M  END
> <VConfSearch Rank>
218

> <Conf_Id>
36

> <Delta U+W>
0.275

> <U+W>
-15.590

> <U>
45.174

> <W>
-60.765

> <W(PB)>
-62.518

> <W(SA)>
1.754

> <Valence>
1.161

> <Coulomb>
43.789

> <VdW>
0.224

> <VdW6>
-2.897

> <VdW12>
3.121

> <Bond>
0.100

> <Angle>
0.500

> <Pdih>
0.561

> <Idih>
0.000

> <Tether>
0.000

$$$$
VeraChem MOL file


 17 16  0  0  0  0  0  0  0  0999 V2000     
   21.0233   17.4904   21.7944 N   0  3  0  0  0  0  0  0  0  0  0  0
   21.4400   18.1711   21.1543 H   0  0  0  0  0  0  0  0  0  0  0  0
   20.5983   16.7568   21.2192 H   0  0  0  0  0  0  0  0  0  0  0  0
   21.7917   17.0533   22.3134 H   0  0  0  0  0  0  0  0  0  0  0  0
   20.0118   18.1363   22.7216 C   0  0  0  0  0  0  0  0  0  0  0  0
   20.5326   18.8590   23.3556 H   0  0  0  0  0  0  0  0  0  0  0  0
   19.6169   17.3453   23.3650 H   0  0  0  0  0  0  0  0  0  0  0  0
   18.8379   18.8279   21.9969 C   0  0  0  0  0  0  0  0  0  0  0  0
   18.4699   18.1888   21.1833 H   0  0  0  0  0  0  0  0  0  0  0  0
   18.0079   18.9144   22.7107 H   0  0  0  0  0  0  0  0  0  0  0  0
   19.1582   20.2478   21.4642 C   0  0  0  0  0  0  0  0  0  0  0  0
   19.4647   20.8950   22.2981 H   0  0  0  0  0  0  0  0  0  0  0  0
   18.2320   20.6848   21.0651 H   0  0  0  0  0  0  0  0  0  0  0  0
   20.2373   20.2871   20.3583 C   0  0  0  0  0  0  0  0  0  0  0  0
   21.2319   20.0584   20.7584 H   0  0  0  0  0  0  0  0  0  0  0  0
   20.2912   21.2899   19.9148 H   0  0  0  0  0  0  0  0  0  0  0  0
   20.0077   19.5785   19.5520 H   0  0  0  0  0  0  0  0  0  0  0  0
  1  2  1  0  0  0  0
  1  3  1  0  0  0  0
  1  4  1  0  0  0  0
  1  5  1  0  0  0  0
  5  6  1  0  0  0  0
  5  7  1  0  0  0  0
  5  8  1  0  0  0  0
  8  9  1  0  0  0  0
  8 10  1  0  0  0  0
  8 11  1  0  0  0  0
 11 12  1  0  0  0  0
 11 13  1  0  0  0  0
 11 14  1  0  0  0  0
 14 15  1  0  0  0  0
 14 16  1  0  0  0  0
 14 17  1  0  0  0  0
M  END
> <VConfSearch Rank>
219

> <Conf_Id>
19

> <Delta U+W>
2.662

> <U+W>
-13.203

> <U>
47.423

> <W>
-60.626

> <W(PB)>
-62.328

> <W(SA)>
1.702

> <Valence>
2.414

> <Coulomb>
44.831

> <VdW>
0.178

> <VdW6>
-3.743

> <VdW12>
3.921

> <Bond>
0.138

> <Angle>
0.941

> <Pdih>
1.335

> <Idih>
0.000

> <Tether>
0.000

$$$$
VeraChem MOL file


 17 16  0  0  0  0  0  0  0  0999 V2000     
   19.3138   20.2289   22.9313 N   0  3  0  0  0  0  0  0  0  0  0  0
   18.5164   20.6953   23.3756 H   0  0  0  0  0  0  0  0  0  0  0  0
   20.1602   20.6787   23.2927 H   0  0  0  0  0  0  0  0  0  0  0  0
   19.3216   19.2614   23.2642 H   0  0  0  0  0  0  0  0  0  0  0  0
   19.2388   20.3022   21.4183 C   0  0  0  0  0  0  0  0  0  0  0  0
   19.2371   21.3619   21.1492 H   0  0  0  0  0  0  0  0  0  0  0  0
   18.2877   19.8702   21.0956 H   0  0  0  0  0  0  0  0  0  0  0  0
   20.4049   19.6005   20.6906 C   0  0  0  0  0  0  0  0  0  0  0  0
   20.4699   20.0217   19.6786 H   0  0  0  0  0  0  0  0  0  0  0  0
   21.3560   19.8466   21.1809 H   0  0  0  0  0  0  0  0  0  0  0  0
   20.2483   18.0641   20.5581 C   0  0  0  0  0  0  0  0  0  0  0  0
   21.0725   17.6845   19.9380 H   0  0  0  0  0  0  0  0  0  0  0  0
   19.3242   17.8327   20.0100 H   0  0  0  0  0  0  0  0  0  0  0  0
   20.2535   17.3028   21.9033 C   0  0  0  0  0  0  0  0  0  0  0  0
   21.1185   17.5850   22.5176 H   0  0  0  0  0  0  0  0  0  0  0  0
   20.3088   16.2206   21.7278 H   0  0  0  0  0  0  0  0  0  0  0  0
   19.3370   17.4897   22.4749 H   0  0  0  0  0  0  0  0  0  0  0  0
  1  2  1  0  0  0  0
  1  3  1  0  0  0  0
  1  4  1  0  0  0  0
  1  5  1  0  0  0  0
  5  6  1  0  0  0  0
  5  7  1  0  0  0  0
  5  8  1  0  0  0  0
  8  9  1  0  0  0  0
  8 10  1  0  0  0  0
  8 11  1  0  0  0  0
 11 12  1  0  0  0  0
 11 13  1  0  0  0  0
 11 14  1  0  0  0  0
 14 15  1  0  0  0  0
 14 16  1  0  0  0  0
 14 17  1  0  0  0  0
M  END
> <VConfSearch Rank>
220

> <Conf_Id>
44

> <Delta U+W>
2.712

> <U+W>
-13.153

> <U>
47.423

> <W>
-60.576

> <W(PB)>
-62.262

> <W(SA)>
1.687

> <Valence>
2.414

> <Coulomb>
44.831

> <VdW>
0.178

> <VdW6>
-3.743

> <VdW12>
3.922

> <Bond>
0.138

> <Angle>
0.941

> <Pdih>
1.335

> <Idih>
0.000

> <Tether>
0.000

$$$$
VeraChem MOL file


 17 16  0  0  0  0  0  0  0  0999 V2000     
   19.3575   20.8765   21.0958 N   0  3  0  0  0  0  0  0  0  0  0  0
   20.2666   20.9561   21.5603 H   0  0  0  0  0  0  0  0  0  0  0  0
   18.6538   21.2453   21.7425 H   0  0  0  0  0  0  0  0  0  0  0  0
   19.3783   21.5067   20.2877 H   0  0  0  0  0  0  0  0  0  0  0  0
   19.0578   19.4468   20.6886 C   0  0  0  0  0  0  0  0  0  0  0  0
   19.8261   19.1276   19.9796 H   0  0  0  0  0  0  0  0  0  0  0  0
   18.0959   19.4433   20.1686 H   0  0  0  0  0  0  0  0  0  0  0  0
   19.0014   18.4606   21.8735 C   0  0  0  0  0  0  0  0  0  0  0  0
   18.2000   18.7664   22.5591 H   0  0  0  0  0  0  0  0  0  0  0  0
   18.7169   17.4705   21.4932 H   0  0  0  0  0  0  0  0  0  0  0  0
   20.3317   18.3417   22.6582 C   0  0  0  0  0  0  0  0  0  0  0  0
   20.1918   17.6330   23.4865 H   0  0  0  0  0  0  0  0  0  0  0  0
   20.5834   19.3048   23.1228 H   0  0  0  0  0  0  0  0  0  0  0  0
   21.5112   17.8627   21.7812 C   0  0  0  0  0  0  0  0  0  0  0  0
   21.2838   16.8996   21.3059 H   0  0  0  0  0  0  0  0  0  0  0  0
   22.4148   17.7302   22.3902 H   0  0  0  0  0  0  0  0  0  0  0  0
   21.7477   18.5869   20.9916 H   0  0  0  0  0  0  0  0  0  0  0  0
  1  2  1  0  0  0  0
  1  3  1  0  0  0  0
  1  4  1  0  0  0  0
  1  5  1  0  0  0  0
  5  6  1  0  0  0  0
  5  7  1  0  0  0  0
  5  8  1  0  0  0  0
  8  9  1  0  0  0  0
  8 10  1  0  0  0  0
  8 11  1  0  0  0  0
 11 12  1  0  0  0  0
 11 13  1  0  0  0  0
 11 14  1  0  0  0  0
 14 15  1  0  0  0  0
 14 16  1  0  0  0  0
 14 17  1  0  0  0  0
M  END
> <VConfSearch Rank>
221

> <Conf_Id>
1

> <Delta U+W>
0.685

> <U+W>
-15.179

> <U>
45.697

> <W>
-60.876

> <W(PB)>
-62.586

> <W(SA)>
1.710

> <Valence>
1.263

> <Coulomb>
44.179

> <VdW>
0.255

> <VdW6>
-3.552

> <VdW12>
3.807

> <Bond>
0.125

> <Angle>
0.616

> <Pdih>
0.521

> <Idih>
0.000

> <Tether>
0.000

$$$$
VeraChem MOL file


 17 16  0  0  0  0  0  0  0  0999 V2000     
   20.4005   20.8305   22.2904 N   0  3  0  0  0  0  0  0  0  0  0  0
   20.6535   21.4700   21.5312 H   0  0  0  0  0  0  0  0  0  0  0  0
   21.2075   20.2223   22.4554 H   0  0  0  0  0  0  0  0  0  0  0  0
   20.2792   21.4018   23.1327 H   0  0  0  0  0  0  0  0  0  0  0  0
   19.1526   20.0324   21.9657 C   0  0  0  0  0  0  0  0  0  0  0  0
   18.3283   20.7397   21.8398 H   0  0  0  0  0  0  0  0  0  0  0  0
   18.9235   19.3962   22.8245 H   0  0  0  0  0  0  0  0  0  0  0  0
   19.2804   19.1659   20.6957 C   0  0  0  0  0  0  0  0  0  0  0  0
   18.3152   18.6783   20.5046 H   0  0  0  0  0  0  0  0  0  0  0  0
   19.4698   19.8175   19.8324 H   0  0  0  0  0  0  0  0  0  0  0  0
   20.3887   18.0868   20.7782 C   0  0  0  0  0  0  0  0  0  0  0  0
   21.3733   18.5636   20.8775 H   0  0  0  0  0  0  0  0  0  0  0  0
   20.4144   17.5329   19.8293 H   0  0  0  0  0  0  0  0  0  0  0  0
   20.1751   17.0869   21.9377 C   0  0  0  0  0  0  0  0  0  0  0  0
   20.9448   16.3045   21.9181 H   0  0  0  0  0  0  0  0  0  0  0  0
   19.1965   16.5957   21.8599 H   0  0  0  0  0  0  0  0  0  0  0  0
   20.2326   17.5830   22.9147 H   0  0  0  0  0  0  0  0  0  0  0  0
  1  2  1  0  0  0  0
  1  3  1  0  0  0  0
  1  4  1  0  0  0  0
  1  5  1  0  0  0  0
  5  6  1  0  0  0  0
  5  7  1  0  0  0  0
  5  8  1  0  0  0  0
  8  9  1  0  0  0  0
  8 10  1  0  0  0  0
  8 11  1  0  0  0  0
 11 12  1  0  0  0  0
 11 13  1  0  0  0  0
 11 14  1  0  0  0  0
 14 15  1  0  0  0  0
 14 16  1  0  0  0  0
 14 17  1  0  0  0  0
M  END
> <VConfSearch Rank>
222

> <Conf_Id>
43

> <Delta U+W>
0.642

> <U+W>
-15.222

> <U>
45.697

> <W>
-60.919

> <W(PB)>
-62.631

> <W(SA)>
1.712

> <Valence>
1.262

> <Coulomb>
44.179

> <VdW>
0.255

> <VdW6>
-3.552

> <VdW12>
3.807

> <Bond>
0.125

> <Angle>
0.616

> <Pdih>
0.521

> <Idih>
0.000

> <Tether>
0.000

$$$$
VeraChem MOL file


 17 16  0  0  0  0  0  0  0  0999 V2000     
   21.7445   17.2602   21.9868 N   0  3  0  0  0  0  0  0  0  0  0  0
   21.9763   17.5078   22.9536 H   0  0  0  0  0  0  0  0  0  0  0  0
   22.4717   17.6659   21.3899 H   0  0  0  0  0  0  0  0  0  0  0  0
   21.8341   16.2418   21.9121 H   0  0  0  0  0  0  0  0  0  0  0  0
   20.3590   17.7343   21.5958 C   0  0  0  0  0  0  0  0  0  0  0  0
   19.6359   17.2403   22.2504 H   0  0  0  0  0  0  0  0  0  0  0  0
   20.1686   17.4103   20.5690 H   0  0  0  0  0  0  0  0  0  0  0  0
   20.1893   19.2612   21.6964 C   0  0  0  0  0  0  0  0  0  0  0  0
   20.3963   19.5847   22.7252 H   0  0  0  0  0  0  0  0  0  0  0  0
   20.9271   19.7542   21.0494 H   0  0  0  0  0  0  0  0  0  0  0  0
   18.7657   19.7013   21.2900 C   0  0  0  0  0  0  0  0  0  0  0  0
   18.0265   19.2056   21.9352 H   0  0  0  0  0  0  0  0  0  0  0  0
   18.5566   19.3749   20.2614 H   0  0  0  0  0  0  0  0  0  0  0  0
   18.5879   21.2319   21.3886 C   0  0  0  0  0  0  0  0  0  0  0  0
   17.5710   21.5239   21.0961 H   0  0  0  0  0  0  0  0  0  0  0  0
   19.2912   21.7550   20.7275 H   0  0  0  0  0  0  0  0  0  0  0  0
   18.7570   21.5843   22.4145 H   0  0  0  0  0  0  0  0  0  0  0  0
  1  2  1  0  0  0  0
  1  3  1  0  0  0  0
  1  4  1  0  0  0  0
  1  5  1  0  0  0  0
  5  6  1  0  0  0  0
  5  7  1  0  0  0  0
  5  8  1  0  0  0  0
  8  9  1  0  0  0  0
  8 10  1  0  0  0  0
  8 11  1  0  0  0  0
 11 12  1  0  0  0  0
 11 13  1  0  0  0  0
 11 14  1  0  0  0  0
 14 15  1  0  0  0  0
 14 16  1  0  0  0  0
 14 17  1  0  0  0  0
M  END
> <VConfSearch Rank>
223

> <Conf_Id>
7

> <Delta U+W>
0.000

> <U+W>
-15.865

> <U>
44.664

> <W>
-60.529

> <W(PB)>
-62.309

> <W(SA)>
1.780

> <Valence>
0.872

> <Coulomb>
43.648

> <VdW>
0.144

> <VdW6>
-2.370

> <VdW12>
2.515

> <Bond>
0.080

> <Angle>
0.376

> <Pdih>
0.416

> <Idih>
0.000

> <Tether>
0.000

$$$$
VeraChem MOL file


 17 16  0  0  0  0  0  0  0  0999 V2000     
   20.6096   19.8309   19.4240 N   0  3  0  0  0  0  0  0  0  0  0  0
   19.9644   20.5609   19.1071 H   0  0  0  0  0  0  0  0  0  0  0  0
   20.3724   18.9765   18.9108 H   0  0  0  0  0  0  0  0  0  0  0  0
   21.5469   20.1104   19.1170 H   0  0  0  0  0  0  0  0  0  0  0  0
   20.5450   19.6282   20.9247 C   0  0  0  0  0  0  0  0  0  0  0  0
   20.8376   20.5657   21.4052 H   0  0  0  0  0  0  0  0  0  0  0  0
   21.2778   18.8624   21.1920 H   0  0  0  0  0  0  0  0  0  0  0  0
   19.1484   19.2066   21.4203 C   0  0  0  0  0  0  0  0  0  0  0  0
   18.4139   19.9624   21.1120 H   0  0  0  0  0  0  0  0  0  0  0  0
   18.8538   18.2659   20.9364 H   0  0  0  0  0  0  0  0  0  0  0  0
   19.0856   19.0412   22.9568 C   0  0  0  0  0  0  0  0  0  0  0  0
   18.0497   18.8203   23.2500 H   0  0  0  0  0  0  0  0  0  0  0  0
   19.3480   19.9916   23.4426 H   0  0  0  0  0  0  0  0  0  0  0  0
   20.0087   17.9176   23.4818 C   0  0  0  0  0  0  0  0  0  0  0  0
   19.7710   16.9568   23.0069 H   0  0  0  0  0  0  0  0  0  0  0  0
   19.8868   17.7944   24.5658 H   0  0  0  0  0  0  0  0  0  0  0  0
   21.0658   18.1420   23.2914 H   0  0  0  0  0  0  0  0  0  0  0  0
  1  2  1  0  0  0  0
  1  3  1  0  0  0  0
  1  4  1  0  0  0  0
  1  5  1  0  0  0  0
  5  6  1  0  0  0  0
  5  7  1  0  0  0  0
  5  8  1  0  0  0  0
  8  9  1  0  0  0  0
  8 10  1  0  0  0  0
  8 11  1  0  0  0  0
 11 12  1  0  0  0  0
 11 13  1  0  0  0  0
 11 14  1  0  0  0  0
 14 15  1  0  0  0  0
 14 16  1  0  0  0  0
 14 17  1  0  0  0  0
M  END
> <VConfSearch Rank>
224

> <Conf_Id>
36

> <Delta U+W>
0.275

> <U+W>
-15.590

> <U>
45.174

> <W>
-60.765

> <W(PB)>
-62.518

> <W(SA)>
1.754

> <Valence>
1.161

> <Coulomb>
43.789

> <VdW>
0.224

> <VdW6>
-2.897

> <VdW12>
3.121

> <Bond>
0.100

> <Angle>
0.500

> <Pdih>
0.561

> <Idih>
0.000

> <Tether>
0.000

$$$$
VeraChem MOL file


 17 16  0  0  0  0  0  0  0  0999 V2000     
   19.0693   20.4954   20.9492 N   0  3  0  0  0  0  0  0  0  0  0  0
   18.5084   20.0229   21.6626 H   0  0  0  0  0  0  0  0  0  0  0  0
   18.6848   20.2285   20.0379 H   0  0  0  0  0  0  0  0  0  0  0  0
   18.9089   21.5022   21.0562 H   0  0  0  0  0  0  0  0  0  0  0  0
   20.5398   20.1429   21.0655 C   0  0  0  0  0  0  0  0  0  0  0  0
   20.9110   20.5106   22.0259 H   0  0  0  0  0  0  0  0  0  0  0  0
   21.0621   20.6841   20.2719 H   0  0  0  0  0  0  0  0  0  0  0  0
   20.8435   18.6359   20.9305 C   0  0  0  0  0  0  0  0  0  0  0  0
   20.2664   18.2094   20.0993 H   0  0  0  0  0  0  0  0  0  0  0  0
   21.8997   18.5311   20.6487 H   0  0  0  0  0  0  0  0  0  0  0  0
   20.6119   17.8150   22.2248 C   0  0  0  0  0  0  0  0  0  0  0  0
   21.2427   18.2125   23.0324 H   0  0  0  0  0  0  0  0  0  0  0  0
   20.9567   16.7864   22.0485 H   0  0  0  0  0  0  0  0  0  0  0  0
   19.1408   17.7670   22.6964 C   0  0  0  0  0  0  0  0  0  0  0  0
   18.8106   18.7379   23.0836 H   0  0  0  0  0  0  0  0  0  0  0  0
   19.0258   17.0395   23.5104 H   0  0  0  0  0  0  0  0  0  0  0  0
   18.4707   17.4635   21.8816 H   0  0  0  0  0  0  0  0  0  0  0  0
  1  2  1  0  0  0  0
  1  3  1  0  0  0  0
  1  4  1  0  0  0  0
  1  5  1  0  0  0  0
  5  6  1  0  0  0  0
  5  7  1  0  0  0  0
  5  8  1  0  0  0  0
  8  9  1  0  0  0  0
  8 10  1  0  0  0  0
  8 11  1  0  0  0  0
 11 12  1  0  0  0  0
 11 13  1  0  0  0  0
 11 14  1  0  0  0  0
 14 15  1  0  0  0  0
 14 16  1  0  0  0  0
 14 17  1  0  0  0  0
M  END
> <VConfSearch Rank>
225

> <Conf_Id>
19

> <Delta U+W>
2.662

> <U+W>
-13.203

> <U>
47.423

> <W>
-60.626

> <W(PB)>
-62.328

> <W(SA)>
1.702

> <Valence>
2.414

> <Coulomb>
44.831

> <VdW>
0.178

> <VdW6>
-3.743

> <VdW12>
3.921

> <Bond>
0.138

> <Angle>
0.941

> <Pdih>
1.335

> <Idih>
0.000

> <Tether>
0.000

$$$$
VeraChem MOL file


 17 16  0  0  0  0  0  0  0  0999 V2000     
   21.5914   18.3925   21.3168 N   0  3  0  0  0  0  0  0  0  0  0  0
   22.1638   17.5637   21.1267 H   0  0  0  0  0  0  0  0  0  0  0  0
   22.2362   19.1469   21.5709 H   0  0  0  0  0  0  0  0  0  0  0  0
   21.1466   18.6609   20.4353 H   0  0  0  0  0  0  0  0  0  0  0  0
   20.5689   18.1342   22.4067 C   0  0  0  0  0  0  0  0  0  0  0  0
   21.1242   17.8574   23.3070 H   0  0  0  0  0  0  0  0  0  0  0  0
   19.9549   17.2788   22.1123 H   0  0  0  0  0  0  0  0  0  0  0  0
   19.6631   19.3421   22.7260 C   0  0  0  0  0  0  0  0  0  0  0  0
   19.2509   19.1946   23.7331 H   0  0  0  0  0  0  0  0  0  0  0  0
   20.2647   20.2592   22.7783 H   0  0  0  0  0  0  0  0  0  0  0  0
   18.4755   19.5313   21.7481 C   0  0  0  0  0  0  0  0  0  0  0  0
   17.8424   20.3463   22.1261 H   0  0  0  0  0  0  0  0  0  0  0  0
   17.8458   18.6304   21.7527 H   0  0  0  0  0  0  0  0  0  0  0  0
   18.8897   19.8626   20.2963 C   0  0  0  0  0  0  0  0  0  0  0  0
   19.5966   20.7019   20.2651 H   0  0  0  0  0  0  0  0  0  0  0  0
   18.0095   20.1466   19.7049 H   0  0  0  0  0  0  0  0  0  0  0  0
   19.3449   18.9974   19.8004 H   0  0  0  0  0  0  0  0  0  0  0  0
  1  2  1  0  0  0  0
  1  3  1  0  0  0  0
  1  4  1  0  0  0  0
  1  5  1  0  0  0  0
  5  6  1  0  0  0  0
  5  7  1  0  0  0  0
  5  8  1  0  0  0  0
  8  9  1  0  0  0  0
  8 10  1  0  0  0  0
  8 11  1  0  0  0  0
 11 12  1  0  0  0  0
 11 13  1  0  0  0  0
 11 14  1  0  0  0  0
 14 15  1  0  0  0  0
 14 16  1  0  0  0  0
 14 17  1  0  0  0  0
M  END
> <VConfSearch Rank>
226

> <Conf_Id>
44

> <Delta U+W>
2.712

> <U+W>
-13.153

> <U>
47.423

> <W>
-60.576

> <W(PB)>
-62.262

> <W(SA)>
1.687

> <Valence>
2.414

> <Coulomb>
44.831

> <VdW>
0.178

> <VdW6>
-3.743

> <VdW12>
3.922

> <Bond>
0.138

> <Angle>
0.941

> <Pdih>
1.335

> <Idih>
0.000

> <Tether>
0.000

$$$$
VeraChem MOL file


 17 16  0  0  0  0  0  0  0  0999 V2000     
   20.1401   18.8561   23.5647 N   0  3  0  0  0  0  0  0  0  0  0  0
   21.0173   18.5512   23.1334 H   0  0  0  0  0  0  0  0  0  0  0  0
   19.6700   18.0182   23.9199 H   0  0  0  0  0  0  0  0  0  0  0  0
   20.3895   19.4255   24.3798 H   0  0  0  0  0  0  0  0  0  0  0  0
   19.2697   19.6217   22.5869 C   0  0  0  0  0  0  0  0  0  0  0  0
   19.8169   20.5140   22.2719 H   0  0  0  0  0  0  0  0  0  0  0  0
   18.3736   19.9465   23.1226 H   0  0  0  0  0  0  0  0  0  0  0  0
   18.8549   18.8014   21.3480 C   0  0  0  0  0  0  0  0  0  0  0  0
   18.2713   17.9295   21.6719 H   0  0  0  0  0  0  0  0  0  0  0  0
   18.1787   19.4106   20.7337 H   0  0  0  0  0  0  0  0  0  0  0  0
   20.0460   18.3283   20.4780 C   0  0  0  0  0  0  0  0  0  0  0  0
   19.6565   17.7437   19.6327 H   0  0  0  0  0  0  0  0  0  0  0  0
   20.6841   17.6427   21.0520 H   0  0  0  0  0  0  0  0  0  0  0  0
   20.8976   19.4966   19.9305 C   0  0  0  0  0  0  0  0  0  0  0  0
   20.2814   20.1964   19.3511 H   0  0  0  0  0  0  0  0  0  0  0  0
   21.6881   19.1197   19.2686 H   0  0  0  0  0  0  0  0  0  0  0  0
   21.3828   20.0566   20.7397 H   0  0  0  0  0  0  0  0  0  0  0  0
  1  2  1  0  0  0  0
  1  3  1  0  0  0  0
  1  4  1  0  0  0  0
  1  5  1  0  0  0  0
  5  6  1  0  0  0  0
  5  7  1  0  0  0  0
  5  8  1  0  0  0  0
  8  9  1  0  0  0  0
  8 10  1  0  0  0  0
  8 11  1  0  0  0  0
 11 12  1  0  0  0  0
 11 13  1  0  0  0  0
 11 14  1  0  0  0  0
 14 15  1  0  0  0  0
 14 16  1  0  0  0  0
 14 17  1  0  0  0  0
M  END
> <VConfSearch Rank>
227

> <Conf_Id>
1

> <Delta U+W>
0.685

> <U+W>
-15.179

> <U>
45.697

> <W>
-60.876

> <W(PB)>
-62.586

> <W(SA)>
1.710

> <Valence>
1.263

> <Coulomb>
44.179

> <VdW>
0.255

> <VdW6>
-3.552

> <VdW12>
3.807

> <Bond>
0.125

> <Angle>
0.616

> <Pdih>
0.521

> <Idih>
0.000

> <Tether>
0.000

$$$$
VeraChem MOL file


 17 16  0  0  0  0  0  0  0  0999 V2000     
   21.5741   18.1359   20.9443 N   0  3  0  0  0  0  0  0  0  0  0  0
   22.3652   18.2974   21.5747 H   0  0  0  0  0  0  0  0  0  0  0  0
   21.4518   18.9868   20.3880 H   0  0  0  0  0  0  0  0  0  0  0  0
   21.8563   17.3931   20.2968 H   0  0  0  0  0  0  0  0  0  0  0  0
   20.3114   17.7739   21.7022 C   0  0  0  0  0  0  0  0  0  0  0  0
   20.5019   16.8413   22.2403 H   0  0  0  0  0  0  0  0  0  0  0  0
   19.5193   17.5871   20.9725 H   0  0  0  0  0  0  0  0  0  0  0  0
   19.8533   18.8559   22.7019 C   0  0  0  0  0  0  0  0  0  0  0  0
   18.9761   18.4820   23.2466 H   0  0  0  0  0  0  0  0  0  0  0  0
   20.6386   19.0071   23.4543 H   0  0  0  0  0  0  0  0  0  0  0  0
   19.5034   20.2139   22.0440 C   0  0  0  0  0  0  0  0  0  0  0  0
   20.3963   20.6460   21.5720 H   0  0  0  0  0  0  0  0  0  0  0  0
   19.2038   20.9211   22.8301 H   0  0  0  0  0  0  0  0  0  0  0  0
   18.3648   20.1073   21.0038 C   0  0  0  0  0  0  0  0  0  0  0  0
   18.1064   21.0999   20.6127 H   0  0  0  0  0  0  0  0  0  0  0  0
   17.4593   19.6785   21.4525 H   0  0  0  0  0  0  0  0  0  0  0  0
   18.6541   19.4807   20.1509 H   0  0  0  0  0  0  0  0  0  0  0  0
  1  2  1  0  0  0  0
  1  3  1  0  0  0  0
  1  4  1  0  0  0  0
  1  5  1  0  0  0  0
  5  6  1  0  0  0  0
  5  7  1  0  0  0  0
  5  8  1  0  0  0  0
  8  9  1  0  0  0  0
  8 10  1  0  0  0  0
  8 11  1  0  0  0  0
 11 12  1  0  0  0  0
 11 13  1  0  0  0  0
 11 14  1  0  0  0  0
 14 15  1  0  0  0  0
 14 16  1  0  0  0  0
 14 17  1  0  0  0  0
M  END
> <VConfSearch Rank>
228

> <Conf_Id>
43

> <Delta U+W>
0.642

> <U+W>
-15.222

> <U>
45.697

> <W>
-60.919

> <W(PB)>
-62.631

> <W(SA)>
1.712

> <Valence>
1.262

> <Coulomb>
44.179

> <VdW>
0.255

> <VdW6>
-3.552

> <VdW12>
3.807

> <Bond>
0.125

> <Angle>
0.616

> <Pdih>
0.521

> <Idih>
0.000

> <Tether>
0.000

$$$$
VeraChem MOL file


 17 16  0  0  0  0  0  0  0  0999 V2000     
   20.7188   20.1315   23.8072 N   0  3  0  0  0  0  0  0  0  0  0  0
   19.7900   20.2603   24.2202 H   0  0  0  0  0  0  0  0  0  0  0  0
   21.0051   21.0370   23.4229 H   0  0  0  0  0  0  0  0  0  0  0  0
   21.3597   19.9213   24.5791 H   0  0  0  0  0  0  0  0  0  0  0  0
   20.7262   19.0402   22.7554 C   0  0  0  0  0  0  0  0  0  0  0  0
   20.4424   18.1021   23.2402 H   0  0  0  0  0  0  0  0  0  0  0  0
   21.7491   18.9374   22.3828 H   0  0  0  0  0  0  0  0  0  0  0  0
   19.7735   19.3240   21.5798 C   0  0  0  0  0  0  0  0  0  0  0  0
   18.7498   19.4420   21.9595 H   0  0  0  0  0  0  0  0  0  0  0  0
   20.0521   20.2743   21.1050 H   0  0  0  0  0  0  0  0  0  0  0  0
   19.8115   18.1894   20.5326 C   0  0  0  0  0  0  0  0  0  0  0  0
   19.5360   17.2373   21.0080 H   0  0  0  0  0  0  0  0  0  0  0  0
   20.8366   18.0686   20.1545 H   0  0  0  0  0  0  0  0  0  0  0  0
   18.8582   18.4671   19.3503 C   0  0  0  0  0  0  0  0  0  0  0  0
   18.8999   17.6502   18.6182 H   0  0  0  0  0  0  0  0  0  0  0  0
   19.1302   19.3964   18.8329 H   0  0  0  0  0  0  0  0  0  0  0  0
   17.8193   18.5586   19.6932 H   0  0  0  0  0  0  0  0  0  0  0  0
  1  2  1  0  0  0  0
  1  3  1  0  0  0  0
  1  4  1  0  0  0  0
  1  5  1  0  0  0  0
  5  6  1  0  0  0  0
  5  7  1  0  0  0  0
  5  8  1  0  0  0  0
  8  9  1  0  0  0  0
  8 10  1  0  0  0  0
  8 11  1  0  0  0  0
 11 12  1  0  0  0  0
 11 13  1  0  0  0  0
 11 14  1  0  0  0  0
 14 15  1  0  0  0  0
 14 16  1  0  0  0  0
 14 17  1  0  0  0  0
M  END
> <VConfSearch Rank>
229

> <Conf_Id>
7

> <Delta U+W>
0.000

> <U+W>
-15.865

> <U>
44.664

> <W>
-60.529

> <W(PB)>
-62.309

> <W(SA)>
1.780

> <Valence>
0.872

> <Coulomb>
43.648

> <VdW>
0.144

> <VdW6>
-2.370

> <VdW12>
2.515

> <Bond>
0.080

> <Angle>
0.376

> <Pdih>
0.416

> <Idih>
0.000

> <Tether>
0.000

$$$$
VeraChem MOL file


 17 16  0  0  0  0  0  0  0  0999 V2000     
   18.3532   17.2708   21.7395 N   0  3  0  0  0  0  0  0  0  0  0  0
   18.3455   16.9057   22.6967 H   0  0  0  0  0  0  0  0  0  0  0  0
   18.8730   16.5997   21.1659 H   0  0  0  0  0  0  0  0  0  0  0  0
   17.3831   17.2548   21.4086 H   0  0  0  0  0  0  0  0  0  0  0  0
   18.9506   18.6619   21.6673 C   0  0  0  0  0  0  0  0  0  0  0  0
   18.3316   19.3276   22.2748 H   0  0  0  0  0  0  0  0  0  0  0  0
   18.8968   18.9970   20.6282 H   0  0  0  0  0  0  0  0  0  0  0  0
   20.4101   18.7217   22.1577 C   0  0  0  0  0  0  0  0  0  0  0  0
   20.4590   18.3456   23.1882 H   0  0  0  0  0  0  0  0  0  0  0  0
   21.0315   18.0519   21.5485 H   0  0  0  0  0  0  0  0  0  0  0  0
   20.9952   20.1527   22.1159 C   0  0  0  0  0  0  0  0  0  0  0  0
   22.0042   20.1386   22.5515 H   0  0  0  0  0  0  0  0  0  0  0  0
   20.3937   20.8175   22.7518 H   0  0  0  0  0  0  0  0  0  0  0  0
   21.0719   20.7326   20.6849 C   0  0  0  0  0  0  0  0  0  0  0  0
   21.6635   20.0832   20.0266 H   0  0  0  0  0  0  0  0  0  0  0  0
   21.5483   21.7216   20.6954 H   0  0  0  0  0  0  0  0  0  0  0  0
   20.0743   20.8509   20.2435 H   0  0  0  0  0  0  0  0  0  0  0  0
  1  2  1  0  0  0  0
  1  3  1  0  0  0  0
  1  4  1  0  0  0  0
  1  5  1  0  0  0  0
  5  6  1  0  0  0  0
  5  7  1  0  0  0  0
  5  8  1  0  0  0  0
  8  9  1  0  0  0  0
  8 10  1  0  0  0  0
  8 11  1  0  0  0  0
 11 12  1  0  0  0  0
 11 13  1  0  0  0  0
 11 14  1  0  0  0  0
 14 15  1  0  0  0  0
 14 16  1  0  0  0  0
 14 17  1  0  0  0  0
M  END
> <VConfSearch Rank>
230

> <Conf_Id>
36

> <Delta U+W>
0.275

> <U+W>
-15.590

> <U>
45.174

> <W>
-60.765

> <W(PB)>
-62.518

> <W(SA)>
1.754

> <Valence>
1.161

> <Coulomb>
43.789

> <VdW>
0.224

> <VdW6>
-2.897

> <VdW12>
3.121

> <Bond>
0.100

> <Angle>
0.500

> <Pdih>
0.561

> <Idih>
0.000

> <Tether>
0.000

$$$$
VeraChem MOL file


 17 16  0  0  0  0  0  0  0  0999 V2000     
   20.9897   20.2763   22.4312 N   0  3  0  0  0  0  0  0  0  0  0  0
   20.1559   20.6926   22.0088 H   0  0  0  0  0  0  0  0  0  0  0  0
   21.7718   20.4563   21.7946 H   0  0  0  0  0  0  0  0  0  0  0  0
   21.1830   20.7954   23.2938 H   0  0  0  0  0  0  0  0  0  0  0  0
   20.8065   18.7939   22.6938 C   0  0  0  0  0  0  0  0  0  0  0  0
   20.0071   18.6668   23.4287 H   0  0  0  0  0  0  0  0  0  0  0  0
   21.7364   18.4309   23.1400 H   0  0  0  0  0  0  0  0  0  0  0  0
   20.4947   17.9601   21.4333 C   0  0  0  0  0  0  0  0  0  0  0  0
   21.1487   18.2692   20.6072 H   0  0  0  0  0  0  0  0  0  0  0  0
   20.7559   16.9156   21.6496 H   0  0  0  0  0  0  0  0  0  0  0  0
   19.0102   17.9977   20.9887 C   0  0  0  0  0  0  0  0  0  0  0  0
   18.3713   17.6263   21.8023 H   0  0  0  0  0  0  0  0  0  0  0  0
   18.8807   17.2933   20.1551 H   0  0  0  0  0  0  0  0  0  0  0  0
   18.5131   19.3901   20.5382 C   0  0  0  0  0  0  0  0  0  0  0  0
   18.4245   20.0794   21.3860 H   0  0  0  0  0  0  0  0  0  0  0  0
   17.5175   19.3097   20.0829 H   0  0  0  0  0  0  0  0  0  0  0  0
   19.1861   19.8312   19.7913 H   0  0  0  0  0  0  0  0  0  0  0  0
  1  2  1  0  0  0  0
  1  3  1  0  0  0  0
  1  4  1  0  0  0  0
  1  5  1  0  0  0  0
  5  6  1  0  0  0  0
  5  7  1  0  0  0  0
  5  8  1  0  0  0  0
  8  9  1  0  0  0  0
  8 10  1  0  0  0  0
  8 11  1  0  0  0  0
 11 12  1  0  0  0  0
 11 13  1  0  0  0  0
 11 14  1  0  0  0  0
 14 15  1  0  0  0  0
 14 16  1  0  0  0  0
 14 17  1  0  0  0  0
M  END
> <VConfSearch Rank>
231

> <Conf_Id>
19

> <Delta U+W>
2.662

> <U+W>
-13.203

> <U>
47.423

> <W>
-60.626

> <W(PB)>
-62.328

> <W(SA)>
1.702

> <Valence>
2.414

> <Coulomb>
44.831

> <VdW>
0.178

> <VdW6>
-3.743

> <VdW12>
3.921

> <Bond>
0.138

> <Angle>
0.941

> <Pdih>
1.335

> <Idih>
0.000

> <Tether>
0.000

$$$$
VeraChem MOL file


 17 16  0  0  0  0  0  0  0  0999 V2000     
   21.2840   20.0253   22.3464 N   0  3  0  0  0  0  0  0  0  0  0  0
   21.6836   20.9521   22.5258 H   0  0  0  0  0  0  0  0  0  0  0  0
   22.0133   19.3400   22.5653 H   0  0  0  0  0  0  0  0  0  0  0  0
   20.5282   19.8865   23.0220 H   0  0  0  0  0  0  0  0  0  0  0  0
   20.7933   19.8893   20.9179 C   0  0  0  0  0  0  0  0  0  0  0  0
   21.6569   20.0488   20.2666 H   0  0  0  0  0  0  0  0  0  0  0  0
   20.0701   20.6853   20.7210 H   0  0  0  0  0  0  0  0  0  0  0  0
   20.1635   18.5189   20.5912 C   0  0  0  0  0  0  0  0  0  0  0  0
   20.1986   18.3853   19.5018 H   0  0  0  0  0  0  0  0  0  0  0  0
   20.7781   17.7128   21.0134 H   0  0  0  0  0  0  0  0  0  0  0  0
   18.6886   18.3652   21.0427 C   0  0  0  0  0  0  0  0  0  0  0  0
   18.3111   17.4027   20.6700 H   0  0  0  0  0  0  0  0  0  0  0  0
   18.0728   19.1392   20.5634 H   0  0  0  0  0  0  0  0  0  0  0  0
   18.4803   18.4161   22.5734 C   0  0  0  0  0  0  0  0  0  0  0  0
   19.1522   17.7188   23.0905 H   0  0  0  0  0  0  0  0  0  0  0  0
   17.4498   18.1350   22.8267 H   0  0  0  0  0  0  0  0  0  0  0  0
   18.6448   19.4253   22.9685 H   0  0  0  0  0  0  0  0  0  0  0  0
  1  2  1  0  0  0  0
  1  3  1  0  0  0  0
  1  4  1  0  0  0  0
  1  5  1  0  0  0  0
  5  6  1  0  0  0  0
  5  7  1  0  0  0  0
  5  8  1  0  0  0  0
  8  9  1  0  0  0  0
  8 10  1  0  0  0  0
  8 11  1  0  0  0  0
 11 12  1  0  0  0  0
 11 13  1  0  0  0  0
 11 14  1  0  0  0  0
 14 15  1  0  0  0  0
 14 16  1  0  0  0  0
 14 17  1  0  0  0  0
M  END
> <VConfSearch Rank>
232

> <Conf_Id>
44

> <Delta U+W>
2.712

> <U+W>
-13.153

> <U>
47.423

> <W>
-60.576

> <W(PB)>
-62.262

> <W(SA)>
1.687

> <Valence>
2.414

> <Coulomb>
44.831

> <VdW>
0.178

> <VdW6>
-3.743

> <VdW12>
3.922

> <Bond>
0.138

> <Angle>
0.941

> <Pdih>
1.335

> <Idih>
0.000

> <Tether>
0.000

$$$$
VeraChem MOL file


 17 16  0  0  0  0  0  0  0  0999 V2000     
   18.2789   20.1289   21.8603 N   0  3  0  0  0  0  0  0  0  0  0  0
   18.2033   19.3181   22.4810 H   0  0  0  0  0  0  0  0  0  0  0  0
   17.6093   19.9898   21.0975 H   0  0  0  0  0  0  0  0  0  0  0  0
   17.9584   20.9441   22.3926 H   0  0  0  0  0  0  0  0  0  0  0  0
   19.6934   20.3121   21.3451 C   0  0  0  0  0  0  0  0  0  0  0  0
   20.3477   20.4844   22.2036 H   0  0  0  0  0  0  0  0  0  0  0  0
   19.7075   21.2117   20.7237 H   0  0  0  0  0  0  0  0  0  0  0  0
   20.2169   19.1158   20.5238 C   0  0  0  0  0  0  0  0  0  0  0  0
   19.5772   18.9762   19.6423 H   0  0  0  0  0  0  0  0  0  0  0  0
   21.2158   19.3631   20.1405 H   0  0  0  0  0  0  0  0  0  0  0  0
   20.2912   17.7892   21.3202 C   0  0  0  0  0  0  0  0  0  0  0  0
   20.6587   16.9964   20.6535 H   0  0  0  0  0  0  0  0  0  0  0  0
   19.2847   17.4796   21.6329 H   0  0  0  0  0  0  0  0  0  0  0  0
   21.2166   17.8755   22.5555 C   0  0  0  0  0  0  0  0  0  0  0  0
   22.2306   18.1826   22.2682 H   0  0  0  0  0  0  0  0  0  0  0  0
   21.2905   16.8984   23.0502 H   0  0  0  0  0  0  0  0  0  0  0  0
   20.8380   18.5927   23.2945 H   0  0  0  0  0  0  0  0  0  0  0  0
  1  2  1  0  0  0  0
  1  3  1  0  0  0  0
  1  4  1  0  0  0  0
  1  5  1  0  0  0  0
  5  6  1  0  0  0  0
  5  7  1  0  0  0  0
  5  8  1  0  0  0  0
  8  9  1  0  0  0  0
  8 10  1  0  0  0  0
  8 11  1  0  0  0  0
 11 12  1  0  0  0  0
 11 13  1  0  0  0  0
 11 14  1  0  0  0  0
 14 15  1  0  0  0  0
 14 16  1  0  0  0  0
 14 17  1  0  0  0  0
M  END
> <VConfSearch Rank>
233

> <Conf_Id>
1

> <Delta U+W>
0.685

> <U+W>
-15.179

> <U>
45.697

> <W>
-60.876

> <W(PB)>
-62.586

> <W(SA)>
1.710

> <Valence>
1.263

> <Coulomb>
44.179

> <VdW>
0.255

> <VdW6>
-3.552

> <VdW12>
3.807

> <Bond>
0.125

> <Angle>
0.616

> <Pdih>
0.521

> <Idih>
0.000

> <Tether>
0.000

$$$$
VeraChem MOL file


 17 16  0  0  0  0  0  0  0  0999 V2000     
   19.4608   18.5193   19.7368 N   0  3  0  0  0  0  0  0  0  0  0  0
   19.4245   17.5018   19.6238 H   0  0  0  0  0  0  0  0  0  0  0  0
   20.4487   18.7888   19.7375 H   0  0  0  0  0  0  0  0  0  0  0  0
   19.0399   18.9274   18.8960 H   0  0  0  0  0  0  0  0  0  0  0  0
   18.7537   18.9739   20.9990 C   0  0  0  0  0  0  0  0  0  0  0  0
   17.7020   18.6875   20.9130 H   0  0  0  0  0  0  0  0  0  0  0  0
   18.8041   20.0650   21.0422 H   0  0  0  0  0  0  0  0  0  0  0  0
   19.3422   18.3744   22.2929 C   0  0  0  0  0  0  0  0  0  0  0  0
   18.7311   18.7056   23.1431 H   0  0  0  0  0  0  0  0  0  0  0  0
   19.2498   17.2808   22.2579 H   0  0  0  0  0  0  0  0  0  0  0  0
   20.8211   18.7573   22.5489 C   0  0  0  0  0  0  0  0  0  0  0  0
   21.4594   18.3527   21.7517 H   0  0  0  0  0  0  0  0  0  0  0  0
   21.1554   18.2758   23.4786 H   0  0  0  0  0  0  0  0  0  0  0  0
   21.0398   20.2831   22.6669 C   0  0  0  0  0  0  0  0  0  0  0  0
   22.0866   20.5042   22.9126 H   0  0  0  0  0  0  0  0  0  0  0  0
   20.4124   20.7115   23.4594 H   0  0  0  0  0  0  0  0  0  0  0  0
   20.8044   20.7988   21.7274 H   0  0  0  0  0  0  0  0  0  0  0  0
  1  2  1  0  0  0  0
  1  3  1  0  0  0  0
  1  4  1  0  0  0  0
  1  5  1  0  0  0  0
  5  6  1  0  0  0  0
  5  7  1  0  0  0  0
  5  8  1  0  0  0  0
  8  9  1  0  0  0  0
  8 10  1  0  0  0  0
  8 11  1  0  0  0  0
 11 12  1  0  0  0  0
 11 13  1  0  0  0  0
 11 14  1  0  0  0  0
 14 15  1  0  0  0  0
 14 16  1  0  0  0  0
 14 17  1  0  0  0  0
M  END
> <VConfSearch Rank>
234

> <Conf_Id>
43

> <Delta U+W>
0.642

> <U+W>
-15.222

> <U>
45.697

> <W>
-60.919

> <W(PB)>
-62.631

> <W(SA)>
1.712

> <Valence>
1.262

> <Coulomb>
44.179

> <VdW>
0.255

> <VdW6>
-3.552

> <VdW12>
3.807

> <Bond>
0.125

> <Angle>
0.616

> <Pdih>
0.521

> <Idih>
0.000

> <Tether>
0.000

$$$$
VeraChem MOL file


 17 16  0  0  0  0  0  0  0  0999 V2000     
   21.9514   18.4388   23.0927 N   0  3  0  0  0  0  0  0  0  0  0  0
   21.4258   17.9377   23.8155 H   0  0  0  0  0  0  0  0  0  0  0  0
   22.1431   19.3772   23.4563 H   0  0  0  0  0  0  0  0  0  0  0  0
   22.8562   17.9654   23.0027 H   0  0  0  0  0  0  0  0  0  0  0  0
   21.2044   18.4821   21.7745 C   0  0  0  0  0  0  0  0  0  0  0  0
   21.0627   17.4532   21.4328 H   0  0  0  0  0  0  0  0  0  0  0  0
   21.8340   19.0010   21.0466 H   0  0  0  0  0  0  0  0  0  0  0  0
   19.8393   19.1871   21.8736 C   0  0  0  0  0  0  0  0  0  0  0  0
   19.2155   18.6725   22.6166 H   0  0  0  0  0  0  0  0  0  0  0  0
   19.9842   20.2151   22.2316 H   0  0  0  0  0  0  0  0  0  0  0  0
   19.1125   19.2092   20.5110 C   0  0  0  0  0  0  0  0  0  0  0  0
   18.9701   18.1805   20.1505 H   0  0  0  0  0  0  0  0  0  0  0  0
   19.7378   19.7213   19.7660 H   0  0  0  0  0  0  0  0  0  0  0  0
   17.7422   19.9148   20.6026 C   0  0  0  0  0  0  0  0  0  0  0  0
   17.2424   19.9199   19.6253 H   0  0  0  0  0  0  0  0  0  0  0  0
   17.8553   20.9573   20.9279 H   0  0  0  0  0  0  0  0  0  0  0  0
   17.0815   19.4044   21.3155 H   0  0  0  0  0  0  0  0  0  0  0  0
  1  2  1  0  0  0  0
  1  3  1  0  0  0  0
  1  4  1  0  0  0  0
  1  5  1  0  0  0  0
  5  6  1  0  0  0  0
  5  7  1  0  0  0  0
  5  8  1  0  0  0  0
  8  9  1  0  0  0  0
  8 10  1  0  0  0  0
  8 11  1  0  0  0  0
 11 12  1  0  0  0  0
 11 13  1  0  0  0  0
 11 14  1  0  0  0  0
 14 15  1  0  0  0  0
 14 16  1  0  0  0  0
 14 17  1  0  0  0  0
M  END
> <VConfSearch Rank>
235

> <Conf_Id>
7

> <Delta U+W>
0.000

> <U+W>
-15.865

> <U>
44.664

> <W>
-60.529

> <W(PB)>
-62.309

> <W(SA)>
1.780

> <Valence>
0.872

> <Coulomb>
43.648

> <VdW>
0.144

> <VdW6>
-2.370

> <VdW12>
2.515

> <Bond>
0.080

> <Angle>
0.376

> <Pdih>
0.416

> <Idih>
0.000

> <Tether>
0.000

$$$$
VeraChem MOL file


 17 16  0  0  0  0  0  0  0  0999 V2000     
   21.4998   17.3728   20.9966 N   0  3  0  0  0  0  0  0  0  0  0  0
   22.0451   17.1107   21.8234 H   0  0  0  0  0  0  0  0  0  0  0  0
   22.1084   17.9460   20.4044 H   0  0  0  0  0  0  0  0  0  0  0  0
   21.3120   16.5080   20.4792 H   0  0  0  0  0  0  0  0  0  0  0  0
   20.2210   18.0976   21.3662 C   0  0  0  0  0  0  0  0  0  0  0  0
   19.6106   17.4200   21.9691 H   0  0  0  0  0  0  0  0  0  0  0  0
   19.6798   18.3162   20.4420 H   0  0  0  0  0  0  0  0  0  0  0  0
   20.4674   19.4038   22.1454 C   0  0  0  0  0  0  0  0  0  0  0  0
   21.0461   19.1787   23.0512 H   0  0  0  0  0  0  0  0  0  0  0  0
   21.0819   20.0837   21.5405 H   0  0  0  0  0  0  0  0  0  0  0  0
   19.1543   20.1134   22.5506 C   0  0  0  0  0  0  0  0  0  0  0  0
   19.3978   20.9890   23.1686 H   0  0  0  0  0  0  0  0  0  0  0  0
   18.5529   19.4460   23.1839 H   0  0  0  0  0  0  0  0  0  0  0  0
   18.3153   20.5715   21.3356 C   0  0  0  0  0  0  0  0  0  0  0  0
   18.8960   21.2358   20.6824 H   0  0  0  0  0  0  0  0  0  0  0  0
   17.4259   21.1226   21.6678 H   0  0  0  0  0  0  0  0  0  0  0  0
   17.9713   19.7180   20.7380 H   0  0  0  0  0  0  0  0  0  0  0  0
  1  2  1  0  0  0  0
  1  3  1  0  0  0  0
  1  4  1  0  0  0  0
  1  5  1  0  0  0  0
  5  6  1  0  0  0  0
  5  7  1  0  0  0  0
  5  8  1  0  0  0  0
  8  9  1  0  0  0  0
  8 10  1  0  0  0  0
  8 11  1  0  0  0  0
 11 12  1  0  0  0  0
 11 13  1  0  0  0  0
 11 14  1  0  0  0  0
 14 15  1  0  0  0  0
 14 16  1  0  0  0  0
 14 17  1  0  0  0  0
M  END
> <VConfSearch Rank>
236

> <Conf_Id>
36

> <Delta U+W>
0.275

> <U+W>
-15.590

> <U>
45.174

> <W>
-60.765

> <W(PB)>
-62.518

> <W(SA)>
1.754

> <Valence>
1.161

> <Coulomb>
43.789

> <VdW>
0.224

> <VdW6>
-2.897

> <VdW12>
3.121

> <Bond>
0.100

> <Angle>
0.500

> <Pdih>
0.561

> <Idih>
0.000

> <Tether>
0.000

$$$$
VeraChem MOL file


 17 16  0  0  0  0  0  0  0  0999 V2000     
   19.9273   18.2018   19.9169 N   0  3  0  0  0  0  0  0  0  0  0  0
   18.9763   18.3769   20.2514 H   0  0  0  0  0  0  0  0  0  0  0  0
   20.1211   17.2071   20.0672 H   0  0  0  0  0  0  0  0  0  0  0  0
   19.9243   18.3541   18.9032 H   0  0  0  0  0  0  0  0  0  0  0  0
   20.9414   19.0856   20.6173 C   0  0  0  0  0  0  0  0  0  0  0  0
   20.7265   20.1279   20.3668 H   0  0  0  0  0  0  0  0  0  0  0  0
   21.9227   18.8346   20.2055 H   0  0  0  0  0  0  0  0  0  0  0  0
   20.9807   18.9142   22.1505 C   0  0  0  0  0  0  0  0  0  0  0  0
   20.9467   17.8478   22.4102 H   0  0  0  0  0  0  0  0  0  0  0  0
   21.9543   19.2792   22.5034 H   0  0  0  0  0  0  0  0  0  0  0  0
   19.8761   19.6901   22.9125 C   0  0  0  0  0  0  0  0  0  0  0  0
   19.9606   20.7638   22.6934 H   0  0  0  0  0  0  0  0  0  0  0  0
   20.0605   19.5847   23.9909 H   0  0  0  0  0  0  0  0  0  0  0  0
   18.4369   19.2145   22.6104 C   0  0  0  0  0  0  0  0  0  0  0  0
   18.1274   19.4885   21.5951 H   0  0  0  0  0  0  0  0  0  0  0  0
   17.7271   19.6868   23.3020 H   0  0  0  0  0  0  0  0  0  0  0  0
   18.3433   18.1271   22.7286 H   0  0  0  0  0  0  0  0  0  0  0  0
  1  2  1  0  0  0  0
  1  3  1  0  0  0  0
  1  4  1  0  0  0  0
  1  5  1  0  0  0  0
  5  6  1  0  0  0  0
  5  7  1  0  0  0  0
  5  8  1  0  0  0  0
  8  9  1  0  0  0  0
  8 10  1  0  0  0  0
  8 11  1  0  0  0  0
 11 12  1  0  0  0  0
 11 13  1  0  0  0  0
 11 14  1  0  0  0  0
 14 15  1  0  0  0  0
 14 16  1  0  0  0  0
 14 17  1  0  0  0  0
M  END
> <VConfSearch Rank>
237

> <Conf_Id>
19

> <Delta U+W>
2.662

> <U+W>
-13.203

> <U>
47.423

> <W>
-60.626

> <W(PB)>
-62.328

> <W(SA)>
1.702

> <Valence>
2.414

> <Coulomb>
44.831

> <VdW>
0.178

> <VdW6>
-3.743

> <VdW12>
3.921

> <Bond>
0.138

> <Angle>
0.941

> <Pdih>
1.335

> <Idih>
0.000

> <Tether>
0.000

$$$$
VeraChem MOL file


 17 16  0  0  0  0  0  0  0  0999 V2000     
   19.5095   17.3324   22.1725 N   0  3  0  0  0  0  0  0  0  0  0  0
   19.8570   16.5016   22.6623 H   0  0  0  0  0  0  0  0  0  0  0  0
   18.6418   17.0585   21.7017 H   0  0  0  0  0  0  0  0  0  0  0  0
   19.2599   18.0215   22.8864 H   0  0  0  0  0  0  0  0  0  0  0  0
   20.5319   17.8801   21.1954 C   0  0  0  0  0  0  0  0  0  0  0  0
   20.7392   17.0873   20.4715 H   0  0  0  0  0  0  0  0  0  0  0  0
   21.4562   18.0903   21.7401 H   0  0  0  0  0  0  0  0  0  0  0  0
   20.0726   19.1443   20.4388 C   0  0  0  0  0  0  0  0  0  0  0  0
   20.6799   19.2285   19.5278 H   0  0  0  0  0  0  0  0  0  0  0  0
   19.0355   19.0228   20.0991 H   0  0  0  0  0  0  0  0  0  0  0  0
   20.2271   20.4634   21.2381 C   0  0  0  0  0  0  0  0  0  0  0  0
   19.9736   21.3019   20.5743 H   0  0  0  0  0  0  0  0  0  0  0  0
   21.2806   20.6050   21.5175 H   0  0  0  0  0  0  0  0  0  0  0  0
   19.3425   20.5518   22.5024 C   0  0  0  0  0  0  0  0  0  0  0  0
   18.2942   20.3209   22.2725 H   0  0  0  0  0  0  0  0  0  0  0  0
   19.3760   21.5666   22.9200 H   0  0  0  0  0  0  0  0  0  0  0  0
   19.6918   19.8698   23.2863 H   0  0  0  0  0  0  0  0  0  0  0  0
  1  2  1  0  0  0  0
  1  3  1  0  0  0  0
  1  4  1  0  0  0  0
  1  5  1  0  0  0  0
  5  6  1  0  0  0  0
  5  7  1  0  0  0  0
  5  8  1  0  0  0  0
  8  9  1  0  0  0  0
  8 10  1  0  0  0  0
  8 11  1  0  0  0  0
 11 12  1  0  0  0  0
 11 13  1  0  0  0  0
 11 14  1  0  0  0  0
 14 15  1  0  0  0  0
 14 16  1  0  0  0  0
 14 17  1  0  0  0  0
M  END
> <VConfSearch Rank>
238

> <Conf_Id>
44

> <Delta U+W>
2.712

> <U+W>
-13.153

> <U>
47.423

> <W>
-60.576

> <W(PB)>
-62.262

> <W(SA)>
1.687

> <Valence>
2.414

> <Coulomb>
44.831

> <VdW>
0.178

> <VdW6>
-3.743

> <VdW12>
3.922

> <Bond>
0.138

> <Angle>
0.941

> <Pdih>
1.335

> <Idih>
0.000

> <Tether>
0.000

$$$$
VeraChem MOL file


 17 16  0  0  0  0  0  0  0  0999 V2000     
   18.0167   19.4056   21.1591 N   0  3  0  0  0  0  0  0  0  0  0  0
   18.0492   19.1245   22.1432 H   0  0  0  0  0  0  0  0  0  0  0  0
   17.5955   18.6316   20.6368 H   0  0  0  0  0  0  0  0  0  0  0  0
   17.3674   20.1961   21.0950 H   0  0  0  0  0  0  0  0  0  0  0  0
   19.3929   19.7619   20.6309 C   0  0  0  0  0  0  0  0  0  0  0  0
   19.7699   20.6090   21.2098 H   0  0  0  0  0  0  0  0  0  0  0  0
   19.2775   20.0865   19.5932 H   0  0  0  0  0  0  0  0  0  0  0  0
   20.4041   18.5984   20.6927 C   0  0  0  0  0  0  0  0  0  0  0  0
   20.0361   17.7680   20.0756 H   0  0  0  0  0  0  0  0  0  0  0  0
   21.3458   18.9267   20.2331 H   0  0  0  0  0  0  0  0  0  0  0  0
   20.6886   18.0864   22.1267 C   0  0  0  0  0  0  0  0  0  0  0  0
   21.4040   17.2540   22.0697 H   0  0  0  0  0  0  0  0  0  0  0  0
   19.7729   17.6693   22.5674 H   0  0  0  0  0  0  0  0  0  0  0  0
   21.2630   19.1793   23.0570 C   0  0  0  0  0  0  0  0  0  0  0  0
   22.1810   19.6116   22.6380 H   0  0  0  0  0  0  0  0  0  0  0  0
   21.5101   18.7575   24.0398 H   0  0  0  0  0  0  0  0  0  0  0  0
   20.5438   19.9923   23.2173 H   0  0  0  0  0  0  0  0  0  0  0  0
  1  2  1  0  0  0  0
  1  3  1  0  0  0  0
  1  4  1  0  0  0  0
  1  5  1  0  0  0  0
  5  6  1  0  0  0  0
  5  7  1  0  0  0  0
  5  8  1  0  0  0  0
  8  9  1  0  0  0  0
  8 10  1  0  0  0  0
  8 11  1  0  0  0  0
 11 12  1  0  0  0  0
 11 13  1  0  0  0  0
 11 14  1  0  0  0  0
 14 15  1  0  0  0  0
 14 16  1  0  0  0  0
 14 17  1  0  0  0  0
M  END
> <VConfSearch Rank>
239

> <Conf_Id>
1

> <Delta U+W>
0.685

> <U+W>
-15.179

> <U>
45.697

> <W>
-60.876

> <W(PB)>
-62.586

> <W(SA)>
1.710

> <Valence>
1.263

> <Coulomb>
44.179

> <VdW>
0.255

> <VdW6>
-3.552

> <VdW12>
3.807

> <Bond>
0.125

> <Angle>
0.616

> <Pdih>
0.521

> <Idih>
0.000

> <Tether>
0.000

$$$$
VeraChem MOL file


 17 16  0  0  0  0  0  0  0  0999 V2000     
   19.5863   20.2358   23.1407 N   0  3  0  0  0  0  0  0  0  0  0  0
   19.8846   21.1951   22.9405 H   0  0  0  0  0  0  0  0  0  0  0  0
   20.4285   19.6964   23.3602 H   0  0  0  0  0  0  0  0  0  0  0  0
   19.0226   20.2718   23.9961 H   0  0  0  0  0  0  0  0  0  0  0  0
   18.8166   19.6294   21.9833 C   0  0  0  0  0  0  0  0  0  0  0  0
   17.9165   20.2311   21.8303 H   0  0  0  0  0  0  0  0  0  0  0  0
   18.5046   18.6227   22.2733 H   0  0  0  0  0  0  0  0  0  0  0  0
   19.6186   19.5664   20.6670 C   0  0  0  0  0  0  0  0  0  0  0  0
   18.9649   19.1762   19.8757 H   0  0  0  0  0  0  0  0  0  0  0  0
   19.8923   20.5853   20.3626 H   0  0  0  0  0  0  0  0  0  0  0  0
   20.8959   18.6939   20.7487 C   0  0  0  0  0  0  0  0  0  0  0  0
   21.6017   19.1243   21.4721 H   0  0  0  0  0  0  0  0  0  0  0  0
   21.4056   18.7207   19.7753 H   0  0  0  0  0  0  0  0  0  0  0  0
   20.6014   17.2226   21.1208 C   0  0  0  0  0  0  0  0  0  0  0  0
   21.5245   16.6288   21.1029 H   0  0  0  0  0  0  0  0  0  0  0  0
   19.8980   16.7691   20.4105 H   0  0  0  0  0  0  0  0  0  0  0  0
   20.1735   17.1385   22.1277 H   0  0  0  0  0  0  0  0  0  0  0  0
  1  2  1  0  0  0  0
  1  3  1  0  0  0  0
  1  4  1  0  0  0  0
  1  5  1  0  0  0  0
  5  6  1  0  0  0  0
  5  7  1  0  0  0  0
  5  8  1  0  0  0  0
  8  9  1  0  0  0  0
  8 10  1  0  0  0  0
  8 11  1  0  0  0  0
 11 12  1  0  0  0  0
 11 13  1  0  0  0  0
 11 14  1  0  0  0  0
 14 15  1  0  0  0  0
 14 16  1  0  0  0  0
 14 17  1  0  0  0  0
M  END
> <VConfSearch Rank>
240

> <Conf_Id>
43

> <Delta U+W>
0.642

> <U+W>
-15.222

> <U>
45.697

> <W>
-60.919

> <W(PB)>
-62.631

> <W(SA)>
1.712

> <Valence>
1.262

> <Coulomb>
44.179

> <VdW>
0.255

> <VdW6>
-3.552

> <VdW12>
3.807

> <Bond>
0.125

> <Angle>
0.616

> <Pdih>
0.521

> <Idih>
0.000

> <Tether>
0.000

$$$$
VeraChem MOL file


 17 16  0  0  0  0  0  0  0  0999 V2000     
   21.0387   20.8131   20.0705 N   0  3  0  0  0  0  0  0  0  0  0  0
   20.9648   20.2870   19.1945 H   0  0  0  0  0  0  0  0  0  0  0  0
   22.0009   20.7058   20.4054 H   0  0  0  0  0  0  0  0  0  0  0  0
   20.9163   21.8028   19.8329 H   0  0  0  0  0  0  0  0  0  0  0  0
   20.0248   20.3507   21.0979 C   0  0  0  0  0  0  0  0  0  0  0  0
   19.0260   20.5223   20.6876 H   0  0  0  0  0  0  0  0  0  0  0  0
   20.1402   20.9727   21.9898 H   0  0  0  0  0  0  0  0  0  0  0  0
   20.1800   18.8669   21.4783 C   0  0  0  0  0  0  0  0  0  0  0  0
   20.0790   18.2464   20.5779 H   0  0  0  0  0  0  0  0  0  0  0  0
   21.1893   18.6953   21.8757 H   0  0  0  0  0  0  0  0  0  0  0  0
   19.1294   18.4373   22.5257 C   0  0  0  0  0  0  0  0  0  0  0  0
   18.1189   18.6119   22.1298 H   0  0  0  0  0  0  0  0  0  0  0  0
   19.2279   19.0602   23.4261 H   0  0  0  0  0  0  0  0  0  0  0  0
   19.2789   16.9499   22.9122 C   0  0  0  0  0  0  0  0  0  0  0  0
   18.5241   16.6648   23.6565 H   0  0  0  0  0  0  0  0  0  0  0  0
   20.2685   16.7511   23.3438 H   0  0  0  0  0  0  0  0  0  0  0  0
   19.1509   16.2993   22.0372 H   0  0  0  0  0  0  0  0  0  0  0  0
  1  2  1  0  0  0  0
  1  3  1  0  0  0  0
  1  4  1  0  0  0  0
  1  5  1  0  0  0  0
  5  6  1  0  0  0  0
  5  7  1  0  0  0  0
  5  8  1  0  0  0  0
  8  9  1  0  0  0  0
  8 10  1  0  0  0  0
  8 11  1  0  0  0  0
 11 12  1  0  0  0  0
 11 13  1  0  0  0  0
 11 14  1  0  0  0  0
 14 15  1  0  0  0  0
 14 16  1  0  0  0  0
 14 17  1  0  0  0  0
M  END
> <VConfSearch Rank>
241

> <Conf_Id>
7

> <Delta U+W>
0.000

> <U+W>
-15.865

> <U>
44.664

> <W>
-60.529

> <W(PB)>
-62.309

> <W(SA)>
1.780

> <Valence>
0.872

> <Coulomb>
43.648

> <VdW>
0.144

> <VdW6>
-2.370

> <VdW12>
2.515

> <Bond>
0.080

> <Angle>
0.376

> <Pdih>
0.416

> <Idih>
0.000

> <Tether>
0.000

$$$$
VeraChem MOL file


 17 16  0  0  0  0  0  0  0  0999 V2000     
   18.4304   20.7967   22.4516 N   0  3  0  0  0  0  0  0  0  0  0  0
   18.9363   21.6865   22.4968 H   0  0  0  0  0  0  0  0  0  0  0  0
   18.3447   20.4504   23.4119 H   0  0  0  0  0  0  0  0  0  0  0  0
   17.4816   21.0116   22.1282 H   0  0  0  0  0  0  0  0  0  0  0  0
   19.1213   19.7961   21.5468 C   0  0  0  0  0  0  0  0  0  0  0  0
   19.1505   20.2165   20.5379 H   0  0  0  0  0  0  0  0  0  0  0  0
   18.5122   18.8887   21.5226 H   0  0  0  0  0  0  0  0  0  0  0  0
   20.5512   19.4502   22.0048 C   0  0  0  0  0  0  0  0  0  0  0  0
   21.1431   20.3732   22.0642 H   0  0  0  0  0  0  0  0  0  0  0  0
   20.5219   19.0294   23.0186 H   0  0  0  0  0  0  0  0  0  0  0  0
   21.2592   18.4587   21.0520 C   0  0  0  0  0  0  0  0  0  0  0  0
   22.2957   18.3178   21.3894 H   0  0  0  0  0  0  0  0  0  0  0  0
   21.3190   18.8925   20.0438 H   0  0  0  0  0  0  0  0  0  0  0  0
   20.5596   17.0818   20.9841 C   0  0  0  0  0  0  0  0  0  0  0  0
   20.4815   16.6287   21.9810 H   0  0  0  0  0  0  0  0  0  0  0  0
   21.1281   16.3922   20.3467 H   0  0  0  0  0  0  0  0  0  0  0  0
   19.5490   17.1630   20.5643 H   0  0  0  0  0  0  0  0  0  0  0  0
  1  2  1  0  0  0  0
  1  3  1  0  0  0  0
  1  4  1  0  0  0  0
  1  5  1  0  0  0  0
  5  6  1  0  0  0  0
  5  7  1  0  0  0  0
  5  8  1  0  0  0  0
  8  9  1  0  0  0  0
  8 10  1  0  0  0  0
  8 11  1  0  0  0  0
 11 12  1  0  0  0  0
 11 13  1  0  0  0  0
 11 14  1  0  0  0  0
 14 15  1  0  0  0  0
 14 16  1  0  0  0  0
 14 17  1  0  0  0  0
M  END
> <VConfSearch Rank>
242

> <Conf_Id>
36

> <Delta U+W>
0.275

> <U+W>
-15.590

> <U>
45.174

> <W>
-60.765

> <W(PB)>
-62.518

> <W(SA)>
1.754

> <Valence>
1.161

> <Coulomb>
43.789

> <VdW>
0.224

> <VdW6>
-2.897

> <VdW12>
3.121

> <Bond>
0.100

> <Angle>
0.500

> <Pdih>
0.561

> <Idih>
0.000

> <Tether>
0.000

$$$$
VeraChem MOL file


 17 16  0  0  0  0  0  0  0  0999 V2000     
   19.8103   20.5819   20.6548 N   0  3  0  0  0  0  0  0  0  0  0  0
   18.9021   20.3001   21.0325 H   0  0  0  0  0  0  0  0  0  0  0  0
   19.8176   20.3238   19.6635 H   0  0  0  0  0  0  0  0  0  0  0  0
   19.8506   21.6053   20.6958 H   0  0  0  0  0  0  0  0  0  0  0  0
   20.9575   19.9413   21.4123 C   0  0  0  0  0  0  0  0  0  0  0  0
   20.9397   20.3046   22.4434 H   0  0  0  0  0  0  0  0  0  0  0  0
   21.8829   20.2911   20.9469 H   0  0  0  0  0  0  0  0  0  0  0  0
   20.9414   18.3982   21.4019 C   0  0  0  0  0  0  0  0  0  0  0  0
   20.7101   18.0318   20.3929 H   0  0  0  0  0  0  0  0  0  0  0  0
   21.9598   18.0512   21.6221 H   0  0  0  0  0  0  0  0  0  0  0  0
   19.9850   17.7582   22.4403 C   0  0  0  0  0  0  0  0  0  0  0  0
   20.2667   18.0832   23.4518 H   0  0  0  0  0  0  0  0  0  0  0  0
   20.1305   16.6690   22.4196 H   0  0  0  0  0  0  0  0  0  0  0  0
   18.4880   18.0593   22.2009 C   0  0  0  0  0  0  0  0  0  0  0  0
   18.2491   19.1074   22.4156 H   0  0  0  0  0  0  0  0  0  0  0  0
   17.8655   17.4447   22.8641 H   0  0  0  0  0  0  0  0  0  0  0  0
   18.1964   17.8336   21.1669 H   0  0  0  0  0  0  0  0  0  0  0  0
  1  2  1  0  0  0  0
  1  3  1  0  0  0  0
  1  4  1  0  0  0  0
  1  5  1  0  0  0  0
  5  6  1  0  0  0  0
  5  7  1  0  0  0  0
  5  8  1  0  0  0  0
  8  9  1  0  0  0  0
  8 10  1  0  0  0  0
  8 11  1  0  0  0  0
 11 12  1  0  0  0  0
 11 13  1  0  0  0  0
 11 14  1  0  0  0  0
 14 15  1  0  0  0  0
 14 16  1  0  0  0  0
 14 17  1  0  0  0  0
M  END
> <VConfSearch Rank>
243

> <Conf_Id>
19

> <Delta U+W>
2.662

> <U+W>
-13.203

> <U>
47.423

> <W>
-60.626

> <W(PB)>
-62.328

> <W(SA)>
1.702

> <Valence>
2.414

> <Coulomb>
44.831

> <VdW>
0.178

> <VdW6>
-3.743

> <VdW12>
3.921

> <Bond>
0.138

> <Angle>
0.941

> <Pdih>
1.335

> <Idih>
0.000

> <Tether>
0.000

$$$$
VeraChem MOL file


 17 16  0  0  0  0  0  0  0  0999 V2000     
   18.7132   18.0643   20.5526 N   0  3  0  0  0  0  0  0  0  0  0  0
   18.5374   17.1692   20.0850 H   0  0  0  0  0  0  0  0  0  0  0  0
   18.0108   18.7240   20.2049 H   0  0  0  0  0  0  0  0  0  0  0  0
   18.5285   17.9257   21.5493 H   0  0  0  0  0  0  0  0  0  0  0  0
   20.1245   18.5620   20.3062 C   0  0  0  0  0  0  0  0  0  0  0  0
   20.2362   18.6844   19.2254 H   0  0  0  0  0  0  0  0  0  0  0  0
   20.8275   17.7912   20.6333 H   0  0  0  0  0  0  0  0  0  0  0  0
   20.4558   19.8997   21.0006 C   0  0  0  0  0  0  0  0  0  0  0  0
   21.3094   20.3477   20.4748 H   0  0  0  0  0  0  0  0  0  0  0  0
   19.6224   20.6039   20.8765 H   0  0  0  0  0  0  0  0  0  0  0  0
   20.8335   19.7701   22.4984 C   0  0  0  0  0  0  0  0  0  0  0  0
   21.1501   20.7578   22.8621 H   0  0  0  0  0  0  0  0  0  0  0  0
   21.7083   19.1131   22.6034 H   0  0  0  0  0  0  0  0  0  0  0  0
   19.6911   19.2554   23.4033 C   0  0  0  0  0  0  0  0  0  0  0  0
   18.7706   19.8340   23.2513 H   0  0  0  0  0  0  0  0  0  0  0  0
   19.9719   19.3483   24.4605 H   0  0  0  0  0  0  0  0  0  0  0  0
   19.4781   18.1960   23.2190 H   0  0  0  0  0  0  0  0  0  0  0  0
  1  2  1  0  0  0  0
  1  3  1  0  0  0  0
  1  4  1  0  0  0  0
  1  5  1  0  0  0  0
  5  6  1  0  0  0  0
  5  7  1  0  0  0  0
  5  8  1  0  0  0  0
  8  9  1  0  0  0  0
  8 10  1  0  0  0  0
  8 11  1  0  0  0  0
 11 12  1  0  0  0  0
 11 13  1  0  0  0  0
 11 14  1  0  0  0  0
 14 15  1  0  0  0  0
 14 16  1  0  0  0  0
 14 17  1  0  0  0  0
M  END
> <VConfSearch Rank>
244

> <Conf_Id>
44

> <Delta U+W>
2.712

> <U+W>
-13.153

> <U>
47.423

> <W>
-60.576

> <W(PB)>
-62.262

> <W(SA)>
1.687

> <Valence>
2.414

> <Coulomb>
44.831

> <VdW>
0.178

> <VdW6>
-3.743

> <VdW12>
3.922

> <Bond>
0.138

> <Angle>
0.941

> <Pdih>
1.335

> <Idih>
0.000

> <Tether>
0.000

$$$$
VeraChem MOL file


 17 16  0  0  0  0  0  0  0  0999 V2000     
   20.7422   18.1572   20.0210 N   0  3  0  0  0  0  0  0  0  0  0  0
   21.4783   18.2628   20.7249 H   0  0  0  0  0  0  0  0  0  0  0  0
   20.9386   18.8302   19.2741 H   0  0  0  0  0  0  0  0  0  0  0  0
   20.8488   17.2222   19.6147 H   0  0  0  0  0  0  0  0  0  0  0  0
   19.3622   18.3595   20.6165 C   0  0  0  0  0  0  0  0  0  0  0  0
   19.2073   17.5945   21.3817 H   0  0  0  0  0  0  0  0  0  0  0  0
   18.6294   18.1956   19.8217 H   0  0  0  0  0  0  0  0  0  0  0  0
   19.1472   19.7590   21.2288 C   0  0  0  0  0  0  0  0  0  0  0  0
   19.2649   20.5178   20.4438 H   0  0  0  0  0  0  0  0  0  0  0  0
   18.1077   19.8353   21.5742 H   0  0  0  0  0  0  0  0  0  0  0  0
   20.1002   20.0849   22.4058 C   0  0  0  0  0  0  0  0  0  0  0  0
   19.8839   21.1007   22.7652 H   0  0  0  0  0  0  0  0  0  0  0  0
   21.1410   20.1028   22.0551 H   0  0  0  0  0  0  0  0  0  0  0  0
   19.9653   19.0954   23.5858 C   0  0  0  0  0  0  0  0  0  0  0  0
   18.9323   19.0604   23.9553 H   0  0  0  0  0  0  0  0  0  0  0  0
   20.6091   19.4016   24.4205 H   0  0  0  0  0  0  0  0  0  0  0  0
   20.2602   18.0789   23.2963 H   0  0  0  0  0  0  0  0  0  0  0  0
  1  2  1  0  0  0  0
  1  3  1  0  0  0  0
  1  4  1  0  0  0  0
  1  5  1  0  0  0  0
  5  6  1  0  0  0  0
  5  7  1  0  0  0  0
  5  8  1  0  0  0  0
  8  9  1  0  0  0  0
  8 10  1  0  0  0  0
  8 11  1  0  0  0  0
 11 12  1  0  0  0  0
 11 13  1  0  0  0  0
 11 14  1  0  0  0  0
 14 15  1  0  0  0  0
 14 16  1  0  0  0  0
 14 17  1  0  0  0  0
M  END
> <VConfSearch Rank>
245

> <Conf_Id>
1

> <Delta U+W>
0.685

> <U+W>
-15.179

> <U>
45.697

> <W>
-60.876

> <W(PB)>
-62.586

> <W(SA)>
1.710

> <Valence>
1.263

> <Coulomb>
44.179

> <VdW>
0.255

> <VdW6>
-3.552

> <VdW12>
3.807

> <Bond>
0.125

> <Angle>
0.616

> <Pdih>
0.521

> <Idih>
0.000

> <Tether>
0.000

$$$$
VeraChem MOL file


 17 16  0  0  0  0  0  0  0  0999 V2000     
   21.3294   20.2441   20.8916 N   0  3  0  0  0  0  0  0  0  0  0  0
   21.9885   19.7448   20.2869 H   0  0  0  0  0  0  0  0  0  0  0  0
   21.5810   20.0249   21.8597 H   0  0  0  0  0  0  0  0  0  0  0  0
   21.5019   21.2455   20.7570 H   0  0  0  0  0  0  0  0  0  0  0  0
   19.8905   19.8738   20.5876 C   0  0  0  0  0  0  0  0  0  0  0  0
   19.6818   20.1686   19.5556 H   0  0  0  0  0  0  0  0  0  0  0  0
   19.2429   20.4607   21.2440 H   0  0  0  0  0  0  0  0  0  0  0  0
   19.5839   18.3719   20.7617 C   0  0  0  0  0  0  0  0  0  0  0  0
   18.5442   18.1884   20.4596 H   0  0  0  0  0  0  0  0  0  0  0  0
   20.2099   17.7936   20.0693 H   0  0  0  0  0  0  0  0  0  0  0  0
   19.7949   17.8489   22.2044 C   0  0  0  0  0  0  0  0  0  0  0  0
   20.8519   17.9413   22.4887 H   0  0  0  0  0  0  0  0  0  0  0  0
   19.5675   16.7739   22.2279 H   0  0  0  0  0  0  0  0  0  0  0  0
   18.9105   18.5720   23.2460 C   0  0  0  0  0  0  0  0  0  0  0  0
   19.0442   18.1265   24.2403 H   0  0  0  0  0  0  0  0  0  0  0  0
   17.8474   18.4928   22.9840 H   0  0  0  0  0  0  0  0  0  0  0  0
   19.1658   19.6364   23.3234 H   0  0  0  0  0  0  0  0  0  0  0  0
  1  2  1  0  0  0  0
  1  3  1  0  0  0  0
  1  4  1  0  0  0  0
  1  5  1  0  0  0  0
  5  6  1  0  0  0  0
  5  7  1  0  0  0  0
  5  8  1  0  0  0  0
  8  9  1  0  0  0  0
  8 10  1  0  0  0  0
  8 11  1  0  0  0  0
 11 12  1  0  0  0  0
 11 13  1  0  0  0  0
 11 14  1  0  0  0  0
 14 15  1  0  0  0  0
 14 16  1  0  0  0  0
 14 17  1  0  0  0  0
M  END
> <VConfSearch Rank>
246

> <Conf_Id>
43

> <Delta U+W>
0.642

> <U+W>
-15.222

> <U>
45.697

> <W>
-60.919

> <W(PB)>
-62.631

> <W(SA)>
1.712

> <Valence>
1.262

> <Coulomb>
44.179

> <VdW>
0.255

> <VdW6>
-3.552

> <VdW12>
3.807

> <Bond>
0.125

> <Angle>
0.616

> <Pdih>
0.521

> <Idih>
0.000

> <Tether>
0.000

$$$$
VeraChem MOL file


 17 16  0  0  0  0  0  0  0  0999 V2000     
   20.8007   20.7499   19.8638 N   0  3  0  0  0  0  0  0  0  0  0  0
   21.4213   21.2793   20.4837 H   0  0  0  0  0  0  0  0  0  0  0  0
   19.9349   21.2900   19.7723 H   0  0  0  0  0  0  0  0  0  0  0  0
   21.2432   20.7406   18.9391 H   0  0  0  0  0  0  0  0  0  0  0  0
   20.5436   19.3481   20.3797 C   0  0  0  0  0  0  0  0  0  0  0  0
   21.5018   18.8230   20.4222 H   0  0  0  0  0  0  0  0  0  0  0  0
   19.9035   18.8345   19.6572 H   0  0  0  0  0  0  0  0  0  0  0  0
   19.8789   19.3249   21.7682 C   0  0  0  0  0  0  0  0  0  0  0  0
   20.5172   19.8549   22.4877 H   0  0  0  0  0  0  0  0  0  0  0  0
   18.9243   19.8662   21.7253 H   0  0  0  0  0  0  0  0  0  0  0  0
   19.6351   17.8799   22.2560 C   0  0  0  0  0  0  0  0  0  0  0  0
   20.5898   17.3366   22.2960 H   0  0  0  0  0  0  0  0  0  0  0  0
   18.9989   17.3479   21.5345 H   0  0  0  0  0  0  0  0  0  0  0  0
   18.9685   17.8488   23.6483 C   0  0  0  0  0  0  0  0  0  0  0  0
   18.8041   16.8142   23.9766 H   0  0  0  0  0  0  0  0  0  0  0  0
   17.9946   18.3551   23.6318 H   0  0  0  0  0  0  0  0  0  0  0  0
   19.5981   18.3437   24.3993 H   0  0  0  0  0  0  0  0  0  0  0  0
  1  2  1  0  0  0  0
  1  3  1  0  0  0  0
  1  4  1  0  0  0  0
  1  5  1  0  0  0  0
  5  6  1  0  0  0  0
  5  7  1  0  0  0  0
  5  8  1  0  0  0  0
  8  9  1  0  0  0  0
  8 10  1  0  0  0  0
  8 11  1  0  0  0  0
 11 12  1  0  0  0  0
 11 13  1  0  0  0  0
 11 14  1  0  0  0  0
 14 15  1  0  0  0  0
 14 16  1  0  0  0  0
 14 17  1  0  0  0  0
M  END
> <VConfSearch Rank>
247

> <Conf_Id>
7

> <Delta U+W>
0.000

> <U+W>
-15.865

> <U>
44.664

> <W>
-60.529

> <W(PB)>
-62.309

> <W(SA)>
1.780

> <Valence>
0.872

> <Coulomb>
43.648

> <VdW>
0.144

> <VdW6>
-2.370

> <VdW12>
2.515

> <Bond>
0.080

> <Angle>
0.376

> <Pdih>
0.416

> <Idih>
0.000

> <Tether>
0.000

$$$$
VeraChem MOL file


 17 16  0  0  0  0  0  0  0  0999 V2000     
   18.8919   19.7793   19.5499 N   0  3  0  0  0  0  0  0  0  0  0  0
   19.6028   19.7830   18.8123 H   0  0  0  0  0  0  0  0  0  0  0  0
   18.7122   20.7566   19.7993 H   0  0  0  0  0  0  0  0  0  0  0  0
   18.0301   19.4175   19.1289 H   0  0  0  0  0  0  0  0  0  0  0  0
   19.3218   18.9574   20.7487 C   0  0  0  0  0  0  0  0  0  0  0  0
   19.4658   17.9256   20.4169 H   0  0  0  0  0  0  0  0  0  0  0  0
   18.5063   18.9729   21.4765 H   0  0  0  0  0  0  0  0  0  0  0  0
   20.6154   19.4747   21.4066 C   0  0  0  0  0  0  0  0  0  0  0  0
   21.4178   19.4929   20.6571 H   0  0  0  0  0  0  0  0  0  0  0  0
   20.4713   20.5116   21.7383 H   0  0  0  0  0  0  0  0  0  0  0  0
   21.0648   18.6049   22.6039 C   0  0  0  0  0  0  0  0  0  0  0  0
   22.0298   18.9785   22.9742 H   0  0  0  0  0  0  0  0  0  0  0  0
   21.2417   17.5738   22.2668 H   0  0  0  0  0  0  0  0  0  0  0  0
   20.0452   18.6035   23.7660 C   0  0  0  0  0  0  0  0  0  0  0  0
   19.8459   19.6240   24.1180 H   0  0  0  0  0  0  0  0  0  0  0  0
   20.4311   18.0257   24.6159 H   0  0  0  0  0  0  0  0  0  0  0  0
   19.0913   18.1521   23.4653 H   0  0  0  0  0  0  0  0  0  0  0  0
  1  2  1  0  0  0  0
  1  3  1  0  0  0  0
  1  4  1  0  0  0  0
  1  5  1  0  0  0  0
  5  6  1  0  0  0  0
  5  7  1  0  0  0  0
  5  8  1  0  0  0  0
  8  9  1  0  0  0  0
  8 10  1  0  0  0  0
  8 11  1  0  0  0  0
 11 12  1  0  0  0  0
 11 13  1  0  0  0  0
 11 14  1  0  0  0  0
 14 15  1  0  0  0  0
 14 16  1  0  0  0  0
 14 17  1  0  0  0  0
M  END
> <VConfSearch Rank>
248

> <Conf_Id>
36

> <Delta U+W>
0.275

> <U+W>
-15.590

> <U>
45.174

> <W>
-60.765

> <W(PB)>
-62.518

> <W(SA)>
1.754

> <Valence>
1.161

> <Coulomb>
43.789

> <VdW>
0.224

> <VdW6>
-2.897

> <VdW12>
3.121

> <Bond>
0.100

> <Angle>
0.500

> <Pdih>
0.561

> <Idih>
0.000

> <Tether>
0.000

$$$$
VeraChem MOL file


 17 16  0  0  0  0  0  0  0  0999 V2000     
   21.4999   18.0999   22.0804 N   0  3  0  0  0  0  0  0  0  0  0  0
   21.4348   19.0115   22.5403 H   0  0  0  0  0  0  0  0  0  0  0  0
   22.1406   18.2070   21.2883 H   0  0  0  0  0  0  0  0  0  0  0  0
   21.9496   17.4588   22.7419 H   0  0  0  0  0  0  0  0  0  0  0  0
   20.1396   17.5937   21.6404 C   0  0  0  0  0  0  0  0  0  0  0  0
   19.5235   17.4338   22.5292 H   0  0  0  0  0  0  0  0  0  0  0  0
   20.2990   16.6240   21.1609 H   0  0  0  0  0  0  0  0  0  0  0  0
   19.4037   18.5265   20.6556 C   0  0  0  0  0  0  0  0  0  0  0  0
   20.1013   18.8889   19.8889 H   0  0  0  0  0  0  0  0  0  0  0  0
   18.6549   17.9263   20.1218 H   0  0  0  0  0  0  0  0  0  0  0  0
   18.6711   19.7178   21.3241 C   0  0  0  0  0  0  0  0  0  0  0  0
   17.9312   19.3398   22.0436 H   0  0  0  0  0  0  0  0  0  0  0  0
   18.0990   20.2499   20.5512 H   0  0  0  0  0  0  0  0  0  0  0  0
   19.6048   20.7282   22.0285 C   0  0  0  0  0  0  0  0  0  0  0  0
   20.0440   20.3034   22.9386 H   0  0  0  0  0  0  0  0  0  0  0  0
   19.0415   21.6212   22.3291 H   0  0  0  0  0  0  0  0  0  0  0  0
   20.4145   21.0540   21.3625 H   0  0  0  0  0  0  0  0  0  0  0  0
  1  2  1  0  0  0  0
  1  3  1  0  0  0  0
  1  4  1  0  0  0  0
  1  5  1  0  0  0  0
  5  6  1  0  0  0  0
  5  7  1  0  0  0  0
  5  8  1  0  0  0  0
  8  9  1  0  0  0  0
  8 10  1  0  0  0  0
  8 11  1  0  0  0  0
 11 12  1  0  0  0  0
 11 13  1  0  0  0  0
 11 14  1  0  0  0  0
 14 15  1  0  0  0  0
 14 16  1  0  0  0  0
 14 17  1  0  0  0  0
M  END
> <VConfSearch Rank>
249

> <Conf_Id>
19

> <Delta U+W>
2.662

> <U+W>
-13.203

> <U>
47.423

> <W>
-60.626

> <W(PB)>
-62.328

> <W(SA)>
1.702

> <Valence>
2.414

> <Coulomb>
44.831

> <VdW>
0.178

> <VdW6>
-3.743

> <VdW12>
3.921

> <Bond>
0.138

> <Angle>
0.941

> <Pdih>
1.335

> <Idih>
0.000

> <Tether>
0.000

$$$$
VeraChem MOL file


 17 16  0  0  0  0  0  0  0  0999 V2000     
   19.4870   20.3903   22.8392 N   0  3  0  0  0  0  0  0  0  0  0  0
   19.7656   20.8579   23.7079 H   0  0  0  0  0  0  0  0  0  0  0  0
   18.5368   20.7064   22.6232 H   0  0  0  0  0  0  0  0  0  0  0  0
   20.0973   20.7429   22.0975 H   0  0  0  0  0  0  0  0  0  0  0  0
   19.5647   18.8806   22.9611 C   0  0  0  0  0  0  0  0  0  0  0  0
   18.8867   18.5897   23.7680 H   0  0  0  0  0  0  0  0  0  0  0  0
   20.5806   18.6072   23.2585 H   0  0  0  0  0  0  0  0  0  0  0  0
   19.1737   18.1195   21.6768 C   0  0  0  0  0  0  0  0  0  0  0  0
   18.8956   17.0970   21.9651 H   0  0  0  0  0  0  0  0  0  0  0  0
   18.2713   18.5642   21.2367 H   0  0  0  0  0  0  0  0  0  0  0  0
   20.3007   18.0259   20.6168 C   0  0  0  0  0  0  0  0  0  0  0  0
   19.9532   17.3798   19.7984 H   0  0  0  0  0  0  0  0  0  0  0  0
   21.1756   17.5220   21.0510 H   0  0  0  0  0  0  0  0  0  0  0  0
   20.7323   19.3853   20.0212 C   0  0  0  0  0  0  0  0  0  0  0  0
   19.8660   19.9568   19.6633 H   0  0  0  0  0  0  0  0  0  0  0  0
   21.4047   19.2304   19.1674 H   0  0  0  0  0  0  0  0  0  0  0  0
   21.2776   19.9908   20.7544 H   0  0  0  0  0  0  0  0  0  0  0  0
  1  2  1  0  0  0  0
  1  3  1  0  0  0  0
  1  4  1  0  0  0  0
  1  5  1  0  0  0  0
  5  6  1  0  0  0  0
  5  7  1  0  0  0  0
  5  8  1  0  0  0  0
  8  9  1  0  0  0  0
  8 10  1  0  0  0  0
  8 11  1  0  0  0  0
 11 12  1  0  0  0  0
 11 13  1  0  0  0  0
 11 14  1  0  0  0  0
 14 15  1  0  0  0  0
 14 16  1  0  0  0  0
 14 17  1  0  0  0  0
M  END
> <VConfSearch Rank>
250

> <Conf_Id>
44

> <Delta U+W>
2.712

> <U+W>
-13.153

> <U>
47.423

> <W>
-60.576

> <W(PB)>
-62.262

> <W(SA)>
1.687

> <Valence>
2.414

> <Coulomb>
44.831

> <VdW>
0.178

> <VdW6>
-3.743

> <VdW12>
3.922

> <Bond>
0.138

> <Angle>
0.941

> <Pdih>
1.335

> <Idih>
0.000

> <Tether>
0.000

$$$$
VeraChem MOL file


 17 16  0  0  0  0  0  0  0  0999 V2000     
   18.5798   20.3388   22.2795 N   0  3  0  0  0  0  0  0  0  0  0  0
   18.8451   19.7402   23.0667 H   0  0  0  0  0  0  0  0  0  0  0  0
   17.6280   20.0761   22.0065 H   0  0  0  0  0  0  0  0  0  0  0  0
   18.5329   21.2987   22.6360 H   0  0  0  0  0  0  0  0  0  0  0  0
   19.5547   20.2131   21.1247 C   0  0  0  0  0  0  0  0  0  0  0  0
   20.5388   20.5352   21.4746 H   0  0  0  0  0  0  0  0  0  0  0  0
   19.2325   20.9034   20.3403 H   0  0  0  0  0  0  0  0  0  0  0  0
   19.6503   18.7876   20.5427 C   0  0  0  0  0  0  0  0  0  0  0  0
   18.6665   18.4890   20.1572 H   0  0  0  0  0  0  0  0  0  0  0  0
   20.3251   18.8063   19.6767 H   0  0  0  0  0  0  0  0  0  0  0  0
   20.1496   17.7262   21.5546 C   0  0  0  0  0  0  0  0  0  0  0  0
   20.1710   16.7462   21.0576 H   0  0  0  0  0  0  0  0  0  0  0  0
   19.4357   17.6299   22.3839 H   0  0  0  0  0  0  0  0  0  0  0  0
   21.5573   18.0370   22.1128 C   0  0  0  0  0  0  0  0  0  0  0  0
   22.2902   18.1371   21.3017 H   0  0  0  0  0  0  0  0  0  0  0  0
   21.8969   17.2283   22.7728 H   0  0  0  0  0  0  0  0  0  0  0  0
   21.5641   18.9657   22.6971 H   0  0  0  0  0  0  0  0  0  0  0  0
  1  2  1  0  0  0  0
  1  3  1  0  0  0  0
  1  4  1  0  0  0  0
  1  5  1  0  0  0  0
  5  6  1  0  0  0  0
  5  7  1  0  0  0  0
  5  8  1  0  0  0  0
  8  9  1  0  0  0  0
  8 10  1  0  0  0  0
  8 11  1  0  0  0  0
 11 12  1  0  0  0  0
 11 13  1  0  0  0  0
 11 14  1  0  0  0  0
 14 15  1  0  0  0  0
 14 16  1  0  0  0  0
 14 17  1  0  0  0  0
M  END
> <VConfSearch Rank>
251

> <Conf_Id>
1

> <Delta U+W>
0.685

> <U+W>
-15.179

> <U>
45.697

> <W>
-60.876

> <W(PB)>
-62.586

> <W(SA)>
1.710

> <Valence>
1.263

> <Coulomb>
44.179

> <VdW>
0.255

> <VdW6>
-3.552

> <VdW12>
3.807

> <Bond>
0.125

> <Angle>
0.616

> <Pdih>
0.521

> <Idih>
0.000

> <Tether>
0.000

$$$$
VeraChem MOL file


 17 16  0  0  0  0  0  0  0  0999 V2000     
   20.7239   20.8453   21.4870 N   0  3  0  0  0  0  0  0  0  0  0  0
   20.0025   21.5717   21.4512 H   0  0  0  0  0  0  0  0  0  0  0  0
   20.7838   20.4317   20.5522 H   0  0  0  0  0  0  0  0  0  0  0  0
   21.6156   21.3196   21.6620 H   0  0  0  0  0  0  0  0  0  0  0  0
   20.4234   19.8011   22.5450 C   0  0  0  0  0  0  0  0  0  0  0  0
   20.4117   20.3044   23.5156 H   0  0  0  0  0  0  0  0  0  0  0  0
   21.2424   19.0772   22.5498 H   0  0  0  0  0  0  0  0  0  0  0  0
   19.0825   19.0682   22.3334 C   0  0  0  0  0  0  0  0  0  0  0  0
   18.9202   18.3828   23.1759 H   0  0  0  0  0  0  0  0  0  0  0  0
   18.2630   19.7981   22.3710 H   0  0  0  0  0  0  0  0  0  0  0  0
   19.0019   18.2726   21.0068 C   0  0  0  0  0  0  0  0  0  0  0  0
   19.0707   18.9576   20.1509 H   0  0  0  0  0  0  0  0  0  0  0  0
   18.0123   17.7995   20.9376 H   0  0  0  0  0  0  0  0  0  0  0  0
   20.0898   17.1806   20.8885 C   0  0  0  0  0  0  0  0  0  0  0  0
   19.9546   16.6008   19.9663 H   0  0  0  0  0  0  0  0  0  0  0  0
   20.0408   16.4816   21.7335 H   0  0  0  0  0  0  0  0  0  0  0  0
   21.0970   17.6152   20.8614 H   0  0  0  0  0  0  0  0  0  0  0  0
  1  2  1  0  0  0  0
  1  3  1  0  0  0  0
  1  4  1  0  0  0  0
  1  5  1  0  0  0  0
  5  6  1  0  0  0  0
  5  7  1  0  0  0  0
  5  8  1  0  0  0  0
  8  9  1  0  0  0  0
  8 10  1  0  0  0  0
  8 11  1  0  0  0  0
 11 12  1  0  0  0  0
 11 13  1  0  0  0  0
 11 14  1  0  0  0  0
 14 15  1  0  0  0  0
 14 16  1  0  0  0  0
 14 17  1  0  0  0  0
M  END
> <VConfSearch Rank>
252

> <Conf_Id>
43

> <Delta U+W>
0.642

> <U+W>
-15.222

> <U>
45.697

> <W>
-60.919

> <W(PB)>
-62.631

> <W(SA)>
1.712

> <Valence>
1.262

> <Coulomb>
44.179

> <VdW>
0.255

> <VdW6>
-3.552

> <VdW12>
3.807

> <Bond>
0.125

> <Angle>
0.616

> <Pdih>
0.521

> <Idih>
0.000

> <Tether>
0.000

$$$$
VeraChem MOL file


 17 16  0  0  0  0  0  0  0  0999 V2000     
   21.1750   20.8464   20.2185 N   0  3  0  0  0  0  0  0  0  0  0  0
   21.1584   20.3526   19.3210 H   0  0  0  0  0  0  0  0  0  0  0  0
   22.1082   20.7107   20.6192 H   0  0  0  0  0  0  0  0  0  0  0  0
   21.0853   21.8458   20.0085 H   0  0  0  0  0  0  0  0  0  0  0  0
   20.0811   20.3661   21.1513 C   0  0  0  0  0  0  0  0  0  0  0  0
   19.1181   20.5694   20.6751 H   0  0  0  0  0  0  0  0  0  0  0  0
   20.1393   20.9545   22.0710 H   0  0  0  0  0  0  0  0  0  0  0  0
   20.1857   18.8675   21.4882 C   0  0  0  0  0  0  0  0  0  0  0  0
   20.1424   18.2807   20.5609 H   0  0  0  0  0  0  0  0  0  0  0  0
   21.1601   18.6645   21.9522 H   0  0  0  0  0  0  0  0  0  0  0  0
   19.0541   18.4200   22.4393 C   0  0  0  0  0  0  0  0  0  0  0  0
   18.0784   18.6259   21.9767 H   0  0  0  0  0  0  0  0  0  0  0  0
   19.0949   19.0092   23.3664 H   0  0  0  0  0  0  0  0  0  0  0  0
   19.1525   16.9176   22.7817 C   0  0  0  0  0  0  0  0  0  0  0  0
   18.3405   16.6199   23.4577 H   0  0  0  0  0  0  0  0  0  0  0  0
   20.1044   16.6866   23.2774 H   0  0  0  0  0  0  0  0  0  0  0  0
   19.0800   16.3003   21.8768 H   0  0  0  0  0  0  0  0  0  0  0  0
  1  2  1  0  0  0  0
  1  3  1  0  0  0  0
  1  4  1  0  0  0  0
  1  5  1  0  0  0  0
  5  6  1  0  0  0  0
  5  7  1  0  0  0  0
  5  8  1  0  0  0  0
  8  9  1  0  0  0  0
  8 10  1  0  0  0  0
  8 11  1  0  0  0  0
 11 12  1  0  0  0  0
 11 13  1  0  0  0  0
 11 14  1  0  0  0  0
 14 15  1  0  0  0  0
 14 16  1  0  0  0  0
 14 17  1  0  0  0  0
M  END
> <VConfSearch Rank>
253

> <Conf_Id>
7

> <Delta U+W>
0.000

> <U+W>
-15.865

> <U>
44.664

> <W>
-60.529

> <W(PB)>
-62.309

> <W(SA)>
1.780

> <Valence>
0.872

> <Coulomb>
43.648

> <VdW>
0.144

> <VdW6>
-2.370

> <VdW12>
2.515

> <Bond>
0.080

> <Angle>
0.376

> <Pdih>
0.416

> <Idih>
0.000

> <Tether>
0.000

$$$$
VeraChem MOL file


 17 16  0  0  0  0  0  0  0  0999 V2000     
   21.2294   17.1800   22.3014 N   0  3  0  0  0  0  0  0  0  0  0  0
   21.7280   16.8143   21.4845 H   0  0  0  0  0  0  0  0  0  0  0  0
   20.4503   16.5415   22.4888 H   0  0  0  0  0  0  0  0  0  0  0  0
   21.8710   17.1063   23.0975 H   0  0  0  0  0  0  0  0  0  0  0  0
   20.7571   18.6043   22.0878 C   0  0  0  0  0  0  0  0  0  0  0  0
   21.6378   19.2314   21.9245 H   0  0  0  0  0  0  0  0  0  0  0  0
   20.2653   18.9363   23.0058 H   0  0  0  0  0  0  0  0  0  0  0  0
   19.7897   18.7507   20.8976 C   0  0  0  0  0  0  0  0  0  0  0  0
   20.2791   18.3775   19.9882 H   0  0  0  0  0  0  0  0  0  0  0  0
   18.9060   18.1196   21.0609 H   0  0  0  0  0  0  0  0  0  0  0  0
   19.3462   20.2142   20.6660 C   0  0  0  0  0  0  0  0  0  0  0  0
   18.7260   20.2600   19.7598 H   0  0  0  0  0  0  0  0  0  0  0  0
   20.2271   20.8414   20.4694 H   0  0  0  0  0  0  0  0  0  0  0  0
   18.5474   20.7986   21.8536 C   0  0  0  0  0  0  0  0  0  0  0  0
   17.6637   20.1860   22.0750 H   0  0  0  0  0  0  0  0  0  0  0  0
   18.2011   21.8142   21.6220 H   0  0  0  0  0  0  0  0  0  0  0  0
   19.1602   20.8574   22.7620 H   0  0  0  0  0  0  0  0  0  0  0  0
  1  2  1  0  0  0  0
  1  3  1  0  0  0  0
  1  4  1  0  0  0  0
  1  5  1  0  0  0  0
  5  6  1  0  0  0  0
  5  7  1  0  0  0  0
  5  8  1  0  0  0  0
  8  9  1  0  0  0  0
  8 10  1  0  0  0  0
  8 11  1  0  0  0  0
 11 12  1  0  0  0  0
 11 13  1  0  0  0  0
 11 14  1  0  0  0  0
 14 15  1  0  0  0  0
 14 16  1  0  0  0  0
 14 17  1  0  0  0  0
M  END
> <VConfSearch Rank>
254

> <Conf_Id>
36

> <Delta U+W>
0.275

> <U+W>
-15.590

> <U>
45.174

> <W>
-60.765

> <W(PB)>
-62.518

> <W(SA)>
1.754

> <Valence>
1.161

> <Coulomb>
43.789

> <VdW>
0.224

> <VdW6>
-2.897

> <VdW12>
3.121

> <Bond>
0.100

> <Angle>
0.500

> <Pdih>
0.561

> <Idih>
0.000

> <Tether>
0.000

$$$$
VeraChem MOL file


 17 16  0  0  0  0  0  0  0  0999 V2000     
   20.0147   19.9192   23.2080 N   0  3  0  0  0  0  0  0  0  0  0  0
   19.7390   18.9452   23.3563 H   0  0  0  0  0  0  0  0  0  0  0  0
   19.1607   20.4837   23.2486 H   0  0  0  0  0  0  0  0  0  0  0  0
   20.5920   20.1956   24.0088 H   0  0  0  0  0  0  0  0  0  0  0  0
   20.7489   20.1018   21.8936 C   0  0  0  0  0  0  0  0  0  0  0  0
   21.6815   19.5327   21.9338 H   0  0  0  0  0  0  0  0  0  0  0  0
   21.0034   21.1622   21.8140 H   0  0  0  0  0  0  0  0  0  0  0  0
   19.9360   19.6852   20.6496 C   0  0  0  0  0  0  0  0  0  0  0  0
   18.9066   20.0585   20.7313 H   0  0  0  0  0  0  0  0  0  0  0  0
   20.3723   20.1928   19.7791 H   0  0  0  0  0  0  0  0  0  0  0  0
   19.9360   18.1620   20.3624 C   0  0  0  0  0  0  0  0  0  0  0  0
   20.9683   17.8127   20.2201 H   0  0  0  0  0  0  0  0  0  0  0  0
   19.4226   17.9902   19.4059 H   0  0  0  0  0  0  0  0  0  0  0  0
   19.2482   17.3065   21.4506 C   0  0  0  0  0  0  0  0  0  0  0  0
   19.8402   17.2766   22.3727 H   0  0  0  0  0  0  0  0  0  0  0  0
   19.1364   16.2703   21.1058 H   0  0  0  0  0  0  0  0  0  0  0  0
   18.2463   17.6894   21.6846 H   0  0  0  0  0  0  0  0  0  0  0  0
  1  2  1  0  0  0  0
  1  3  1  0  0  0  0
  1  4  1  0  0  0  0
  1  5  1  0  0  0  0
  5  6  1  0  0  0  0
  5  7  1  0  0  0  0
  5  8  1  0  0  0  0
  8  9  1  0  0  0  0
  8 10  1  0  0  0  0
  8 11  1  0  0  0  0
 11 12  1  0  0  0  0
 11 13  1  0  0  0  0
 11 14  1  0  0  0  0
 14 15  1  0  0  0  0
 14 16  1  0  0  0  0
 14 17  1  0  0  0  0
M  END
> <VConfSearch Rank>
255

> <Conf_Id>
19

> <Delta U+W>
2.662

> <U+W>
-13.203

> <U>
47.423

> <W>
-60.626

> <W(PB)>
-62.328

> <W(SA)>
1.702

> <Valence>
2.414

> <Coulomb>
44.831

> <VdW>
0.178

> <VdW6>
-3.743

> <VdW12>
3.921

> <Bond>
0.138

> <Angle>
0.941

> <Pdih>
1.335

> <Idih>
0.000

> <Tether>
0.000

$$$$
VeraChem MOL file


 17 16  0  0  0  0  0  0  0  0999 V2000     
   19.8317   18.7457   23.4315 N   0  3  0  0  0  0  0  0  0  0  0  0
   19.5695   18.0956   24.1795 H   0  0  0  0  0  0  0  0  0  0  0  0
   20.0517   19.6405   23.8792 H   0  0  0  0  0  0  0  0  0  0  0  0
   20.6990   18.3952   23.0170 H   0  0  0  0  0  0  0  0  0  0  0  0
   18.7319   18.8885   22.3970 C   0  0  0  0  0  0  0  0  0  0  0  0
   17.8489   19.2669   22.9192 H   0  0  0  0  0  0  0  0  0  0  0  0
   18.4927   17.8967   22.0040 H   0  0  0  0  0  0  0  0  0  0  0  0
   19.0752   19.8426   21.2336 C   0  0  0  0  0  0  0  0  0  0  0  0
   18.1308   20.1677   20.7773 H   0  0  0  0  0  0  0  0  0  0  0  0
   19.5509   20.7528   21.6222 H   0  0  0  0  0  0  0  0  0  0  0  0
   19.9494   19.2104   20.1206 C   0  0  0  0  0  0  0  0  0  0  0  0
   20.0435   19.9360   19.3005 H   0  0  0  0  0  0  0  0  0  0  0  0
   19.4335   18.3376   19.6964 H   0  0  0  0  0  0  0  0  0  0  0  0
   21.3671   18.7985   20.5782 C   0  0  0  0  0  0  0  0  0  0  0  0
   21.8755   19.6242   21.0929 H   0  0  0  0  0  0  0  0  0  0  0  0
   21.9803   18.5186   19.7117 H   0  0  0  0  0  0  0  0  0  0  0  0
   21.3378   17.9294   21.2457 H   0  0  0  0  0  0  0  0  0  0  0  0
  1  2  1  0  0  0  0
  1  3  1  0  0  0  0
  1  4  1  0  0  0  0
  1  5  1  0  0  0  0
  5  6  1  0  0  0  0
  5  7  1  0  0  0  0
  5  8  1  0  0  0  0
  8  9  1  0  0  0  0
  8 10  1  0  0  0  0
  8 11  1  0  0  0  0
 11 12  1  0  0  0  0
 11 13  1  0  0  0  0
 11 14  1  0  0  0  0
 14 15  1  0  0  0  0
 14 16  1  0  0  0  0
 14 17  1  0  0  0  0
M  END
> <VConfSearch Rank>
256

> <Conf_Id>
44

> <Delta U+W>
2.712

> <U+W>
-13.153

> <U>
47.423

> <W>
-60.576

> <W(PB)>
-62.262

> <W(SA)>
1.687

> <Valence>
2.414

> <Coulomb>
44.831

> <VdW>
0.178

> <VdW6>
-3.743

> <VdW12>
3.922

> <Bond>
0.138

> <Angle>
0.941

> <Pdih>
1.335

> <Idih>
0.000

> <Tether>
0.000

$$$$
VeraChem MOL file


 17 16  0  0  0  0  0  0  0  0999 V2000     
   19.8624   19.1504   19.6167 N   0  3  0  0  0  0  0  0  0  0  0  0
   19.4333   18.2588   19.8802 H   0  0  0  0  0  0  0  0  0  0  0  0
   20.7743   18.9367   19.2019 H   0  0  0  0  0  0  0  0  0  0  0  0
   19.2837   19.5525   18.8723 H   0  0  0  0  0  0  0  0  0  0  0  0
   19.9859   20.0869   20.8031 C   0  0  0  0  0  0  0  0  0  0  0  0
   18.9802   20.2958   21.1769 H   0  0  0  0  0  0  0  0  0  0  0  0
   20.4143   21.0261   20.4427 H   0  0  0  0  0  0  0  0  0  0  0  0
   20.8609   19.5319   21.9461 C   0  0  0  0  0  0  0  0  0  0  0  0
   21.8792   19.3637   21.5713 H   0  0  0  0  0  0  0  0  0  0  0  0
   20.9456   20.2986   22.7276 H   0  0  0  0  0  0  0  0  0  0  0  0
   20.3213   18.2225   22.5737 C   0  0  0  0  0  0  0  0  0  0  0  0
   21.0130   17.8974   23.3634 H   0  0  0  0  0  0  0  0  0  0  0  0
   20.3169   17.4187   21.8250 H   0  0  0  0  0  0  0  0  0  0  0  0
   18.9070   18.3787   23.1780 C   0  0  0  0  0  0  0  0  0  0  0  0
   18.8857   19.1769   23.9313 H   0  0  0  0  0  0  0  0  0  0  0  0
   18.5926   17.4480   23.6678 H   0  0  0  0  0  0  0  0  0  0  0  0
   18.1623   18.6149   22.4076 H   0  0  0  0  0  0  0  0  0  0  0  0
  1  2  1  0  0  0  0
  1  3  1  0  0  0  0
  1  4  1  0  0  0  0
  1  5  1  0  0  0  0
  5  6  1  0  0  0  0
  5  7  1  0  0  0  0
  5  8  1  0  0  0  0
  8  9  1  0  0  0  0
  8 10  1  0  0  0  0
  8 11  1  0  0  0  0
 11 12  1  0  0  0  0
 11 13  1  0  0  0  0
 11 14  1  0  0  0  0
 14 15  1  0  0  0  0
 14 16  1  0  0  0  0
 14 17  1  0  0  0  0
M  END
> <VConfSearch Rank>
257

> <Conf_Id>
1

> <Delta U+W>
0.685

> <U+W>
-15.179

> <U>
45.697

> <W>
-60.876

> <W(PB)>
-62.586

> <W(SA)>
1.710

> <Valence>
1.263

> <Coulomb>
44.179

> <VdW>
0.255

> <VdW6>
-3.552

> <VdW12>
3.807

> <Bond>
0.125

> <Angle>
0.616

> <Pdih>
0.521

> <Idih>
0.000

> <Tether>
0.000

$$$$
VeraChem MOL file


 17 16  0  0  0  0  0  0  0  0999 V2000     
   18.4406   18.7795   20.3041 N   0  3  0  0  0  0  0  0  0  0  0  0
   18.4390   17.8330   19.9123 H   0  0  0  0  0  0  0  0  0  0  0  0
   19.1750   19.3055   19.8220 H   0  0  0  0  0  0  0  0  0  0  0  0
   17.5465   19.2097   20.0468 H   0  0  0  0  0  0  0  0  0  0  0  0
   18.6503   18.7697   21.8061 C   0  0  0  0  0  0  0  0  0  0  0  0
   17.8145   18.2266   22.2554 H   0  0  0  0  0  0  0  0  0  0  0  0
   18.6116   19.8029   22.1610 H   0  0  0  0  0  0  0  0  0  0  0  0
   19.9779   18.1181   22.2453 C   0  0  0  0  0  0  0  0  0  0  0  0
   20.0131   18.0979   23.3426 H   0  0  0  0  0  0  0  0  0  0  0  0
   19.9897   17.0695   21.9198 H   0  0  0  0  0  0  0  0  0  0  0  0
   21.2405   18.8372   21.7084 C   0  0  0  0  0  0  0  0  0  0  0  0
   21.2668   18.7856   20.6114 H   0  0  0  0  0  0  0  0  0  0  0  0
   22.1312   18.2969   22.0586 H   0  0  0  0  0  0  0  0  0  0  0  0
   21.3368   20.3117   22.1627 C   0  0  0  0  0  0  0  0  0  0  0  0
   22.2760   20.7612   21.8150 H   0  0  0  0  0  0  0  0  0  0  0  0
   21.3137   20.3897   23.2574 H   0  0  0  0  0  0  0  0  0  0  0  0
   20.5128   20.9134   21.7590 H   0  0  0  0  0  0  0  0  0  0  0  0
  1  2  1  0  0  0  0
  1  3  1  0  0  0  0
  1  4  1  0  0  0  0
  1  5  1  0  0  0  0
  5  6  1  0  0  0  0
  5  7  1  0  0  0  0
  5  8  1  0  0  0  0
  8  9  1  0  0  0  0
  8 10  1  0  0  0  0
  8 11  1  0  0  0  0
 11 12  1  0  0  0  0
 11 13  1  0  0  0  0
 11 14  1  0  0  0  0
 14 15  1  0  0  0  0
 14 16  1  0  0  0  0
 14 17  1  0  0  0  0
M  END
> <VConfSearch Rank>
258

> <Conf_Id>
43

> <Delta U+W>
0.642

> <U+W>
-15.222

> <U>
45.697

> <W>
-60.919

> <W(PB)>
-62.631

> <W(SA)>
1.712

> <Valence>
1.262

> <Coulomb>
44.179

> <VdW>
0.255

> <VdW6>
-3.552

> <VdW12>
3.807

> <Bond>
0.125

> <Angle>
0.616

> <Pdih>
0.521

> <Idih>
0.000

> <Tether>
0.000

$$$$
VeraChem MOL file


 17 16  0  0  0  0  0  0  0  0999 V2000     
   18.1279   18.5124   23.3181 N   0  3  0  0  0  0  0  0  0  0  0  0
   18.7361   18.4300   24.1384 H   0  0  0  0  0  0  0  0  0  0  0  0
   17.9258   17.5607   22.9968 H   0  0  0  0  0  0  0  0  0  0  0  0
   17.2411   18.9091   23.6455 H   0  0  0  0  0  0  0  0  0  0  0  0
   18.7555   19.3585   22.2283 C   0  0  0  0  0  0  0  0  0  0  0  0
   18.9138   20.3630   22.6299 H   0  0  0  0  0  0  0  0  0  0  0  0
   18.0424   19.4283   21.4024 H   0  0  0  0  0  0  0  0  0  0  0  0
   20.0905   18.7910   21.7128 C   0  0  0  0  0  0  0  0  0  0  0  0
   20.7989   18.7078   22.5478 H   0  0  0  0  0  0  0  0  0  0  0  0
   19.9305   17.7763   21.3243 H   0  0  0  0  0  0  0  0  0  0  0  0
   20.6953   19.6817   20.6054 C   0  0  0  0  0  0  0  0  0  0  0  0
   20.8526   20.6984   20.9926 H   0  0  0  0  0  0  0  0  0  0  0  0
   19.9853   19.7680   19.7706 H   0  0  0  0  0  0  0  0  0  0  0  0
   22.0348   19.1187   20.0833 C   0  0  0  0  0  0  0  0  0  0  0  0
   22.4476   19.7653   19.2981 H   0  0  0  0  0  0  0  0  0  0  0  0
   21.9030   18.1153   19.6578 H   0  0  0  0  0  0  0  0  0  0  0  0
   22.7771   19.0530   20.8895 H   0  0  0  0  0  0  0  0  0  0  0  0
  1  2  1  0  0  0  0
  1  3  1  0  0  0  0
  1  4  1  0  0  0  0
  1  5  1  0  0  0  0
  5  6  1  0  0  0  0
  5  7  1  0  0  0  0
  5  8  1  0  0  0  0
  8  9  1  0  0  0  0
  8 10  1  0  0  0  0
  8 11  1  0  0  0  0
 11 12  1  0  0  0  0
 11 13  1  0  0  0  0
 11 14  1  0  0  0  0
 14 15  1  0  0  0  0
 14 16  1  0  0  0  0
 14 17  1  0  0  0  0
M  END
> <VConfSearch Rank>
259

> <Conf_Id>
7

> <Delta U+W>
0.000

> <U+W>
-15.865

> <U>
44.664

> <W>
-60.529

> <W(PB)>
-62.309

> <W(SA)>
1.780

> <Valence>
0.872

> <Coulomb>
43.648

> <VdW>
0.144

> <VdW6>
-2.370

> <VdW12>
2.515

> <Bond>
0.080

> <Angle>
0.376

> <Pdih>
0.416

> <Idih>
0.000

> <Tether>
0.000

$$$$
VeraChem MOL file


 17 16  0  0  0  0  0  0  0  0999 V2000     
   20.6142   21.3298   21.0137 N   0  3  0  0  0  0  0  0  0  0  0  0
   20.0074   22.0014   21.4937 H   0  0  0  0  0  0  0  0  0  0  0  0
   20.3189   21.3053   20.0329 H   0  0  0  0  0  0  0  0  0  0  0  0
   21.5609   21.7228   21.0284 H   0  0  0  0  0  0  0  0  0  0  0  0
   20.5632   19.9581   21.6563 C   0  0  0  0  0  0  0  0  0  0  0  0
   20.9181   20.0539   22.6860 H   0  0  0  0  0  0  0  0  0  0  0  0
   21.2545   19.3074   21.1144 H   0  0  0  0  0  0  0  0  0  0  0  0
   19.1529   19.3375   21.6507 C   0  0  0  0  0  0  0  0  0  0  0  0
   18.4586   20.0173   22.1623 H   0  0  0  0  0  0  0  0  0  0  0  0
   18.7958   19.2428   20.6166 H   0  0  0  0  0  0  0  0  0  0  0  0
   19.1065   17.9557   22.3439 C   0  0  0  0  0  0  0  0  0  0  0  0
   18.0646   17.6076   22.3767 H   0  0  0  0  0  0  0  0  0  0  0  0
   19.4321   18.0546   23.3891 H   0  0  0  0  0  0  0  0  0  0  0  0
   19.9711   16.8919   21.6293 C   0  0  0  0  0  0  0  0  0  0  0  0
   19.6698   16.7778   20.5799 H   0  0  0  0  0  0  0  0  0  0  0  0
   19.8606   15.9149   22.1174 H   0  0  0  0  0  0  0  0  0  0  0  0
   21.0362   17.1549   21.6535 H   0  0  0  0  0  0  0  0  0  0  0  0
  1  2  1  0  0  0  0
  1  3  1  0  0  0  0
  1  4  1  0  0  0  0
  1  5  1  0  0  0  0
  5  6  1  0  0  0  0
  5  7  1  0  0  0  0
  5  8  1  0  0  0  0
  8  9  1  0  0  0  0
  8 10  1  0  0  0  0
  8 11  1  0  0  0  0
 11 12  1  0  0  0  0
 11 13  1  0  0  0  0
 11 14  1  0  0  0  0
 14 15  1  0  0  0  0
 14 16  1  0  0  0  0
 14 17  1  0  0  0  0
M  END
> <VConfSearch Rank>
260

> <Conf_Id>
36

> <Delta U+W>
0.275

> <U+W>
-15.590

> <U>
45.174

> <W>
-60.765

> <W(PB)>
-62.518

> <W(SA)>
1.754

> <Valence>
1.161

> <Coulomb>
43.789

> <VdW>
0.224

> <VdW6>
-2.897

> <VdW12>
3.121

> <Bond>
0.100

> <Angle>
0.500

> <Pdih>
0.561

> <Idih>
0.000

> <Tether>
0.000

$$$$
VeraChem MOL file


 17 16  0  0  0  0  0  0  0  0999 V2000     
   19.3236   17.3306   22.1779 N   0  3  0  0  0  0  0  0  0  0  0  0
   20.3450   17.3794   22.2100 H   0  0  0  0  0  0  0  0  0  0  0  0
   19.0732   16.8114   21.3310 H   0  0  0  0  0  0  0  0  0  0  0  0
   19.0227   16.7612   22.9755 H   0  0  0  0  0  0  0  0  0  0  0  0
   18.6938   18.7101   22.2000 C   0  0  0  0  0  0  0  0  0  0  0  0
   18.9378   19.1889   23.1521 H   0  0  0  0  0  0  0  0  0  0  0  0
   17.6104   18.5676   22.1613 H   0  0  0  0  0  0  0  0  0  0  0  0
   19.1229   19.6222   21.0315 C   0  0  0  0  0  0  0  0  0  0  0  0
   19.1133   19.0566   20.0904 H   0  0  0  0  0  0  0  0  0  0  0  0
   18.3607   20.4049   20.9203 H   0  0  0  0  0  0  0  0  0  0  0  0
   20.4943   20.3172   21.2288 C   0  0  0  0  0  0  0  0  0  0  0  0
   20.4702   20.9304   22.1406 H   0  0  0  0  0  0  0  0  0  0  0  0
   20.6505   21.0173   20.3960 H   0  0  0  0  0  0  0  0  0  0  0  0
   21.6981   19.3496   21.2905 C   0  0  0  0  0  0  0  0  0  0  0  0
   21.6993   18.7678   22.2196 H   0  0  0  0  0  0  0  0  0  0  0  0
   22.6403   19.9122   21.2614 H   0  0  0  0  0  0  0  0  0  0  0  0
   21.6972   18.6574   20.4385 H   0  0  0  0  0  0  0  0  0  0  0  0
  1  2  1  0  0  0  0
  1  3  1  0  0  0  0
  1  4  1  0  0  0  0
  1  5  1  0  0  0  0
  5  6  1  0  0  0  0
  5  7  1  0  0  0  0
  5  8  1  0  0  0  0
  8  9  1  0  0  0  0
  8 10  1  0  0  0  0
  8 11  1  0  0  0  0
 11 12  1  0  0  0  0
 11 13  1  0  0  0  0
 11 14  1  0  0  0  0
 14 15  1  0  0  0  0
 14 16  1  0  0  0  0
 14 17  1  0  0  0  0
M  END
> <VConfSearch Rank>
261

> <Conf_Id>
19

> <Delta U+W>
2.662

> <U+W>
-13.203

> <U>
47.423

> <W>
-60.626

> <W(PB)>
-62.328

> <W(SA)>
1.702

> <Valence>
2.414

> <Coulomb>
44.831

> <VdW>
0.178

> <VdW6>
-3.743

> <VdW12>
3.921

> <Bond>
0.138

> <Angle>
0.941

> <Pdih>
1.335

> <Idih>
0.000

> <Tether>
0.000

$$$$
VeraChem MOL file


 17 16  0  0  0  0  0  0  0  0999 V2000     
   20.7436   18.0546   20.2980 N   0  3  0  0  0  0  0  0  0  0  0  0
   20.7547   17.7553   19.3176 H   0  0  0  0  0  0  0  0  0  0  0  0
   21.4182   17.4660   20.7959 H   0  0  0  0  0  0  0  0  0  0  0  0
   21.1022   19.0125   20.3253 H   0  0  0  0  0  0  0  0  0  0  0  0
   19.3561   17.9563   20.9022 C   0  0  0  0  0  0  0  0  0  0  0  0
   19.0516   16.9083   20.8352 H   0  0  0  0  0  0  0  0  0  0  0  0
   18.6680   18.5477   20.2922 H   0  0  0  0  0  0  0  0  0  0  0  0
   19.2716   18.4112   22.3745 C   0  0  0  0  0  0  0  0  0  0  0  0
   18.3727   17.9586   22.8138 H   0  0  0  0  0  0  0  0  0  0  0  0
   20.1203   18.0069   22.9418 H   0  0  0  0  0  0  0  0  0  0  0  0
   19.1756   19.9461   22.5685 C   0  0  0  0  0  0  0  0  0  0  0  0
   19.0145   20.1505   23.6363 H   0  0  0  0  0  0  0  0  0  0  0  0
   18.2865   20.3295   22.0483 H   0  0  0  0  0  0  0  0  0  0  0  0
   20.4235   20.7287   22.1004 C   0  0  0  0  0  0  0  0  0  0  0  0
   21.3421   20.3081   22.5299 H   0  0  0  0  0  0  0  0  0  0  0  0
   20.3568   21.7771   22.4189 H   0  0  0  0  0  0  0  0  0  0  0  0
   20.5115   20.7294   21.0077 H   0  0  0  0  0  0  0  0  0  0  0  0
  1  2  1  0  0  0  0
  1  3  1  0  0  0  0
  1  4  1  0  0  0  0
  1  5  1  0  0  0  0
  5  6  1  0  0  0  0
  5  7  1  0  0  0  0
  5  8  1  0  0  0  0
  8  9  1  0  0  0  0
  8 10  1  0  0  0  0
  8 11  1  0  0  0  0
 11 12  1  0  0  0  0
 11 13  1  0  0  0  0
 11 14  1  0  0  0  0
 14 15  1  0  0  0  0
 14 16  1  0  0  0  0
 14 17  1  0  0  0  0
M  END
> <VConfSearch Rank>
262

> <Conf_Id>
44

> <Delta U+W>
2.712

> <U+W>
-13.153

> <U>
47.423

> <W>
-60.576

> <W(PB)>
-62.262

> <W(SA)>
1.687

> <Valence>
2.414

> <Coulomb>
44.831

> <VdW>
0.178

> <VdW6>
-3.743

> <VdW12>
3.922

> <Bond>
0.138

> <Angle>
0.941

> <Pdih>
1.335

> <Idih>
0.000

> <Tether>
0.000

$$$$
VeraChem MOL file


 17 16  0  0  0  0  0  0  0  0999 V2000     
   18.6600   17.5255   21.3316 N   0  3  0  0  0  0  0  0  0  0  0  0
   18.1874   18.2077   21.9313 H   0  0  0  0  0  0  0  0  0  0  0  0
   18.9054   16.7237   21.9201 H   0  0  0  0  0  0  0  0  0  0  0  0
   17.9681   17.1949   20.6515 H   0  0  0  0  0  0  0  0  0  0  0  0
   19.8776   18.1226   20.6527 C   0  0  0  0  0  0  0  0  0  0  0  0
   19.5427   18.9496   20.0212 H   0  0  0  0  0  0  0  0  0  0  0  0
   20.3072   17.3545   20.0038 H   0  0  0  0  0  0  0  0  0  0  0  0
   20.9563   18.6225   21.6358 C   0  0  0  0  0  0  0  0  0  0  0  0
   21.3152   17.7769   22.2374 H   0  0  0  0  0  0  0  0  0  0  0  0
   21.8210   18.9756   21.0585 H   0  0  0  0  0  0  0  0  0  0  0  0
   20.4751   19.7551   22.5765 C   0  0  0  0  0  0  0  0  0  0  0  0
   21.3011   20.0341   23.2457 H   0  0  0  0  0  0  0  0  0  0  0  0
   19.6689   19.3890   23.2267 H   0  0  0  0  0  0  0  0  0  0  0  0
   19.9989   21.0134   21.8150 C   0  0  0  0  0  0  0  0  0  0  0  0
   20.7890   21.3995   21.1580 H   0  0  0  0  0  0  0  0  0  0  0  0
   19.7300   21.8111   22.5196 H   0  0  0  0  0  0  0  0  0  0  0  0
   19.1147   20.8030   21.2003 H   0  0  0  0  0  0  0  0  0  0  0  0
  1  2  1  0  0  0  0
  1  3  1  0  0  0  0
  1  4  1  0  0  0  0
  1  5  1  0  0  0  0
  5  6  1  0  0  0  0
  5  7  1  0  0  0  0
  5  8  1  0  0  0  0
  8  9  1  0  0  0  0
  8 10  1  0  0  0  0
  8 11  1  0  0  0  0
 11 12  1  0  0  0  0
 11 13  1  0  0  0  0
 11 14  1  0  0  0  0
 14 15  1  0  0  0  0
 14 16  1  0  0  0  0
 14 17  1  0  0  0  0
M  END
> <VConfSearch Rank>
263

> <Conf_Id>
1

> <Delta U+W>
0.685

> <U+W>
-15.179

> <U>
45.697

> <W>
-60.876

> <W(PB)>
-62.586

> <W(SA)>
1.710

> <Valence>
1.263

> <Coulomb>
44.179

> <VdW>
0.255

> <VdW6>
-3.552

> <VdW12>
3.807

> <Bond>
0.125

> <Angle>
0.616

> <Pdih>
0.521

> <Idih>
0.000

> <Tether>
0.000

$$$$
VeraChem MOL file


 17 16  0  0  0  0  0  0  0  0999 V2000     
   20.2266   20.5886   20.4054 N   0  3  0  0  0  0  0  0  0  0  0  0
   20.8143   20.3404   19.6039 H   0  0  0  0  0  0  0  0  0  0  0  0
   20.8471   20.7029   21.2119 H   0  0  0  0  0  0  0  0  0  0  0  0
   19.8236   21.5095   20.2051 H   0  0  0  0  0  0  0  0  0  0  0  0
   19.1544   19.5479   20.6646 C   0  0  0  0  0  0  0  0  0  0  0  0
   18.5104   19.5064   19.7819 H   0  0  0  0  0  0  0  0  0  0  0  0
   18.5487   19.8875   21.5088 H   0  0  0  0  0  0  0  0  0  0  0  0
   19.7114   18.1393   20.9571 C   0  0  0  0  0  0  0  0  0  0  0  0
   18.8685   17.4442   21.0670 H   0  0  0  0  0  0  0  0  0  0  0  0
   20.2839   17.7904   20.0876 H   0  0  0  0  0  0  0  0  0  0  0  0
   20.6017   18.0643   22.2225 C   0  0  0  0  0  0  0  0  0  0  0  0
   21.4984   18.6849   22.0907 H   0  0  0  0  0  0  0  0  0  0  0  0
   20.9618   17.0327   22.3410 H   0  0  0  0  0  0  0  0  0  0  0  0
   19.8599   18.4883   23.5109 C   0  0  0  0  0  0  0  0  0  0  0  0
   20.5065   18.3573   24.3882 H   0  0  0  0  0  0  0  0  0  0  0  0
   18.9589   17.8806   23.6655 H   0  0  0  0  0  0  0  0  0  0  0  0
   19.5597   19.5430   23.4756 H   0  0  0  0  0  0  0  0  0  0  0  0
  1  2  1  0  0  0  0
  1  3  1  0  0  0  0
  1  4  1  0  0  0  0
  1  5  1  0  0  0  0
  5  6  1  0  0  0  0
  5  7  1  0  0  0  0
  5  8  1  0  0  0  0
  8  9  1  0  0  0  0
  8 10  1  0  0  0  0
  8 11  1  0  0  0  0
 11 12  1  0  0  0  0
 11 13  1  0  0  0  0
 11 14  1  0  0  0  0
 14 15  1  0  0  0  0
 14 16  1  0  0  0  0
 14 17  1  0  0  0  0
M  END
> <VConfSearch Rank>
264

> <Conf_Id>
43

> <Delta U+W>
0.642

> <U+W>
-15.222

> <U>
45.697

> <W>
-60.919

> <W(PB)>
-62.631

> <W(SA)>
1.712

> <Valence>
1.262

> <Coulomb>
44.179

> <VdW>
0.255

> <VdW6>
-3.552

> <VdW12>
3.807

> <Bond>
0.125

> <Angle>
0.616

> <Pdih>
0.521

> <Idih>
0.000

> <Tether>
0.000

$$$$
VeraChem MOL file


 17 16  0  0  0  0  0  0  0  0999 V2000     
   21.3169   20.9117   20.4570 N   0  3  0  0  0  0  0  0  0  0  0  0
   22.2325   20.6609   20.8423 H   0  0  0  0  0  0  0  0  0  0  0  0
   20.9630   21.6981   21.0102 H   0  0  0  0  0  0  0  0  0  0  0  0
   21.4813   21.2664   19.5093 H   0  0  0  0  0  0  0  0  0  0  0  0
   20.3582   19.7377   20.4610 C   0  0  0  0  0  0  0  0  0  0  0  0
   20.7834   18.9526   19.8298 H   0  0  0  0  0  0  0  0  0  0  0  0
   19.4183   20.0679   20.0104 H   0  0  0  0  0  0  0  0  0  0  0  0
   20.0884   19.1794   21.8701 C   0  0  0  0  0  0  0  0  0  0  0  0
   21.0364   18.8632   22.3255 H   0  0  0  0  0  0  0  0  0  0  0  0
   19.6759   19.9746   22.5053 H   0  0  0  0  0  0  0  0  0  0  0  0
   19.1084   17.9864   21.8292 C   0  0  0  0  0  0  0  0  0  0  0  0
   19.5193   17.1914   21.1909 H   0  0  0  0  0  0  0  0  0  0  0  0
   18.1604   18.3015   21.3706 H   0  0  0  0  0  0  0  0  0  0  0  0
   18.8330   17.4210   23.2394 C   0  0  0  0  0  0  0  0  0  0  0  0
   18.1353   16.5750   23.1886 H   0  0  0  0  0  0  0  0  0  0  0  0
   18.3891   18.1843   23.8916 H   0  0  0  0  0  0  0  0  0  0  0  0
   19.7587   17.0655   23.7105 H   0  0  0  0  0  0  0  0  0  0  0  0
  1  2  1  0  0  0  0
  1  3  1  0  0  0  0
  1  4  1  0  0  0  0
  1  5  1  0  0  0  0
  5  6  1  0  0  0  0
  5  7  1  0  0  0  0
  5  8  1  0  0  0  0
  8  9  1  0  0  0  0
  8 10  1  0  0  0  0
  8 11  1  0  0  0  0
 11 12  1  0  0  0  0
 11 13  1  0  0  0  0
 11 14  1  0  0  0  0
 14 15  1  0  0  0  0
 14 16  1  0  0  0  0
 14 17  1  0  0  0  0
M  END
> <VConfSearch Rank>
265

> <Conf_Id>
7

> <Delta U+W>
0.000

> <U+W>
-15.865

> <U>
44.664

> <W>
-60.529

> <W(PB)>
-62.309

> <W(SA)>
1.780

> <Valence>
0.872

> <Coulomb>
43.648

> <VdW>
0.144

> <VdW6>
-2.370

> <VdW12>
2.515

> <Bond>
0.080

> <Angle>
0.376

> <Pdih>
0.416

> <Idih>
0.000

> <Tether>
0.000

$$$$
VeraChem MOL file


 17 16  0  0  0  0  0  0  0  0999 V2000     
   21.4461   20.9389   21.9793 N   0  3  0  0  0  0  0  0  0  0  0  0
   22.2512   20.6016   22.5157 H   0  0  0  0  0  0  0  0  0  0  0  0
   20.8605   21.4788   22.6236 H   0  0  0  0  0  0  0  0  0  0  0  0
   21.8089   21.5993   21.2843 H   0  0  0  0  0  0  0  0  0  0  0  0
   20.6793   19.8032   21.3315 C   0  0  0  0  0  0  0  0  0  0  0  0
   21.3533   19.2924   20.6386 H   0  0  0  0  0  0  0  0  0  0  0  0
   19.8591   20.2380   20.7544 H   0  0  0  0  0  0  0  0  0  0  0  0
   20.1192   18.7911   22.3493 C   0  0  0  0  0  0  0  0  0  0  0  0
   20.9461   18.3903   22.9505 H   0  0  0  0  0  0  0  0  0  0  0  0
   19.4436   19.3045   23.0462 H   0  0  0  0  0  0  0  0  0  0  0  0
   19.3730   17.6168   21.6738 C   0  0  0  0  0  0  0  0  0  0  0  0
   19.0710   16.8947   22.4454 H   0  0  0  0  0  0  0  0  0  0  0  0
   20.0574   17.0813   21.0007 H   0  0  0  0  0  0  0  0  0  0  0  0
   18.1204   18.0688   20.8884 C   0  0  0  0  0  0  0  0  0  0  0  0
   17.4219   18.6125   21.5377 H   0  0  0  0  0  0  0  0  0  0  0  0
   17.5890   17.2001   20.4784 H   0  0  0  0  0  0  0  0  0  0  0  0
   18.3854   18.7216   20.0472 H   0  0  0  0  0  0  0  0  0  0  0  0
  1  2  1  0  0  0  0
  1  3  1  0  0  0  0
  1  4  1  0  0  0  0
  1  5  1  0  0  0  0
  5  6  1  0  0  0  0
  5  7  1  0  0  0  0
  5  8  1  0  0  0  0
  8  9  1  0  0  0  0
  8 10  1  0  0  0  0
  8 11  1  0  0  0  0
 11 12  1  0  0  0  0
 11 13  1  0  0  0  0
 11 14  1  0  0  0  0
 14 15  1  0  0  0  0
 14 16  1  0  0  0  0
 14 17  1  0  0  0  0
M  END
> <VConfSearch Rank>
266

> <Conf_Id>
36

> <Delta U+W>
0.275

> <U+W>
-15.590

> <U>
45.174

> <W>
-60.765

> <W(PB)>
-62.518

> <W(SA)>
1.754

> <Valence>
1.161

> <Coulomb>
43.789

> <VdW>
0.224

> <VdW6>
-2.897

> <VdW12>
3.121

> <Bond>
0.100

> <Angle>
0.500

> <Pdih>
0.561

> <Idih>
0.000

> <Tether>
0.000

$$$$
VeraChem MOL file


 17 16  0  0  0  0  0  0  0  0999 V2000     
   21.6219   19.3205   20.8873 N   0  3  0  0  0  0  0  0  0  0  0  0
   20.9893   20.1094   20.7311 H   0  0  0  0  0  0  0  0  0  0  0  0
   21.6670   18.7924   20.0107 H   0  0  0  0  0  0  0  0  0  0  0  0
   22.5565   19.7095   21.0484 H   0  0  0  0  0  0  0  0  0  0  0  0
   21.1644   18.4536   22.0446 C   0  0  0  0  0  0  0  0  0  0  0  0
   21.2011   19.0487   22.9610 H   0  0  0  0  0  0  0  0  0  0  0  0
   21.8888   17.6403   22.1407 H   0  0  0  0  0  0  0  0  0  0  0  0
   19.7541   17.8525   21.8682 C   0  0  0  0  0  0  0  0  0  0  0  0
   19.6345   17.4686   20.8464 H   0  0  0  0  0  0  0  0  0  0  0  0
   19.6774   16.9788   22.5290 H   0  0  0  0  0  0  0  0  0  0  0  0
   18.5947   18.8193   22.2200 C   0  0  0  0  0  0  0  0  0  0  0  0
   18.6907   19.1468   23.2647 H   0  0  0  0  0  0  0  0  0  0  0  0
   17.6494   18.2615   22.1621 H   0  0  0  0  0  0  0  0  0  0  0  0
   18.4930   20.0568   21.2996 C   0  0  0  0  0  0  0  0  0  0  0  0
   19.3185   20.7567   21.4737 H   0  0  0  0  0  0  0  0  0  0  0  0
   17.5611   20.6024   21.4971 H   0  0  0  0  0  0  0  0  0  0  0  0
   18.4909   19.7670   20.2407 H   0  0  0  0  0  0  0  0  0  0  0  0
  1  2  1  0  0  0  0
  1  3  1  0  0  0  0
  1  4  1  0  0  0  0
  1  5  1  0  0  0  0
  5  6  1  0  0  0  0
  5  7  1  0  0  0  0
  5  8  1  0  0  0  0
  8  9  1  0  0  0  0
  8 10  1  0  0  0  0
  8 11  1  0  0  0  0
 11 12  1  0  0  0  0
 11 13  1  0  0  0  0
 11 14  1  0  0  0  0
 14 15  1  0  0  0  0
 14 16  1  0  0  0  0
 14 17  1  0  0  0  0
M  END
> <VConfSearch Rank>
267

> <Conf_Id>
19

> <Delta U+W>
2.662

> <U+W>
-13.203

> <U>
47.423

> <W>
-60.626

> <W(PB)>
-62.328

> <W(SA)>
1.702

> <Valence>
2.414

> <Coulomb>
44.831

> <VdW>
0.178

> <VdW6>
-3.743

> <VdW12>
3.921

> <Bond>
0.138

> <Angle>
0.941

> <Pdih>
1.335

> <Idih>
0.000

> <Tether>
0.000

$$$$
VeraChem MOL file


 17 16  0  0  0  0  0  0  0  0999 V2000     
   19.5607   20.5399   22.6809 N   0  3  0  0  0  0  0  0  0  0  0  0
   19.3284   20.8767   23.6208 H   0  0  0  0  0  0  0  0  0  0  0  0
   19.4634   21.3384   22.0466 H   0  0  0  0  0  0  0  0  0  0  0  0
   20.5505   20.2809   22.6890 H   0  0  0  0  0  0  0  0  0  0  0  0
   18.6791   19.3784   22.2640 C   0  0  0  0  0  0  0  0  0  0  0  0
   17.6469   19.7386   22.2799 H   0  0  0  0  0  0  0  0  0  0  0  0
   18.7717   18.5854   23.0109 H   0  0  0  0  0  0  0  0  0  0  0  0
   18.9934   18.8147   20.8621 C   0  0  0  0  0  0  0  0  0  0  0  0
   18.1036   18.2755   20.5108 H   0  0  0  0  0  0  0  0  0  0  0  0
   19.1464   19.6380   20.1519 H   0  0  0  0  0  0  0  0  0  0  0  0
   20.1931   17.8343   20.8177 C   0  0  0  0  0  0  0  0  0  0  0  0
   20.2610   17.4162   19.8035 H   0  0  0  0  0  0  0  0  0  0  0  0
   19.9994   16.9827   21.4850 H   0  0  0  0  0  0  0  0  0  0  0  0
   21.5537   18.4725   21.1790 C   0  0  0  0  0  0  0  0  0  0  0  0
   21.7345   19.3836   20.5938 H   0  0  0  0  0  0  0  0  0  0  0  0
   22.3714   17.7719   20.9652 H   0  0  0  0  0  0  0  0  0  0  0  0
   21.6119   18.7191   22.2455 H   0  0  0  0  0  0  0  0  0  0  0  0
  1  2  1  0  0  0  0
  1  3  1  0  0  0  0
  1  4  1  0  0  0  0
  1  5  1  0  0  0  0
  5  6  1  0  0  0  0
  5  7  1  0  0  0  0
  5  8  1  0  0  0  0
  8  9  1  0  0  0  0
  8 10  1  0  0  0  0
  8 11  1  0  0  0  0
 11 12  1  0  0  0  0
 11 13  1  0  0  0  0
 11 14  1  0  0  0  0
 14 15  1  0  0  0  0
 14 16  1  0  0  0  0
 14 17  1  0  0  0  0
M  END
> <VConfSearch Rank>
268

> <Conf_Id>
44

> <Delta U+W>
2.712

> <U+W>
-13.153

> <U>
47.423

> <W>
-60.576

> <W(PB)>
-62.262

> <W(SA)>
1.687

> <Valence>
2.414

> <Coulomb>
44.831

> <VdW>
0.178

> <VdW6>
-3.743

> <VdW12>
3.922

> <Bond>
0.138

> <Angle>
0.941

> <Pdih>
1.335

> <Idih>
0.000

> <Tether>
0.000

$$$$
VeraChem MOL file


 17 16  0  0  0  0  0  0  0  0999 V2000     
   21.0791   18.2775   23.0204 N   0  3  0  0  0  0  0  0  0  0  0  0
   21.5477   19.1164   22.6665 H   0  0  0  0  0  0  0  0  0  0  0  0
   21.6084   17.4689   22.6808 H   0  0  0  0  0  0  0  0  0  0  0  0
   21.1754   18.2891   24.0408 H   0  0  0  0  0  0  0  0  0  0  0  0
   19.6255   18.2228   22.5917 C   0  0  0  0  0  0  0  0  0  0  0  0
   19.1151   19.0942   23.0100 H   0  0  0  0  0  0  0  0  0  0  0  0
   19.1815   17.3268   23.0337 H   0  0  0  0  0  0  0  0  0  0  0  0
   19.4282   18.1890   21.0620 C   0  0  0  0  0  0  0  0  0  0  0  0
   19.9094   17.2892   20.6563 H   0  0  0  0  0  0  0  0  0  0  0  0
   18.3562   18.0850   20.8483 H   0  0  0  0  0  0  0  0  0  0  0  0
   19.9747   19.4392   20.3285 C   0  0  0  0  0  0  0  0  0  0  0  0
   19.8035   19.3194   19.2495 H   0  0  0  0  0  0  0  0  0  0  0  0
   21.0635   19.5065   20.4569 H   0  0  0  0  0  0  0  0  0  0  0  0
   19.3128   20.7547   20.7989 C   0  0  0  0  0  0  0  0  0  0  0  0
   18.2224   20.7125   20.6793 H   0  0  0  0  0  0  0  0  0  0  0  0
   19.6815   21.6037   20.2087 H   0  0  0  0  0  0  0  0  0  0  0  0
   19.5339   20.9638   21.8531 H   0  0  0  0  0  0  0  0  0  0  0  0
  1  2  1  0  0  0  0
  1  3  1  0  0  0  0
  1  4  1  0  0  0  0
  1  5  1  0  0  0  0
  5  6  1  0  0  0  0
  5  7  1  0  0  0  0
  5  8  1  0  0  0  0
  8  9  1  0  0  0  0
  8 10  1  0  0  0  0
  8 11  1  0  0  0  0
 11 12  1  0  0  0  0
 11 13  1  0  0  0  0
 11 14  1  0  0  0  0
 14 15  1  0  0  0  0
 14 16  1  0  0  0  0
 14 17  1  0  0  0  0
M  END
> <VConfSearch Rank>
269

> <Conf_Id>
1

> <Delta U+W>
0.685

> <U+W>
-15.179

> <U>
45.697

> <W>
-60.876

> <W(PB)>
-62.586

> <W(SA)>
1.710

> <Valence>
1.263

> <Coulomb>
44.179

> <VdW>
0.255

> <VdW6>
-3.552

> <VdW12>
3.807

> <Bond>
0.125

> <Angle>
0.616

> <Pdih>
0.521

> <Idih>
0.000

> <Tether>
0.000

$$$$
VeraChem MOL file


 17 16  0  0  0  0  0  0  0  0999 V2000     
   18.3260   19.8125   22.4791 N   0  3  0  0  0  0  0  0  0  0  0  0
   17.5998   20.0498   21.7966 H   0  0  0  0  0  0  0  0  0  0  0  0
   19.0357   20.5492   22.4345 H   0  0  0  0  0  0  0  0  0  0  0  0
   17.8930   19.8698   23.4064 H   0  0  0  0  0  0  0  0  0  0  0  0
   18.9214   18.4423   22.2183 C   0  0  0  0  0  0  0  0  0  0  0  0
   18.1193   17.7061   22.3186 H   0  0  0  0  0  0  0  0  0  0  0  0
   19.6635   18.2412   22.9953 H   0  0  0  0  0  0  0  0  0  0  0  0
   19.5733   18.3011   20.8273 C   0  0  0  0  0  0  0  0  0  0  0  0
   19.9167   17.2654   20.7038 H   0  0  0  0  0  0  0  0  0  0  0  0
   18.8112   18.4646   20.0538 H   0  0  0  0  0  0  0  0  0  0  0  0
   20.7630   19.2640   20.5883 C   0  0  0  0  0  0  0  0  0  0  0  0
   20.4170   20.3061   20.6175 H   0  0  0  0  0  0  0  0  0  0  0  0
   21.1510   19.1017   19.5729 H   0  0  0  0  0  0  0  0  0  0  0  0
   21.9132   19.0686   21.6025 C   0  0  0  0  0  0  0  0  0  0  0  0
   22.7590   19.7236   21.3564 H   0  0  0  0  0  0  0  0  0  0  0  0
   22.2775   18.0332   21.5913 H   0  0  0  0  0  0  0  0  0  0  0  0
   21.5954   19.3088   22.6249 H   0  0  0  0  0  0  0  0  0  0  0  0
  1  2  1  0  0  0  0
  1  3  1  0  0  0  0
  1  4  1  0  0  0  0
  1  5  1  0  0  0  0
  5  6  1  0  0  0  0
  5  7  1  0  0  0  0
  5  8  1  0  0  0  0
  8  9  1  0  0  0  0
  8 10  1  0  0  0  0
  8 11  1  0  0  0  0
 11 12  1  0  0  0  0
 11 13  1  0  0  0  0
 11 14  1  0  0  0  0
 14 15  1  0  0  0  0
 14 16  1  0  0  0  0
 14 17  1  0  0  0  0
M  END
> <VConfSearch Rank>
270

> <Conf_Id>
43

> <Delta U+W>
0.642

> <U+W>
-15.222

> <U>
45.697

> <W>
-60.919

> <W(PB)>
-62.631

> <W(SA)>
1.712

> <Valence>
1.262

> <Coulomb>
44.179

> <VdW>
0.255

> <VdW6>
-3.552

> <VdW12>
3.807

> <Bond>
0.125

> <Angle>
0.616

> <Pdih>
0.521

> <Idih>
0.000

> <Tether>
0.000

$$$$
VeraChem MOL file


 17 16  0  0  0  0  0  0  0  0999 V2000     
   20.9499   17.1474   20.2101 N   0  3  0  0  0  0  0  0  0  0  0  0
   20.1599   17.0257   19.5692 H   0  0  0  0  0  0  0  0  0  0  0  0
   20.8759   16.4136   20.9213 H   0  0  0  0  0  0  0  0  0  0  0  0
   21.8006   16.9535   19.6719 H   0  0  0  0  0  0  0  0  0  0  0  0
   20.9750   18.5329   20.8240 C   0  0  0  0  0  0  0  0  0  0  0  0
   21.0860   19.2591   20.0142 H   0  0  0  0  0  0  0  0  0  0  0  0
   21.8559   18.6009   21.4681 H   0  0  0  0  0  0  0  0  0  0  0  0
   19.7108   18.8577   21.6405 C   0  0  0  0  0  0  0  0  0  0  0  0
   18.8269   18.7733   20.9944 H   0  0  0  0  0  0  0  0  0  0  0  0
   19.5943   18.1175   22.4434 H   0  0  0  0  0  0  0  0  0  0  0  0
   19.7769   20.2764   22.2476 C   0  0  0  0  0  0  0  0  0  0  0  0
   19.8969   21.0175   21.4447 H   0  0  0  0  0  0  0  0  0  0  0  0
   20.6633   20.3625   22.8920 H   0  0  0  0  0  0  0  0  0  0  0  0
   18.5120   20.6092   23.0681 C   0  0  0  0  0  0  0  0  0  0  0  0
   18.5786   21.6203   23.4904 H   0  0  0  0  0  0  0  0  0  0  0  0
   18.3840   19.9050   23.9004 H   0  0  0  0  0  0  0  0  0  0  0  0
   17.6115   20.5651   22.4417 H   0  0  0  0  0  0  0  0  0  0  0  0
  1  2  1  0  0  0  0
  1  3  1  0  0  0  0
  1  4  1  0  0  0  0
  1  5  1  0  0  0  0
  5  6  1  0  0  0  0
  5  7  1  0  0  0  0
  5  8  1  0  0  0  0
  8  9  1  0  0  0  0
  8 10  1  0  0  0  0
  8 11  1  0  0  0  0
 11 12  1  0  0  0  0
 11 13  1  0  0  0  0
 11 14  1  0  0  0  0
 14 15  1  0  0  0  0
 14 16  1  0  0  0  0
 14 17  1  0  0  0  0
M  END
> <VConfSearch Rank>
271

> <Conf_Id>
7

> <Delta U+W>
0.000

> <U+W>
-15.865

> <U>
44.664

> <W>
-60.529

> <W(PB)>
-62.309

> <W(SA)>
1.780

> <Valence>
0.872

> <Coulomb>
43.648

> <VdW>
0.144

> <VdW6>
-2.370

> <VdW12>
2.515

> <Bond>
0.080

> <Angle>
0.376

> <Pdih>
0.416

> <Idih>
0.000

> <Tether>
0.000

$$$$
VeraChem MOL file


 17 16  0  0  0  0  0  0  0  0999 V2000     
   17.6829   19.8232   21.1141 N   0  3  0  0  0  0  0  0  0  0  0  0
   17.3742   19.3609   20.2534 H   0  0  0  0  0  0  0  0  0  0  0  0
   17.9016   20.7944   20.8720 H   0  0  0  0  0  0  0  0  0  0  0  0
   16.8737   19.8494   21.7428 H   0  0  0  0  0  0  0  0  0  0  0  0
   18.8651   19.1157   21.7460 C   0  0  0  0  0  0  0  0  0  0  0  0
   18.5526   18.1004   22.0045 H   0  0  0  0  0  0  0  0  0  0  0  0
   19.1172   19.6427   22.6698 H   0  0  0  0  0  0  0  0  0  0  0  0
   20.1003   19.0586   20.8266 C   0  0  0  0  0  0  0  0  0  0  0  0
   19.8259   18.5632   19.8858 H   0  0  0  0  0  0  0  0  0  0  0  0
   20.4131   20.0784   20.5656 H   0  0  0  0  0  0  0  0  0  0  0  0
   21.2862   18.3003   21.4674 C   0  0  0  0  0  0  0  0  0  0  0  0
   22.1010   18.2264   20.7334 H   0  0  0  0  0  0  0  0  0  0  0  0
   20.9847   17.2690   21.6988 H   0  0  0  0  0  0  0  0  0  0  0  0
   21.8205   18.9845   22.7466 C   0  0  0  0  0  0  0  0  0  0  0  0
   22.1235   20.0200   22.5437 H   0  0  0  0  0  0  0  0  0  0  0  0
   22.6976   18.4486   23.1320 H   0  0  0  0  0  0  0  0  0  0  0  0
   21.0652   18.9980   23.5424 H   0  0  0  0  0  0  0  0  0  0  0  0
  1  2  1  0  0  0  0
  1  3  1  0  0  0  0
  1  4  1  0  0  0  0
  1  5  1  0  0  0  0
  5  6  1  0  0  0  0
  5  7  1  0  0  0  0
  5  8  1  0  0  0  0
  8  9  1  0  0  0  0
  8 10  1  0  0  0  0
  8 11  1  0  0  0  0
 11 12  1  0  0  0  0
 11 13  1  0  0  0  0
 11 14  1  0  0  0  0
 14 15  1  0  0  0  0
 14 16  1  0  0  0  0
 14 17  1  0  0  0  0
M  END
> <VConfSearch Rank>
272

> <Conf_Id>
36

> <Delta U+W>
0.275

> <U+W>
-15.590

> <U>
45.174

> <W>
-60.765

> <W(PB)>
-62.518

> <W(SA)>
1.754

> <Valence>
1.161

> <Coulomb>
43.789

> <VdW>
0.224

> <VdW6>
-2.897

> <VdW12>
3.121

> <Bond>
0.100

> <Angle>
0.500

> <Pdih>
0.561

> <Idih>
0.000

> <Tether>
0.000

$$$$
VeraChem MOL file


 17 16  0  0  0  0  0  0  0  0999 V2000     
   18.4144   17.9333   21.4550 N   0  3  0  0  0  0  0  0  0  0  0  0
   19.1767   17.4232   21.9083 H   0  0  0  0  0  0  0  0  0  0  0  0
   18.3797   17.6199   20.4804 H   0  0  0  0  0  0  0  0  0  0  0  0
   17.5413   17.6278   21.8968 H   0  0  0  0  0  0  0  0  0  0  0  0
   18.6034   19.4346   21.5578 C   0  0  0  0  0  0  0  0  0  0  0  0
   18.5642   19.7190   22.6127 H   0  0  0  0  0  0  0  0  0  0  0  0
   17.7534   19.8994   21.0508 H   0  0  0  0  0  0  0  0  0  0  0  0
   19.9116   19.9541   20.9250 C   0  0  0  0  0  0  0  0  0  0  0  0
   20.0767   19.4702   19.9532 H   0  0  0  0  0  0  0  0  0  0  0  0
   19.7785   21.0228   20.7105 H   0  0  0  0  0  0  0  0  0  0  0  0
   21.1653   19.8009   21.8235 C   0  0  0  0  0  0  0  0  0  0  0  0
   21.0119   20.3427   22.7674 H   0  0  0  0  0  0  0  0  0  0  0  0
   22.0112   20.2941   21.3242 H   0  0  0  0  0  0  0  0  0  0  0  0
   21.5586   18.3375   22.1277 C   0  0  0  0  0  0  0  0  0  0  0  0
   20.8404   17.8601   22.8044 H   0  0  0  0  0  0  0  0  0  0  0  0
   22.5388   18.3015   22.6208 H   0  0  0  0  0  0  0  0  0  0  0  0
   21.6272   17.7436   21.2069 H   0  0  0  0  0  0  0  0  0  0  0  0
  1  2  1  0  0  0  0
  1  3  1  0  0  0  0
  1  4  1  0  0  0  0
  1  5  1  0  0  0  0
  5  6  1  0  0  0  0
  5  7  1  0  0  0  0
  5  8  1  0  0  0  0
  8  9  1  0  0  0  0
  8 10  1  0  0  0  0
  8 11  1  0  0  0  0
 11 12  1  0  0  0  0
 11 13  1  0  0  0  0
 11 14  1  0  0  0  0
 14 15  1  0  0  0  0
 14 16  1  0  0  0  0
 14 17  1  0  0  0  0
M  END
> <VConfSearch Rank>
273

> <Conf_Id>
19

> <Delta U+W>
2.662

> <U+W>
-13.203

> <U>
47.423

> <W>
-60.626

> <W(PB)>
-62.328

> <W(SA)>
1.702

> <Valence>
2.414

> <Coulomb>
44.831

> <VdW>
0.178

> <VdW6>
-3.743

> <VdW12>
3.921

> <Bond>
0.138

> <Angle>
0.941

> <Pdih>
1.335

> <Idih>
0.000

> <Tether>
0.000

$$$$
VeraChem MOL file


 17 16  0  0  0  0  0  0  0  0999 V2000     
   20.8476   18.0377   22.8135 N   0  3  0  0  0  0  0  0  0  0  0  0
   21.5335   18.0373   23.5753 H   0  0  0  0  0  0  0  0  0  0  0  0
   20.7313   17.0637   22.5179 H   0  0  0  0  0  0  0  0  0  0  0  0
   19.9547   18.3401   23.2112 H   0  0  0  0  0  0  0  0  0  0  0  0
   21.2812   18.9273   21.6643 C   0  0  0  0  0  0  0  0  0  0  0  0
   22.2348   18.5361   21.2992 H   0  0  0  0  0  0  0  0  0  0  0  0
   21.4553   19.9351   22.0508 H   0  0  0  0  0  0  0  0  0  0  0  0
   20.2790   18.9833   20.4921 C   0  0  0  0  0  0  0  0  0  0  0  0
   20.8262   19.3134   19.5991 H   0  0  0  0  0  0  0  0  0  0  0  0
   19.9111   17.9742   20.2640 H   0  0  0  0  0  0  0  0  0  0  0  0
   19.0903   19.9543   20.7087 C   0  0  0  0  0  0  0  0  0  0  0  0
   18.5034   19.9952   19.7803 H   0  0  0  0  0  0  0  0  0  0  0  0
   19.4701   20.9725   20.8730 H   0  0  0  0  0  0  0  0  0  0  0  0
   18.1483   19.5624   21.8697 C   0  0  0  0  0  0  0  0  0  0  0  0
   17.8257   18.5165   21.7855 H   0  0  0  0  0  0  0  0  0  0  0  0
   17.2480   20.1904   21.8577 H   0  0  0  0  0  0  0  0  0  0  0  0
   18.6288   19.7075   22.8442 H   0  0  0  0  0  0  0  0  0  0  0  0
  1  2  1  0  0  0  0
  1  3  1  0  0  0  0
  1  4  1  0  0  0  0
  1  5  1  0  0  0  0
  5  6  1  0  0  0  0
  5  7  1  0  0  0  0
  5  8  1  0  0  0  0
  8  9  1  0  0  0  0
  8 10  1  0  0  0  0
  8 11  1  0  0  0  0
 11 12  1  0  0  0  0
 11 13  1  0  0  0  0
 11 14  1  0  0  0  0
 14 15  1  0  0  0  0
 14 16  1  0  0  0  0
 14 17  1  0  0  0  0
M  END
> <VConfSearch Rank>
274

> <Conf_Id>
44

> <Delta U+W>
2.712

> <U+W>
-13.153

> <U>
47.423

> <W>
-60.576

> <W(PB)>
-62.262

> <W(SA)>
1.687

> <Valence>
2.414

> <Coulomb>
44.831

> <VdW>
0.178

> <VdW6>
-3.743

> <VdW12>
3.922

> <Bond>
0.138

> <Angle>
0.941

> <Pdih>
1.335

> <Idih>
0.000

> <Tether>
0.000

$$$$
VeraChem MOL file


 17 16  0  0  0  0  0  0  0  0999 V2000     
   18.3961   18.4558   20.4645 N   0  3  0  0  0  0  0  0  0  0  0  0
   19.1487   18.7446   19.8331 H   0  0  0  0  0  0  0  0  0  0  0  0
   17.6672   19.1738   20.4153 H   0  0  0  0  0  0  0  0  0  0  0  0
   17.9938   17.5963   20.0770 H   0  0  0  0  0  0  0  0  0  0  0  0
   18.8977   18.2549   21.8815 C   0  0  0  0  0  0  0  0  0  0  0  0
   19.6473   17.4595   21.8667 H   0  0  0  0  0  0  0  0  0  0  0  0
   18.0544   17.9131   22.4879 H   0  0  0  0  0  0  0  0  0  0  0  0
   19.5002   19.5260   22.5149 C   0  0  0  0  0  0  0  0  0  0  0  0
   18.7284   20.3055   22.5625 H   0  0  0  0  0  0  0  0  0  0  0  0
   19.7748   19.3039   23.5547 H   0  0  0  0  0  0  0  0  0  0  0  0
   20.7404   20.0754   21.7669 C   0  0  0  0  0  0  0  0  0  0  0  0
   21.0889   20.9833   22.2789 H   0  0  0  0  0  0  0  0  0  0  0  0
   20.4610   20.3885   20.7517 H   0  0  0  0  0  0  0  0  0  0  0  0
   21.9042   19.0603   21.6969 C   0  0  0  0  0  0  0  0  0  0  0  0
   22.2028   18.7326   22.7012 H   0  0  0  0  0  0  0  0  0  0  0  0
   22.7820   19.5133   21.2180 H   0  0  0  0  0  0  0  0  0  0  0  0
   21.6309   18.1719   21.1139 H   0  0  0  0  0  0  0  0  0  0  0  0
  1  2  1  0  0  0  0
  1  3  1  0  0  0  0
  1  4  1  0  0  0  0
  1  5  1  0  0  0  0
  5  6  1  0  0  0  0
  5  7  1  0  0  0  0
  5  8  1  0  0  0  0
  8  9  1  0  0  0  0
  8 10  1  0  0  0  0
  8 11  1  0  0  0  0
 11 12  1  0  0  0  0
 11 13  1  0  0  0  0
 11 14  1  0  0  0  0
 14 15  1  0  0  0  0
 14 16  1  0  0  0  0
 14 17  1  0  0  0  0
M  END
> <VConfSearch Rank>
275

> <Conf_Id>
1

> <Delta U+W>
0.685

> <U+W>
-15.179

> <U>
45.697

> <W>
-60.876

> <W(PB)>
-62.586

> <W(SA)>
1.710

> <Valence>
1.263

> <Coulomb>
44.179

> <VdW>
0.255

> <VdW6>
-3.552

> <VdW12>
3.807

> <Bond>
0.125

> <Angle>
0.616

> <Pdih>
0.521

> <Idih>
0.000

> <Tether>
0.000

$$$$
VeraChem MOL file


 17 16  0  0  0  0  0  0  0  0999 V2000     
   18.5157   19.2426   22.9821 N   0  3  0  0  0  0  0  0  0  0  0  0
   18.5183   20.1868   23.3796 H   0  0  0  0  0  0  0  0  0  0  0  0
   19.2881   18.7293   23.4162 H   0  0  0  0  0  0  0  0  0  0  0  0
   17.6475   18.7928   23.2893 H   0  0  0  0  0  0  0  0  0  0  0  0
   18.6353   19.2649   21.4705 C   0  0  0  0  0  0  0  0  0  0  0  0
   17.7633   19.7931   21.0753 H   0  0  0  0  0  0  0  0  0  0  0  0
   18.5964   18.2331   21.1117 H   0  0  0  0  0  0  0  0  0  0  0  0
   19.9208   19.9460   20.9574 C   0  0  0  0  0  0  0  0  0  0  0  0
   19.8901   19.9728   19.8601 H   0  0  0  0  0  0  0  0  0  0  0  0
   19.9308   20.9929   21.2885 H   0  0  0  0  0  0  0  0  0  0  0  0
   21.2275   19.2502   21.4134 C   0  0  0  0  0  0  0  0  0  0  0  0
   21.3181   19.2964   22.5071 H   0  0  0  0  0  0  0  0  0  0  0  0
   22.0846   19.8106   21.0143 H   0  0  0  0  0  0  0  0  0  0  0  0
   21.3263   17.7804   20.9444 C   0  0  0  0  0  0  0  0  0  0  0  0
   22.2935   17.3485   21.2326 H   0  0  0  0  0  0  0  0  0  0  0  0
   21.2395   17.7079   19.8525 H   0  0  0  0  0  0  0  0  0  0  0  0
   20.5402   17.1598   21.3924 H   0  0  0  0  0  0  0  0  0  0  0  0
  1  2  1  0  0  0  0
  1  3  1  0  0  0  0
  1  4  1  0  0  0  0
  1  5  1  0  0  0  0
  5  6  1  0  0  0  0
  5  7  1  0  0  0  0
  5  8  1  0  0  0  0
  8  9  1  0  0  0  0
  8 10  1  0  0  0  0
  8 11  1  0  0  0  0
 11 12  1  0  0  0  0
 11 13  1  0  0  0  0
 11 14  1  0  0  0  0
 14 15  1  0  0  0  0
 14 16  1  0  0  0  0
 14 17  1  0  0  0  0
M  END
> <VConfSearch Rank>
276

> <Conf_Id>
43

> <Delta U+W>
0.642

> <U+W>
-15.222

> <U>
45.697

> <W>
-60.919

> <W(PB)>
-62.631

> <W(SA)>
1.712

> <Valence>
1.262

> <Coulomb>
44.179

> <VdW>
0.255

> <VdW6>
-3.552

> <VdW12>
3.807

> <Bond>
0.125

> <Angle>
0.616

> <Pdih>
0.521

> <Idih>
0.000

> <Tether>
0.000

$$$$
VeraChem MOL file


 17 16  0  0  0  0  0  0  0  0999 V2000     
   21.5027   18.1921   23.4577 N   0  3  0  0  0  0  0  0  0  0  0  0
   22.0472   19.0499   23.5891 H   0  0  0  0  0  0  0  0  0  0  0  0
   22.0665   17.5639   22.8770 H   0  0  0  0  0  0  0  0  0  0  0  0
   21.4201   17.7496   24.3787 H   0  0  0  0  0  0  0  0  0  0  0  0
   20.1457   18.4694   22.8420 C   0  0  0  0  0  0  0  0  0  0  0  0
   19.5906   19.1169   23.5262 H   0  0  0  0  0  0  0  0  0  0  0  0
   19.6113   17.5190   22.7605 H   0  0  0  0  0  0  0  0  0  0  0  0
   20.2327   19.1346   21.4563 C   0  0  0  0  0  0  0  0  0  0  0  0
   20.7833   20.0811   21.5393 H   0  0  0  0  0  0  0  0  0  0  0  0
   20.8038   18.4887   20.7762 H   0  0  0  0  0  0  0  0  0  0  0  0
   18.8304   19.3996   20.8656 C   0  0  0  0  0  0  0  0  0  0  0  0
   18.2569   20.0434   21.5475 H   0  0  0  0  0  0  0  0  0  0  0  0
   18.2775   18.4529   20.7853 H   0  0  0  0  0  0  0  0  0  0  0  0
   18.9097   20.0668   19.4755 C   0  0  0  0  0  0  0  0  0  0  0  0
   17.9041   20.2465   19.0736 H   0  0  0  0  0  0  0  0  0  0  0  0
   19.4483   19.4302   18.7615 H   0  0  0  0  0  0  0  0  0  0  0  0
   19.4277   21.0332   19.5298 H   0  0  0  0  0  0  0  0  0  0  0  0
  1  2  1  0  0  0  0
  1  3  1  0  0  0  0
  1  4  1  0  0  0  0
  1  5  1  0  0  0  0
  5  6  1  0  0  0  0
  5  7  1  0  0  0  0
  5  8  1  0  0  0  0
  8  9  1  0  0  0  0
  8 10  1  0  0  0  0
  8 11  1  0  0  0  0
 11 12  1  0  0  0  0
 11 13  1  0  0  0  0
 11 14  1  0  0  0  0
 14 15  1  0  0  0  0
 14 16  1  0  0  0  0
 14 17  1  0  0  0  0
M  END
> <VConfSearch Rank>
277

> <Conf_Id>
7

> <Delta U+W>
0.000

> <U+W>
-15.865

> <U>
44.664

> <W>
-60.529

> <W(PB)>
-62.309

> <W(SA)>
1.780

> <Valence>
0.872

> <Coulomb>
43.648

> <VdW>
0.144

> <VdW6>
-2.370

> <VdW12>
2.515

> <Bond>
0.080

> <Angle>
0.376

> <Pdih>
0.416

> <Idih>
0.000

> <Tether>
0.000

$$$$
VeraChem MOL file


 17 16  0  0  0  0  0  0  0  0999 V2000     
   18.4135   20.0468   19.9991 N   0  3  0  0  0  0  0  0  0  0  0  0
   18.9560   20.5940   19.3239 H   0  0  0  0  0  0  0  0  0  0  0  0
   17.9452   20.7140   20.6197 H   0  0  0  0  0  0  0  0  0  0  0  0
   17.6779   19.5680   19.4695 H   0  0  0  0  0  0  0  0  0  0  0  0
   19.2818   19.0703   20.7670 C   0  0  0  0  0  0  0  0  0  0  0  0
   19.7234   18.3739   20.0491 H   0  0  0  0  0  0  0  0  0  0  0  0
   18.6343   18.5033   21.4410 H   0  0  0  0  0  0  0  0  0  0  0  0
   20.3989   19.7576   21.5755 C   0  0  0  0  0  0  0  0  0  0  0  0
   21.0192   20.3562   20.8952 H   0  0  0  0  0  0  0  0  0  0  0  0
   19.9554   20.4583   22.2954 H   0  0  0  0  0  0  0  0  0  0  0  0
   21.3016   18.7484   22.3229 C   0  0  0  0  0  0  0  0  0  0  0  0
   22.1207   19.2953   22.8107 H   0  0  0  0  0  0  0  0  0  0  0  0
   21.7726   18.0670   21.6003 H   0  0  0  0  0  0  0  0  0  0  0  0
   20.5382   17.9285   23.3882 C   0  0  0  0  0  0  0  0  0  0  0  0
   20.0525   18.5868   24.1202 H   0  0  0  0  0  0  0  0  0  0  0  0
   21.2271   17.2712   23.9345 H   0  0  0  0  0  0  0  0  0  0  0  0
   19.7672   17.2941   22.9329 H   0  0  0  0  0  0  0  0  0  0  0  0
  1  2  1  0  0  0  0
  1  3  1  0  0  0  0
  1  4  1  0  0  0  0
  1  5  1  0  0  0  0
  5  6  1  0  0  0  0
  5  7  1  0  0  0  0
  5  8  1  0  0  0  0
  8  9  1  0  0  0  0
  8 10  1  0  0  0  0
  8 11  1  0  0  0  0
 11 12  1  0  0  0  0
 11 13  1  0  0  0  0
 11 14  1  0  0  0  0
 14 15  1  0  0  0  0
 14 16  1  0  0  0  0
 14 17  1  0  0  0  0
M  END
> <VConfSearch Rank>
278

> <Conf_Id>
36

> <Delta U+W>
0.275

> <U+W>
-15.590

> <U>
45.174

> <W>
-60.765

> <W(PB)>
-62.518

> <W(SA)>
1.754

> <Valence>
1.161

> <Coulomb>
43.789

> <VdW>
0.224

> <VdW6>
-2.897

> <VdW12>
3.121

> <Bond>
0.100

> <Angle>
0.500

> <Pdih>
0.561

> <Idih>
0.000

> <Tether>
0.000

$$$$
VeraChem MOL file


 17 16  0  0  0  0  0  0  0  0999 V2000     
   19.1199   17.4051   22.1320 N   0  3  0  0  0  0  0  0  0  0  0  0
   18.5293   18.2153   22.3359 H   0  0  0  0  0  0  0  0  0  0  0  0
   19.5719   17.1332   23.0102 H   0  0  0  0  0  0  0  0  0  0  0  0
   18.4966   16.6353   21.8678 H   0  0  0  0  0  0  0  0  0  0  0  0
   20.1343   17.7077   21.0461 C   0  0  0  0  0  0  0  0  0  0  0  0
   19.5974   17.9239   20.1186 H   0  0  0  0  0  0  0  0  0  0  0  0
   20.7201   16.7973   20.8930 H   0  0  0  0  0  0  0  0  0  0  0  0
   21.0917   18.8715   21.3788 C   0  0  0  0  0  0  0  0  0  0  0  0
   21.4436   18.7838   22.4152 H   0  0  0  0  0  0  0  0  0  0  0  0
   21.9836   18.7623   20.7476 H   0  0  0  0  0  0  0  0  0  0  0  0
   20.5002   20.2822   21.1278 C   0  0  0  0  0  0  0  0  0  0  0  0
   20.2100   20.3788   20.0722 H   0  0  0  0  0  0  0  0  0  0  0  0
   21.2934   21.0245   21.2940 H   0  0  0  0  0  0  0  0  0  0  0  0
   19.2955   20.6393   22.0279 C   0  0  0  0  0  0  0  0  0  0  0  0
   18.4045   20.0618   21.7555 H   0  0  0  0  0  0  0  0  0  0  0  0
   19.0382   21.7006   21.9157 H   0  0  0  0  0  0  0  0  0  0  0  0
   19.5229   20.4621   23.0871 H   0  0  0  0  0  0  0  0  0  0  0  0
  1  2  1  0  0  0  0
  1  3  1  0  0  0  0
  1  4  1  0  0  0  0
  1  5  1  0  0  0  0
  5  6  1  0  0  0  0
  5  7  1  0  0  0  0
  5  8  1  0  0  0  0
  8  9  1  0  0  0  0
  8 10  1  0  0  0  0
  8 11  1  0  0  0  0
 11 12  1  0  0  0  0
 11 13  1  0  0  0  0
 11 14  1  0  0  0  0
 14 15  1  0  0  0  0
 14 16  1  0  0  0  0
 14 17  1  0  0  0  0
M  END
> <VConfSearch Rank>
279

> <Conf_Id>
19

> <Delta U+W>
2.662

> <U+W>
-13.203

> <U>
47.423

> <W>
-60.626

> <W(PB)>
-62.328

> <W(SA)>
1.702

> <Valence>
2.414

> <Coulomb>
44.831

> <VdW>
0.178

> <VdW6>
-3.743

> <VdW12>
3.921

> <Bond>
0.138

> <Angle>
0.941

> <Pdih>
1.335

> <Idih>
0.000

> <Tether>
0.000

$$$$
VeraChem MOL file


 17 16  0  0  0  0  0  0  0  0999 V2000     
   19.7506   17.5482   20.5290 N   0  3  0  0  0  0  0  0  0  0  0  0
   20.1779   16.9911   19.7821 H   0  0  0  0  0  0  0  0  0  0  0  0
   18.8013   17.1870   20.6630 H   0  0  0  0  0  0  0  0  0  0  0  0
   20.2712   17.3519   21.3877 H   0  0  0  0  0  0  0  0  0  0  0  0
   19.7490   19.0283   20.1984 C   0  0  0  0  0  0  0  0  0  0  0  0
   19.1745   19.1493   19.2759 H   0  0  0  0  0  0  0  0  0  0  0  0
   20.7773   19.3417   19.9994 H   0  0  0  0  0  0  0  0  0  0  0  0
   19.1333   19.9227   21.2950 C   0  0  0  0  0  0  0  0  0  0  0  0
   18.8345   20.8697   20.8262 H   0  0  0  0  0  0  0  0  0  0  0  0
   18.2079   19.4691   21.6739 H   0  0  0  0  0  0  0  0  0  0  0  0
   20.0913   20.2530   22.4680 C   0  0  0  0  0  0  0  0  0  0  0  0
   19.5916   20.9738   23.1304 H   0  0  0  0  0  0  0  0  0  0  0  0
   20.9851   20.7636   22.0826 H   0  0  0  0  0  0  0  0  0  0  0  0
   20.5198   19.0280   23.3075 C   0  0  0  0  0  0  0  0  0  0  0  0
   19.6496   18.4411   23.6291 H   0  0  0  0  0  0  0  0  0  0  0  0
   21.0538   19.3532   24.2099 H   0  0  0  0  0  0  0  0  0  0  0  0
   21.2003   18.3753   22.7485 H   0  0  0  0  0  0  0  0  0  0  0  0
  1  2  1  0  0  0  0
  1  3  1  0  0  0  0
  1  4  1  0  0  0  0
  1  5  1  0  0  0  0
  5  6  1  0  0  0  0
  5  7  1  0  0  0  0
  5  8  1  0  0  0  0
  8  9  1  0  0  0  0
  8 10  1  0  0  0  0
  8 11  1  0  0  0  0
 11 12  1  0  0  0  0
 11 13  1  0  0  0  0
 11 14  1  0  0  0  0
 14 15  1  0  0  0  0
 14 16  1  0  0  0  0
 14 17  1  0  0  0  0
M  END
> <VConfSearch Rank>
280

> <Conf_Id>
44

> <Delta U+W>
2.712

> <U+W>
-13.153

> <U>
47.423

> <W>
-60.576

> <W(PB)>
-62.262

> <W(SA)>
1.687

> <Valence>
2.414

> <Coulomb>
44.831

> <VdW>
0.178

> <VdW6>
-3.743

> <VdW12>
3.922

> <Bond>
0.138

> <Angle>
0.941

> <Pdih>
1.335

> <Idih>
0.000

> <Tether>
0.000

$$$$
VeraChem MOL file


 17 16  0  0  0  0  0  0  0  0999 V2000     
   18.1678   19.9675   21.4673 N   0  3  0  0  0  0  0  0  0  0  0  0
   18.1400   19.1787   20.8150 H   0  0  0  0  0  0  0  0  0  0  0  0
   18.2365   20.8219   20.9064 H   0  0  0  0  0  0  0  0  0  0  0  0
   17.2597   19.9953   21.9420 H   0  0  0  0  0  0  0  0  0  0  0  0
   19.3150   19.8427   22.4512 C   0  0  0  0  0  0  0  0  0  0  0  0
   19.1646   18.9302   23.0340 H   0  0  0  0  0  0  0  0  0  0  0  0
   19.2606   20.6935   23.1357 H   0  0  0  0  0  0  0  0  0  0  0  0
   20.7061   19.8112   21.7851 C   0  0  0  0  0  0  0  0  0  0  0  0
   20.8640   20.7488   21.2359 H   0  0  0  0  0  0  0  0  0  0  0  0
   21.4717   19.7852   22.5718 H   0  0  0  0  0  0  0  0  0  0  0  0
   20.9191   18.6124   20.8275 C   0  0  0  0  0  0  0  0  0  0  0  0
   21.9258   18.6818   20.3922 H   0  0  0  0  0  0  0  0  0  0  0  0
   20.2190   18.6745   19.9833 H   0  0  0  0  0  0  0  0  0  0  0  0
   20.7687   17.2430   21.5289 C   0  0  0  0  0  0  0  0  0  0  0  0
   21.4600   17.1561   22.3772 H   0  0  0  0  0  0  0  0  0  0  0  0
   20.9918   16.4261   20.8304 H   0  0  0  0  0  0  0  0  0  0  0  0
   19.7482   17.0900   21.9017 H   0  0  0  0  0  0  0  0  0  0  0  0
  1  2  1  0  0  0  0
  1  3  1  0  0  0  0
  1  4  1  0  0  0  0
  1  5  1  0  0  0  0
  5  6  1  0  0  0  0
  5  7  1  0  0  0  0
  5  8  1  0  0  0  0
  8  9  1  0  0  0  0
  8 10  1  0  0  0  0
  8 11  1  0  0  0  0
 11 12  1  0  0  0  0
 11 13  1  0  0  0  0
 11 14  1  0  0  0  0
 14 15  1  0  0  0  0
 14 16  1  0  0  0  0
 14 17  1  0  0  0  0
M  END
> <VConfSearch Rank>
281

> <Conf_Id>
1

> <Delta U+W>
0.685

> <U+W>
-15.179

> <U>
45.697

> <W>
-60.876

> <W(PB)>
-62.586

> <W(SA)>
1.710

> <Valence>
1.263

> <Coulomb>
44.179

> <VdW>
0.255

> <VdW6>
-3.552

> <VdW12>
3.807

> <Bond>
0.125

> <Angle>
0.616

> <Pdih>
0.521

> <Idih>
0.000

> <Tether>
0.000

$$$$
VeraChem MOL file


 17 16  0  0  0  0  0  0  0  0999 V2000     
   19.0721   20.7001   22.2530 N   0  3  0  0  0  0  0  0  0  0  0  0
   18.0748   20.5633   22.4428 H   0  0  0  0  0  0  0  0  0  0  0  0
   19.1773   20.7928   21.2387 H   0  0  0  0  0  0  0  0  0  0  0  0
   19.3325   21.6021   22.6645 H   0  0  0  0  0  0  0  0  0  0  0  0
   19.9137   19.5650   22.8036 C   0  0  0  0  0  0  0  0  0  0  0  0
   19.7823   19.5492   23.8889 H   0  0  0  0  0  0  0  0  0  0  0  0
   20.9631   19.7877   22.5937 H   0  0  0  0  0  0  0  0  0  0  0  0
   19.5495   18.1822   22.2248 C   0  0  0  0  0  0  0  0  0  0  0  0
   20.1613   17.4198   22.7251 H   0  0  0  0  0  0  0  0  0  0  0  0
   18.5061   17.9498   22.4759 H   0  0  0  0  0  0  0  0  0  0  0  0
   19.7470   18.0687   20.6926 C   0  0  0  0  0  0  0  0  0  0  0  0
   19.0729   18.7628   20.1725 H   0  0  0  0  0  0  0  0  0  0  0  0
   19.4505   17.0603   20.3714 H   0  0  0  0  0  0  0  0  0  0  0  0
   21.2050   18.3284   20.2491 C   0  0  0  0  0  0  0  0  0  0  0  0
   21.3119   18.1735   19.1676 H   0  0  0  0  0  0  0  0  0  0  0  0
   21.8991   17.6450   20.7553 H   0  0  0  0  0  0  0  0  0  0  0  0
   21.5167   19.3574   20.4683 H   0  0  0  0  0  0  0  0  0  0  0  0
  1  2  1  0  0  0  0
  1  3  1  0  0  0  0
  1  4  1  0  0  0  0
  1  5  1  0  0  0  0
  5  6  1  0  0  0  0
  5  7  1  0  0  0  0
  5  8  1  0  0  0  0
  8  9  1  0  0  0  0
  8 10  1  0  0  0  0
  8 11  1  0  0  0  0
 11 12  1  0  0  0  0
 11 13  1  0  0  0  0
 11 14  1  0  0  0  0
 14 15  1  0  0  0  0
 14 16  1  0  0  0  0
 14 17  1  0  0  0  0
M  END
> <VConfSearch Rank>
282

> <Conf_Id>
43

> <Delta U+W>
0.642

> <U+W>
-15.222

> <U>
45.697

> <W>
-60.919

> <W(PB)>
-62.631

> <W(SA)>
1.712

> <Valence>
1.262

> <Coulomb>
44.179

> <VdW>
0.255

> <VdW6>
-3.552

> <VdW12>
3.807

> <Bond>
0.125

> <Angle>
0.616

> <Pdih>
0.521

> <Idih>
0.000

> <Tether>
0.000

$$$$
VeraChem MOL file


 17 16  0  0  0  0  0  0  0  0999 V2000     
   17.5530   19.4167   20.7746 N   0  3  0  0  0  0  0  0  0  0  0  0
   17.7823   19.9322   19.9193 H   0  0  0  0  0  0  0  0  0  0  0  0
   17.2720   20.1083   21.4763 H   0  0  0  0  0  0  0  0  0  0  0  0
   16.7233   18.8518   20.5665 H   0  0  0  0  0  0  0  0  0  0  0  0
   18.7112   18.5628   21.2508 C   0  0  0  0  0  0  0  0  0  0  0  0
   18.9354   17.8318   20.4692 H   0  0  0  0  0  0  0  0  0  0  0  0
   18.3867   18.0211   22.1434 H   0  0  0  0  0  0  0  0  0  0  0  0
   19.9755   19.3802   21.5727 C   0  0  0  0  0  0  0  0  0  0  0  0
   20.2895   19.9348   20.6784 H   0  0  0  0  0  0  0  0  0  0  0  0
   19.7427   20.1234   22.3470 H   0  0  0  0  0  0  0  0  0  0  0  0
   21.1297   18.4734   22.0534 C   0  0  0  0  0  0  0  0  0  0  0  0
   21.3610   17.7271   21.2802 H   0  0  0  0  0  0  0  0  0  0  0  0
   20.8149   17.9155   22.9467 H   0  0  0  0  0  0  0  0  0  0  0  0
   22.4015   19.2865   22.3783 C   0  0  0  0  0  0  0  0  0  0  0  0
   23.2088   18.6247   22.7176 H   0  0  0  0  0  0  0  0  0  0  0  0
   22.2102   20.0187   23.1736 H   0  0  0  0  0  0  0  0  0  0  0  0
   22.7606   19.8288   21.4939 H   0  0  0  0  0  0  0  0  0  0  0  0
  1  2  1  0  0  0  0
  1  3  1  0  0  0  0
  1  4  1  0  0  0  0
  1  5  1  0  0  0  0
  5  6  1  0  0  0  0
  5  7  1  0  0  0  0
  5  8  1  0  0  0  0
  8  9  1  0  0  0  0
  8 10  1  0  0  0  0
  8 11  1  0  0  0  0
 11 12  1  0  0  0  0
 11 13  1  0  0  0  0
 11 14  1  0  0  0  0
 14 15  1  0  0  0  0
 14 16  1  0  0  0  0
 14 17  1  0  0  0  0
M  END
> <VConfSearch Rank>
283

> <Conf_Id>
7

> <Delta U+W>
0.000

> <U+W>
-15.865

> <U>
44.664

> <W>
-60.529

> <W(PB)>
-62.309

> <W(SA)>
1.780

> <Valence>
0.872

> <Coulomb>
43.648

> <VdW>
0.144

> <VdW6>
-2.370

> <VdW12>
2.515

> <Bond>
0.080

> <Angle>
0.376

> <Pdih>
0.416

> <Idih>
0.000

> <Tether>
0.000

$$$$
VeraChem MOL file


 17 16  0  0  0  0  0  0  0  0999 V2000     
   19.1558   21.1407   20.5955 N   0  3  0  0  0  0  0  0  0  0  0  0
   18.2754   21.4184   21.0398 H   0  0  0  0  0  0  0  0  0  0  0  0
   18.9202   20.7558   19.6758 H   0  0  0  0  0  0  0  0  0  0  0  0
   19.6880   22.0010   20.4294 H   0  0  0  0  0  0  0  0  0  0  0  0
   19.9322   20.1522   21.4425 C   0  0  0  0  0  0  0  0  0  0  0  0
   20.1744   20.6377   22.3918 H   0  0  0  0  0  0  0  0  0  0  0  0
   20.8678   19.9276   20.9237 H   0  0  0  0  0  0  0  0  0  0  0  0
   19.1604   18.8461   21.7115 C   0  0  0  0  0  0  0  0  0  0  0  0
   18.2049   19.0862   22.1965 H   0  0  0  0  0  0  0  0  0  0  0  0
   18.9157   18.3594   20.7581 H   0  0  0  0  0  0  0  0  0  0  0  0
   19.9472   17.8625   22.6090 C   0  0  0  0  0  0  0  0  0  0  0  0
   19.3122   16.9923   22.8270 H   0  0  0  0  0  0  0  0  0  0  0  0
   20.1640   18.3365   23.5767 H   0  0  0  0  0  0  0  0  0  0  0  0
   21.2644   17.3759   21.9624 C   0  0  0  0  0  0  0  0  0  0  0  0
   21.0760   16.9029   20.9898 H   0  0  0  0  0  0  0  0  0  0  0  0
   21.7579   16.6352   22.6048 H   0  0  0  0  0  0  0  0  0  0  0  0
   21.9689   18.2034   21.8104 H   0  0  0  0  0  0  0  0  0  0  0  0
  1  2  1  0  0  0  0
  1  3  1  0  0  0  0
  1  4  1  0  0  0  0
  1  5  1  0  0  0  0
  5  6  1  0  0  0  0
  5  7  1  0  0  0  0
  5  8  1  0  0  0  0
  8  9  1  0  0  0  0
  8 10  1  0  0  0  0
  8 11  1  0  0  0  0
 11 12  1  0  0  0  0
 11 13  1  0  0  0  0
 11 14  1  0  0  0  0
 14 15  1  0  0  0  0
 14 16  1  0  0  0  0
 14 17  1  0  0  0  0
M  END
> <VConfSearch Rank>
284

> <Conf_Id>
36

> <Delta U+W>
0.275

> <U+W>
-15.590

> <U>
45.174

> <W>
-60.765

> <W(PB)>
-62.518

> <W(SA)>
1.754

> <Valence>
1.161

> <Coulomb>
43.789

> <VdW>
0.224

> <VdW6>
-2.897

> <VdW12>
3.121

> <Bond>
0.100

> <Angle>
0.500

> <Pdih>
0.561

> <Idih>
0.000

> <Tether>
0.000

$$$$
VeraChem MOL file


 17 16  0  0  0  0  0  0  0  0999 V2000     
   20.5993   17.2563   21.7488 N   0  3  0  0  0  0  0  0  0  0  0  0
   21.3047   17.9473   22.0167 H   0  0  0  0  0  0  0  0  0  0  0  0
   20.8196   16.9553   20.7946 H   0  0  0  0  0  0  0  0  0  0  0  0
   20.7295   16.4402   22.3554 H   0  0  0  0  0  0  0  0  0  0  0  0
   19.1944   17.8179   21.8523 C   0  0  0  0  0  0  0  0  0  0  0  0
   18.9916   18.0574   22.8996 H   0  0  0  0  0  0  0  0  0  0  0  0
   18.5087   17.0220   21.5490 H   0  0  0  0  0  0  0  0  0  0  0  0
   18.9417   19.0611   20.9737 C   0  0  0  0  0  0  0  0  0  0  0  0
   19.3734   18.9096   19.9755 H   0  0  0  0  0  0  0  0  0  0  0  0
   17.8577   19.1498   20.8227 H   0  0  0  0  0  0  0  0  0  0  0  0
   19.4483   20.3930   21.5837 C   0  0  0  0  0  0  0  0  0  0  0  0
   18.9610   20.5642   22.5539 H   0  0  0  0  0  0  0  0  0  0  0  0
   19.1254   21.2170   20.9320 H   0  0  0  0  0  0  0  0  0  0  0  0
   20.9821   20.4743   21.7563 C   0  0  0  0  0  0  0  0  0  0  0  0
   21.3329   19.8104   22.5550 H   0  0  0  0  0  0  0  0  0  0  0  0
   21.2806   21.4944   22.0310 H   0  0  0  0  0  0  0  0  0  0  0  0
   21.5024   20.2146   20.8251 H   0  0  0  0  0  0  0  0  0  0  0  0
  1  2  1  0  0  0  0
  1  3  1  0  0  0  0
  1  4  1  0  0  0  0
  1  5  1  0  0  0  0
  5  6  1  0  0  0  0
  5  7  1  0  0  0  0
  5  8  1  0  0  0  0
  8  9  1  0  0  0  0
  8 10  1  0  0  0  0
  8 11  1  0  0  0  0
 11 12  1  0  0  0  0
 11 13  1  0  0  0  0
 11 14  1  0  0  0  0
 14 15  1  0  0  0  0
 14 16  1  0  0  0  0
 14 17  1  0  0  0  0
M  END
> <VConfSearch Rank>
285

> <Conf_Id>
19

> <Delta U+W>
2.662

> <U+W>
-13.203

> <U>
47.423

> <W>
-60.626

> <W(PB)>
-62.328

> <W(SA)>
1.702

> <Valence>
2.414

> <Coulomb>
44.831

> <VdW>
0.178

> <VdW6>
-3.743

> <VdW12>
3.921

> <Bond>
0.138

> <Angle>
0.941

> <Pdih>
1.335

> <Idih>
0.000

> <Tether>
0.000

$$$$
VeraChem MOL file


 17 16  0  0  0  0  0  0  0  0999 V2000     
   19.6603   20.7035   22.4433 N   0  3  0  0  0  0  0  0  0  0  0  0
   18.9966   21.3905   22.8155 H   0  0  0  0  0  0  0  0  0  0  0  0
   20.5776   21.1590   22.4202 H   0  0  0  0  0  0  0  0  0  0  0  0
   19.7196   19.9417   23.1237 H   0  0  0  0  0  0  0  0  0  0  0  0
   19.2451   20.2028   21.0733 C   0  0  0  0  0  0  0  0  0  0  0  0
   19.2085   21.0731   20.4123 H   0  0  0  0  0  0  0  0  0  0  0  0
   18.2352   19.7903   21.1448 H   0  0  0  0  0  0  0  0  0  0  0  0
   20.1974   19.1507   20.4669 C   0  0  0  0  0  0  0  0  0  0  0  0
   20.0411   19.1444   19.3800 H   0  0  0  0  0  0  0  0  0  0  0  0
   21.2410   19.4565   20.6193 H   0  0  0  0  0  0  0  0  0  0  0  0
   19.9769   17.7077   20.9885 C   0  0  0  0  0  0  0  0  0  0  0  0
   20.6288   17.0305   20.4190 H   0  0  0  0  0  0  0  0  0  0  0  0
   18.9469   17.3903   20.7731 H   0  0  0  0  0  0  0  0  0  0  0  0
   20.2690   17.5210   22.4947 C   0  0  0  0  0  0  0  0  0  0  0  0
   21.2577   17.9169   22.7611 H   0  0  0  0  0  0  0  0  0  0  0  0
   20.2561   16.4547   22.7554 H   0  0  0  0  0  0  0  0  0  0  0  0
   19.5114   18.0132   23.1155 H   0  0  0  0  0  0  0  0  0  0  0  0
  1  2  1  0  0  0  0
  1  3  1  0  0  0  0
  1  4  1  0  0  0  0
  1  5  1  0  0  0  0
  5  6  1  0  0  0  0
  5  7  1  0  0  0  0
  5  8  1  0  0  0  0
  8  9  1  0  0  0  0
  8 10  1  0  0  0  0
  8 11  1  0  0  0  0
 11 12  1  0  0  0  0
 11 13  1  0  0  0  0
 11 14  1  0  0  0  0
 14 15  1  0  0  0  0
 14 16  1  0  0  0  0
 14 17  1  0  0  0  0
M  END
> <VConfSearch Rank>
286

> <Conf_Id>
44

> <Delta U+W>
2.712

> <U+W>
-13.153

> <U>
47.423

> <W>
-60.576

> <W(PB)>
-62.262

> <W(SA)>
1.687

> <Valence>
2.414

> <Coulomb>
44.831

> <VdW>
0.178

> <VdW6>
-3.743

> <VdW12>
3.922

> <Bond>
0.138

> <Angle>
0.941

> <Pdih>
1.335

> <Idih>
0.000

> <Tether>
0.000

$$$$
VeraChem MOL file


 17 16  0  0  0  0  0  0  0  0999 V2000     
   20.4655   20.8787   21.0876 N   0  3  0  0  0  0  0  0  0  0  0  0
   21.3221   20.3265   21.1859 H   0  0  0  0  0  0  0  0  0  0  0  0
   20.4245   21.5189   21.8862 H   0  0  0  0  0  0  0  0  0  0  0  0
   20.5766   21.4565   20.2483 H   0  0  0  0  0  0  0  0  0  0  0  0
   19.2347   19.9964   21.0061 C   0  0  0  0  0  0  0  0  0  0  0  0
   19.3292   19.3629   20.1204 H   0  0  0  0  0  0  0  0  0  0  0  0
   18.3673   20.6471   20.8650 H   0  0  0  0  0  0  0  0  0  0  0  0
   19.0154   19.1165   22.2541 C   0  0  0  0  0  0  0  0  0  0  0  0
   18.8810   19.7628   23.1316 H   0  0  0  0  0  0  0  0  0  0  0  0
   18.0736   18.5648   22.1338 H   0  0  0  0  0  0  0  0  0  0  0  0
   20.1628   18.1121   22.5264 C   0  0  0  0  0  0  0  0  0  0  0  0
   19.9267   17.5436   23.4368 H   0  0  0  0  0  0  0  0  0  0  0  0
   21.0950   18.6526   22.7399 H   0  0  0  0  0  0  0  0  0  0  0  0
   20.3902   17.1222   21.3610 C   0  0  0  0  0  0  0  0  0  0  0  0
   19.4713   16.5681   21.1289 H   0  0  0  0  0  0  0  0  0  0  0  0
   21.1651   16.3903   21.6232 H   0  0  0  0  0  0  0  0  0  0  0  0
   20.7178   17.6389   20.4501 H   0  0  0  0  0  0  0  0  0  0  0  0
  1  2  1  0  0  0  0
  1  3  1  0  0  0  0
  1  4  1  0  0  0  0
  1  5  1  0  0  0  0
  5  6  1  0  0  0  0
  5  7  1  0  0  0  0
  5  8  1  0  0  0  0
  8  9  1  0  0  0  0
  8 10  1  0  0  0  0
  8 11  1  0  0  0  0
 11 12  1  0  0  0  0
 11 13  1  0  0  0  0
 11 14  1  0  0  0  0
 14 15  1  0  0  0  0
 14 16  1  0  0  0  0
 14 17  1  0  0  0  0
M  END
> <VConfSearch Rank>
287

> <Conf_Id>
1

> <Delta U+W>
0.685

> <U+W>
-15.179

> <U>
45.697

> <W>
-60.876

> <W(PB)>
-62.586

> <W(SA)>
1.710

> <Valence>
1.263

> <Coulomb>
44.179

> <VdW>
0.255

> <VdW6>
-3.552

> <VdW12>
3.807

> <Bond>
0.125

> <Angle>
0.616

> <Pdih>
0.521

> <Idih>
0.000

> <Tether>
0.000

$$$$
VeraChem MOL file


 17 16  0  0  0  0  0  0  0  0999 V2000     
   21.1992   20.0663   20.4816 N   0  3  0  0  0  0  0  0  0  0  0  0
   22.0043   19.4973   20.2030 H   0  0  0  0  0  0  0  0  0  0  0  0
   21.3513   20.3506   21.4534 H   0  0  0  0  0  0  0  0  0  0  0  0
   21.2261   20.9186   19.9128 H   0  0  0  0  0  0  0  0  0  0  0  0
   19.8915   19.3170   20.3135 C   0  0  0  0  0  0  0  0  0  0  0  0
   19.7779   19.0794   19.2522 H   0  0  0  0  0  0  0  0  0  0  0  0
   19.0769   19.9878   20.5985 H   0  0  0  0  0  0  0  0  0  0  0  0
   19.8080   18.0169   21.1397 C   0  0  0  0  0  0  0  0  0  0  0  0
   18.8607   17.5128   20.9066 H   0  0  0  0  0  0  0  0  0  0  0  0
   20.6050   17.3335   20.8178 H   0  0  0  0  0  0  0  0  0  0  0  0
   19.9055   18.2356   22.6701 C   0  0  0  0  0  0  0  0  0  0  0  0
   20.8868   18.6555   22.9298 H   0  0  0  0  0  0  0  0  0  0  0  0
   19.8516   17.2589   23.1712 H   0  0  0  0  0  0  0  0  0  0  0  0
   18.7862   19.1467   23.2240 C   0  0  0  0  0  0  0  0  0  0  0  0
   18.8554   19.2205   24.3171 H   0  0  0  0  0  0  0  0  0  0  0  0
   17.7939   18.7468   22.9779 H   0  0  0  0  0  0  0  0  0  0  0  0
   18.8557   20.1639   22.8187 H   0  0  0  0  0  0  0  0  0  0  0  0
  1  2  1  0  0  0  0
  1  3  1  0  0  0  0
  1  4  1  0  0  0  0
  1  5  1  0  0  0  0
  5  6  1  0  0  0  0
  5  7  1  0  0  0  0
  5  8  1  0  0  0  0
  8  9  1  0  0  0  0
  8 10  1  0  0  0  0
  8 11  1  0  0  0  0
 11 12  1  0  0  0  0
 11 13  1  0  0  0  0
 11 14  1  0  0  0  0
 14 15  1  0  0  0  0
 14 16  1  0  0  0  0
 14 17  1  0  0  0  0
M  END
> <VConfSearch Rank>
288

> <Conf_Id>
43

> <Delta U+W>
0.642

> <U+W>
-15.222

> <U>
45.697

> <W>
-60.919

> <W(PB)>
-62.631

> <W(SA)>
1.712

> <Valence>
1.262

> <Coulomb>
44.179

> <VdW>
0.255

> <VdW6>
-3.552

> <VdW12>
3.807

> <Bond>
0.125

> <Angle>
0.616

> <Pdih>
0.521

> <Idih>
0.000

> <Tether>
0.000

$$$$
VeraChem MOL file


 17 16  0  0  0  0  0  0  0  0999 V2000     
   19.6420   20.6693   19.6270 N   0  3  0  0  0  0  0  0  0  0  0  0
   19.3526   21.4895   20.1685 H   0  0  0  0  0  0  0  0  0  0  0  0
   18.7910   20.2455   19.2450 H   0  0  0  0  0  0  0  0  0  0  0  0
   20.1835   21.0172   18.8290 H   0  0  0  0  0  0  0  0  0  0  0  0
   20.4386   19.6884   20.4640 C   0  0  0  0  0  0  0  0  0  0  0  0
   21.3425   20.1967   20.8107 H   0  0  0  0  0  0  0  0  0  0  0  0
   20.7387   18.8590   19.8177 H   0  0  0  0  0  0  0  0  0  0  0  0
   19.6545   19.1453   21.6724 C   0  0  0  0  0  0  0  0  0  0  0  0
   19.3416   19.9822   22.3109 H   0  0  0  0  0  0  0  0  0  0  0  0
   18.7400   18.6490   21.3214 H   0  0  0  0  0  0  0  0  0  0  0  0
   20.5012   18.1510   22.4972 C   0  0  0  0  0  0  0  0  0  0  0  0
   21.4184   18.6463   22.8461 H   0  0  0  0  0  0  0  0  0  0  0  0
   20.8174   17.3147   21.8577 H   0  0  0  0  0  0  0  0  0  0  0  0
   19.7211   17.6020   23.7112 C   0  0  0  0  0  0  0  0  0  0  0  0
   20.3394   16.8983   24.2835 H   0  0  0  0  0  0  0  0  0  0  0  0
   18.8152   17.0706   23.3917 H   0  0  0  0  0  0  0  0  0  0  0  0
   19.4208   18.4128   24.3878 H   0  0  0  0  0  0  0  0  0  0  0  0
  1  2  1  0  0  0  0
  1  3  1  0  0  0  0
  1  4  1  0  0  0  0
  1  5  1  0  0  0  0
  5  6  1  0  0  0  0
  5  7  1  0  0  0  0
  5  8  1  0  0  0  0
  8  9  1  0  0  0  0
  8 10  1  0  0  0  0
  8 11  1  0  0  0  0
 11 12  1  0  0  0  0
 11 13  1  0  0  0  0
 11 14  1  0  0  0  0
 14 15  1  0  0  0  0
 14 16  1  0  0  0  0
 14 17  1  0  0  0  0
M  END
> <VConfSearch Rank>
289

> <Conf_Id>
7

> <Delta U+W>
0.000

> <U+W>
-15.865

> <U>
44.664

> <W>
-60.529

> <W(PB)>
-62.309

> <W(SA)>
1.780

> <Valence>
0.872

> <Coulomb>
43.648

> <VdW>
0.144

> <VdW6>
-2.370

> <VdW12>
2.515

> <Bond>
0.080

> <Angle>
0.376

> <Pdih>
0.416

> <Idih>
0.000

> <Tether>
0.000

$$$$
VeraChem MOL file


 17 16  0  0  0  0  0  0  0  0999 V2000     
   19.4515   16.7560   21.2681 N   0  3  0  0  0  0  0  0  0  0  0  0
   18.6315   16.6760   20.6591 H   0  0  0  0  0  0  0  0  0  0  0  0
   19.1428   16.5316   22.2189 H   0  0  0  0  0  0  0  0  0  0  0  0
   20.1033   16.0169   20.9859 H   0  0  0  0  0  0  0  0  0  0  0  0
   20.0872   18.1296   21.1871 C   0  0  0  0  0  0  0  0  0  0  0  0
   20.4180   18.2886   20.1572 H   0  0  0  0  0  0  0  0  0  0  0  0
   20.9681   18.1306   21.8343 H   0  0  0  0  0  0  0  0  0  0  0  0
   19.1336   19.2651   21.6054 C   0  0  0  0  0  0  0  0  0  0  0  0
   18.2345   19.2303   20.9758 H   0  0  0  0  0  0  0  0  0  0  0  0
   18.8000   19.1045   22.6392 H   0  0  0  0  0  0  0  0  0  0  0  0
   19.7811   20.6641   21.4809 C   0  0  0  0  0  0  0  0  0  0  0  0
   19.0271   21.4286   21.7154 H   0  0  0  0  0  0  0  0  0  0  0  0
   20.0856   20.8399   20.4395 H   0  0  0  0  0  0  0  0  0  0  0  0
   20.9976   20.8523   22.4162 C   0  0  0  0  0  0  0  0  0  0  0  0
   20.7213   20.6761   23.4640 H   0  0  0  0  0  0  0  0  0  0  0  0
   21.3868   21.8759   22.3403 H   0  0  0  0  0  0  0  0  0  0  0  0
   21.8152   20.1677   22.1575 H   0  0  0  0  0  0  0  0  0  0  0  0
  1  2  1  0  0  0  0
  1  3  1  0  0  0  0
  1  4  1  0  0  0  0
  1  5  1  0  0  0  0
  5  6  1  0  0  0  0
  5  7  1  0  0  0  0
  5  8  1  0  0  0  0
  8  9  1  0  0  0  0
  8 10  1  0  0  0  0
  8 11  1  0  0  0  0
 11 12  1  0  0  0  0
 11 13  1  0  0  0  0
 11 14  1  0  0  0  0
 14 15  1  0  0  0  0
 14 16  1  0  0  0  0
 14 17  1  0  0  0  0
M  END
> <VConfSearch Rank>
290

> <Conf_Id>
36

> <Delta U+W>
0.275

> <U+W>
-15.590

> <U>
45.174

> <W>
-60.765

> <W(PB)>
-62.518

> <W(SA)>
1.754

> <Valence>
1.161

> <Coulomb>
43.789

> <VdW>
0.224

> <VdW6>
-2.897

> <VdW12>
3.121

> <Bond>
0.100

> <Angle>
0.500

> <Pdih>
0.561

> <Idih>
0.000

> <Tether>
0.000

$$$$
VeraChem MOL file


 17 16  0  0  0  0  0  0  0  0999 V2000     
   18.7749   19.9241   22.7077 N   0  3  0  0  0  0  0  0  0  0  0  0
   18.7881   20.3183   21.7636 H   0  0  0  0  0  0  0  0  0  0  0  0
   19.3630   20.5248   23.2932 H   0  0  0  0  0  0  0  0  0  0  0  0
   17.8161   20.0132   23.0594 H   0  0  0  0  0  0  0  0  0  0  0  0
   19.2497   18.4838   22.7224 C   0  0  0  0  0  0  0  0  0  0  0  0
   18.5487   17.8803   22.1395 H   0  0  0  0  0  0  0  0  0  0  0  0
   19.2065   18.1434   23.7605 H   0  0  0  0  0  0  0  0  0  0  0  0
   20.6829   18.2828   22.1866 C   0  0  0  0  0  0  0  0  0  0  0  0
   21.3473   19.0579   22.5911 H   0  0  0  0  0  0  0  0  0  0  0  0
   21.0574   17.3291   22.5816 H   0  0  0  0  0  0  0  0  0  0  0  0
   20.7904   18.2335   20.6411 C   0  0  0  0  0  0  0  0  0  0  0  0
   20.1700   17.4132   20.2534 H   0  0  0  0  0  0  0  0  0  0  0  0
   21.8267   17.9829   20.3741 H   0  0  0  0  0  0  0  0  0  0  0  0
   20.4041   19.5511   19.9313 C   0  0  0  0  0  0  0  0  0  0  0  0
   19.3260   19.7399   19.9922 H   0  0  0  0  0  0  0  0  0  0  0  0
   20.6624   19.4990   18.8656 H   0  0  0  0  0  0  0  0  0  0  0  0
   20.9391   20.4075   20.3620 H   0  0  0  0  0  0  0  0  0  0  0  0
  1  2  1  0  0  0  0
  1  3  1  0  0  0  0
  1  4  1  0  0  0  0
  1  5  1  0  0  0  0
  5  6  1  0  0  0  0
  5  7  1  0  0  0  0
  5  8  1  0  0  0  0
  8  9  1  0  0  0  0
  8 10  1  0  0  0  0
  8 11  1  0  0  0  0
 11 12  1  0  0  0  0
 11 13  1  0  0  0  0
 11 14  1  0  0  0  0
 14 15  1  0  0  0  0
 14 16  1  0  0  0  0
 14 17  1  0  0  0  0
M  END
> <VConfSearch Rank>
291

> <Conf_Id>
19

> <Delta U+W>
2.662

> <U+W>
-13.203

> <U>
47.423

> <W>
-60.626

> <W(PB)>
-62.328

> <W(SA)>
1.702

> <Valence>
2.414

> <Coulomb>
44.831

> <VdW>
0.178

> <VdW6>
-3.743

> <VdW12>
3.921

> <Bond>
0.138

> <Angle>
0.941

> <Pdih>
1.335

> <Idih>
0.000

> <Tether>
0.000

$$$$
VeraChem MOL file


 17 16  0  0  0  0  0  0  0  0999 V2000     
   21.1283   20.3445   22.1026 N   0  3  0  0  0  0  0  0  0  0  0  0
   21.5644   21.2451   21.8799 H   0  0  0  0  0  0  0  0  0  0  0  0
   21.6914   19.9170   22.8439 H   0  0  0  0  0  0  0  0  0  0  0  0
   20.2078   20.5453   22.5017 H   0  0  0  0  0  0  0  0  0  0  0  0
   21.0290   19.4489   20.8827 C   0  0  0  0  0  0  0  0  0  0  0  0
   22.0484   19.2840   20.5232 H   0  0  0  0  0  0  0  0  0  0  0  0
   20.4781   19.9821   20.1033 H   0  0  0  0  0  0  0  0  0  0  0  0
   20.3634   18.0827   21.1512 C   0  0  0  0  0  0  0  0  0  0  0  0
   20.6760   17.3954   20.3539 H   0  0  0  0  0  0  0  0  0  0  0  0
   20.7486   17.6545   22.0861 H   0  0  0  0  0  0  0  0  0  0  0  0
   18.8138   18.1156   21.1716 C   0  0  0  0  0  0  0  0  0  0  0  0
   18.4470   17.0837   21.2634 H   0  0  0  0  0  0  0  0  0  0  0  0
   18.4393   18.4864   20.2071 H   0  0  0  0  0  0  0  0  0  0  0  0
   18.2075   18.9573   22.3174 C   0  0  0  0  0  0  0  0  0  0  0  0
   18.6340   18.6744   23.2886 H   0  0  0  0  0  0  0  0  0  0  0  0
   17.1224   18.8002   22.3719 H   0  0  0  0  0  0  0  0  0  0  0  0
   18.3697   20.0297   22.1582 H   0  0  0  0  0  0  0  0  0  0  0  0
  1  2  1  0  0  0  0
  1  3  1  0  0  0  0
  1  4  1  0  0  0  0
  1  5  1  0  0  0  0
  5  6  1  0  0  0  0
  5  7  1  0  0  0  0
  5  8  1  0  0  0  0
  8  9  1  0  0  0  0
  8 10  1  0  0  0  0
  8 11  1  0  0  0  0
 11 12  1  0  0  0  0
 11 13  1  0  0  0  0
 11 14  1  0  0  0  0
 14 15  1  0  0  0  0
 14 16  1  0  0  0  0
 14 17  1  0  0  0  0
M  END
> <VConfSearch Rank>
292

> <Conf_Id>
44

> <Delta U+W>
2.712

> <U+W>
-13.153

> <U>
47.423

> <W>
-60.576

> <W(PB)>
-62.262

> <W(SA)>
1.687

> <Valence>
2.414

> <Coulomb>
44.831

> <VdW>
0.178

> <VdW6>
-3.743

> <VdW12>
3.922

> <Bond>
0.138

> <Angle>
0.941

> <Pdih>
1.335

> <Idih>
0.000

> <Tether>
0.000

$$$$
VeraChem MOL file


 17 16  0  0  0  0  0  0  0  0999 V2000     
   20.9588   18.1823   20.1395 N   0  3  0  0  0  0  0  0  0  0  0  0
   20.2347   17.5165   20.4238 H   0  0  0  0  0  0  0  0  0  0  0  0
   21.8544   17.8190   20.4790 H   0  0  0  0  0  0  0  0  0  0  0  0
   20.9983   18.1621   19.1154 H   0  0  0  0  0  0  0  0  0  0  0  0
   20.6778   19.5766   20.6656 C   0  0  0  0  0  0  0  0  0  0  0  0
   19.7274   19.9135   20.2436 H   0  0  0  0  0  0  0  0  0  0  0  0
   21.4656   20.2376   20.2943 H   0  0  0  0  0  0  0  0  0  0  0  0
   20.6228   19.6619   22.2050 C   0  0  0  0  0  0  0  0  0  0  0  0
   21.5948   19.3605   22.6176 H   0  0  0  0  0  0  0  0  0  0  0  0
   20.4807   20.7118   22.4937 H   0  0  0  0  0  0  0  0  0  0  0  0
   19.5041   18.8020   22.8441 C   0  0  0  0  0  0  0  0  0  0  0  0
   19.5518   18.9144   23.9364 H   0  0  0  0  0  0  0  0  0  0  0  0
   19.6834   17.7375   22.6410 H   0  0  0  0  0  0  0  0  0  0  0  0
   18.0888   19.1932   22.3605 C   0  0  0  0  0  0  0  0  0  0  0  0
   17.8850   20.2544   22.5538 H   0  0  0  0  0  0  0  0  0  0  0  0
   17.3259   18.6047   22.8865 H   0  0  0  0  0  0  0  0  0  0  0  0
   17.9645   19.0108   21.2857 H   0  0  0  0  0  0  0  0  0  0  0  0
  1  2  1  0  0  0  0
  1  3  1  0  0  0  0
  1  4  1  0  0  0  0
  1  5  1  0  0  0  0
  5  6  1  0  0  0  0
  5  7  1  0  0  0  0
  5  8  1  0  0  0  0
  8  9  1  0  0  0  0
  8 10  1  0  0  0  0
  8 11  1  0  0  0  0
 11 12  1  0  0  0  0
 11 13  1  0  0  0  0
 11 14  1  0  0  0  0
 14 15  1  0  0  0  0
 14 16  1  0  0  0  0
 14 17  1  0  0  0  0
M  END
> <VConfSearch Rank>
293

> <Conf_Id>
1

> <Delta U+W>
0.685

> <U+W>
-15.179

> <U>
45.697

> <W>
-60.876

> <W(PB)>
-62.586

> <W(SA)>
1.710

> <Valence>
1.263

> <Coulomb>
44.179

> <VdW>
0.255

> <VdW6>
-3.552

> <VdW12>
3.807

> <Bond>
0.125

> <Angle>
0.616

> <Pdih>
0.521

> <Idih>
0.000

> <Tether>
0.000

$$$$
VeraChem MOL file


 17 16  0  0  0  0  0  0  0  0999 V2000     
   19.1367   17.2072   21.6232 N   0  3  0  0  0  0  0  0  0  0  0  0
   18.4719   17.0953   22.3945 H   0  0  0  0  0  0  0  0  0  0  0  0
   20.0772   17.1333   22.0211 H   0  0  0  0  0  0  0  0  0  0  0  0
   19.0103   16.4015   21.0022 H   0  0  0  0  0  0  0  0  0  0  0  0
   18.9380   18.5203   20.8910 C   0  0  0  0  0  0  0  0  0  0  0  0
   17.9319   18.5139   20.4629 H   0  0  0  0  0  0  0  0  0  0  0  0
   19.6553   18.5615   20.0672 H   0  0  0  0  0  0  0  0  0  0  0  0
   19.1035   19.7646   21.7878 C   0  0  0  0  0  0  0  0  0  0  0  0
   18.8796   20.6593   21.1919 H   0  0  0  0  0  0  0  0  0  0  0  0
   18.3522   19.7345   22.5881 H   0  0  0  0  0  0  0  0  0  0  0  0
   20.5139   19.9082   22.4119 C   0  0  0  0  0  0  0  0  0  0  0  0
   20.7168   19.0641   23.0849 H   0  0  0  0  0  0  0  0  0  0  0  0
   20.5321   20.8089   23.0415 H   0  0  0  0  0  0  0  0  0  0  0  0
   21.6364   20.0122   21.3541 C   0  0  0  0  0  0  0  0  0  0  0  0
   22.6075   20.1781   21.8382 H   0  0  0  0  0  0  0  0  0  0  0  0
   21.4565   20.8509   20.6690 H   0  0  0  0  0  0  0  0  0  0  0  0
   21.7163   19.0943   20.7583 H   0  0  0  0  0  0  0  0  0  0  0  0
  1  2  1  0  0  0  0
  1  3  1  0  0  0  0
  1  4  1  0  0  0  0
  1  5  1  0  0  0  0
  5  6  1  0  0  0  0
  5  7  1  0  0  0  0
  5  8  1  0  0  0  0
  8  9  1  0  0  0  0
  8 10  1  0  0  0  0
  8 11  1  0  0  0  0
 11 12  1  0  0  0  0
 11 13  1  0  0  0  0
 11 14  1  0  0  0  0
 14 15  1  0  0  0  0
 14 16  1  0  0  0  0
 14 17  1  0  0  0  0
M  END
> <VConfSearch Rank>
294

> <Conf_Id>
43

> <Delta U+W>
0.642

> <U+W>
-15.222

> <U>
45.697

> <W>
-60.919

> <W(PB)>
-62.631

> <W(SA)>
1.712

> <Valence>
1.262

> <Coulomb>
44.179

> <VdW>
0.255

> <VdW6>
-3.552

> <VdW12>
3.807

> <Bond>
0.125

> <Angle>
0.616

> <Pdih>
0.521

> <Idih>
0.000

> <Tether>
0.000

$$$$
VeraChem MOL file


 17 16  0  0  0  0  0  0  0  0999 V2000     
   17.5978   19.1684   22.6091 N   0  3  0  0  0  0  0  0  0  0  0  0
   17.8194   18.7387   23.5124 H   0  0  0  0  0  0  0  0  0  0  0  0
   17.1717   18.4412   22.0266 H   0  0  0  0  0  0  0  0  0  0  0  0
   16.8715   19.8702   22.7852 H   0  0  0  0  0  0  0  0  0  0  0  0
   18.8218   19.7764   21.9538 C   0  0  0  0  0  0  0  0  0  0  0  0
   19.2033   20.5608   22.6131 H   0  0  0  0  0  0  0  0  0  0  0  0
   18.5068   20.2409   21.0154 H   0  0  0  0  0  0  0  0  0  0  0  0
   19.9339   18.7490   21.6747 C   0  0  0  0  0  0  0  0  0  0  0  0
   20.2369   18.2735   22.6171 H   0  0  0  0  0  0  0  0  0  0  0  0
   19.5429   17.9548   21.0248 H   0  0  0  0  0  0  0  0  0  0  0  0
   21.1609   19.4088   21.0078 C   0  0  0  0  0  0  0  0  0  0  0  0
   21.5508   20.2060   21.6564 H   0  0  0  0  0  0  0  0  0  0  0  0
   20.8576   19.8877   20.0660 H   0  0  0  0  0  0  0  0  0  0  0  0
   22.2807   18.3841   20.7248 C   0  0  0  0  0  0  0  0  0  0  0  0
   23.1425   18.8723   20.2515 H   0  0  0  0  0  0  0  0  0  0  0  0
   21.9306   17.5920   20.0501 H   0  0  0  0  0  0  0  0  0  0  0  0
   22.6292   17.9129   21.6531 H   0  0  0  0  0  0  0  0  0  0  0  0
  1  2  1  0  0  0  0
  1  3  1  0  0  0  0
  1  4  1  0  0  0  0
  1  5  1  0  0  0  0
  5  6  1  0  0  0  0
  5  7  1  0  0  0  0
  5  8  1  0  0  0  0
  8  9  1  0  0  0  0
  8 10  1  0  0  0  0
  8 11  1  0  0  0  0
 11 12  1  0  0  0  0
 11 13  1  0  0  0  0
 11 14  1  0  0  0  0
 14 15  1  0  0  0  0
 14 16  1  0  0  0  0
 14 17  1  0  0  0  0
M  END
> <VConfSearch Rank>
295

> <Conf_Id>
7

> <Delta U+W>
0.000

> <U+W>
-15.865

> <U>
44.664

> <W>
-60.529

> <W(PB)>
-62.309

> <W(SA)>
1.780

> <Valence>
0.872

> <Coulomb>
43.648

> <VdW>
0.144

> <VdW6>
-2.370

> <VdW12>
2.515

> <Bond>
0.080

> <Angle>
0.376

> <Pdih>
0.416

> <Idih>
0.000

> <Tether>
0.000

$$$$
VeraChem MOL file


 17 16  0  0  0  0  0  0  0  0999 V2000     
   18.9500   17.6632   23.2986 N   0  3  0  0  0  0  0  0  0  0  0  0
   19.5680   16.8592   23.4449 H   0  0  0  0  0  0  0  0  0  0  0  0
   18.1502   17.3319   22.7506 H   0  0  0  0  0  0  0  0  0  0  0  0
   18.5880   17.9300   24.2198 H   0  0  0  0  0  0  0  0  0  0  0  0
   19.6660   18.8136   22.6194 C   0  0  0  0  0  0  0  0  0  0  0  0
   20.4841   19.1339   23.2702 H   0  0  0  0  0  0  0  0  0  0  0  0
   18.9582   19.6412   22.5257 H   0  0  0  0  0  0  0  0  0  0  0  0
   20.2230   18.4463   21.2306 C   0  0  0  0  0  0  0  0  0  0  0  0
   20.9017   17.5888   21.3304 H   0  0  0  0  0  0  0  0  0  0  0  0
   19.4016   18.1230   20.5775 H   0  0  0  0  0  0  0  0  0  0  0  0
   20.9849   19.6162   20.5651 C   0  0  0  0  0  0  0  0  0  0  0  0
   21.4227   19.2653   19.6200 H   0  0  0  0  0  0  0  0  0  0  0  0
   21.8279   19.9191   21.2021 H   0  0  0  0  0  0  0  0  0  0  0  0
   20.0839   20.8396   20.2799 C   0  0  0  0  0  0  0  0  0  0  0  0
   19.2292   20.5623   19.6492 H   0  0  0  0  0  0  0  0  0  0  0  0
   20.6492   21.6196   19.7535 H   0  0  0  0  0  0  0  0  0  0  0  0
   19.6969   21.2806   21.2072 H   0  0  0  0  0  0  0  0  0  0  0  0
  1  2  1  0  0  0  0
  1  3  1  0  0  0  0
  1  4  1  0  0  0  0
  1  5  1  0  0  0  0
  5  6  1  0  0  0  0
  5  7  1  0  0  0  0
  5  8  1  0  0  0  0
  8  9  1  0  0  0  0
  8 10  1  0  0  0  0
  8 11  1  0  0  0  0
 11 12  1  0  0  0  0
 11 13  1  0  0  0  0
 11 14  1  0  0  0  0
 14 15  1  0  0  0  0
 14 16  1  0  0  0  0
 14 17  1  0  0  0  0
M  END
> <VConfSearch Rank>
296

> <Conf_Id>
36

> <Delta U+W>
0.275

> <U+W>
-15.590

> <U>
45.174

> <W>
-60.765

> <W(PB)>
-62.518

> <W(SA)>
1.754

> <Valence>
1.161

> <Coulomb>
43.789

> <VdW>
0.224

> <VdW6>
-2.897

> <VdW12>
3.121

> <Bond>
0.100

> <Angle>
0.500

> <Pdih>
0.561

> <Idih>
0.000

> <Tether>
0.000

$$$$
VeraChem MOL file


 17 16  0  0  0  0  0  0  0  0999 V2000     
   21.7418   18.6166   21.8571 N   0  3  0  0  0  0  0  0  0  0  0  0
   21.5760   19.6237   21.7864 H   0  0  0  0  0  0  0  0  0  0  0  0
   22.0983   18.3054   20.9485 H   0  0  0  0  0  0  0  0  0  0  0  0
   22.4984   18.4814   22.5354 H   0  0  0  0  0  0  0  0  0  0  0  0
   20.4856   17.8666   22.2563 C   0  0  0  0  0  0  0  0  0  0  0  0
   20.1911   18.1894   23.2585 H   0  0  0  0  0  0  0  0  0  0  0  0
   20.7484   16.8064   22.3065 H   0  0  0  0  0  0  0  0  0  0  0  0
   19.3029   18.0458   21.2813 C   0  0  0  0  0  0  0  0  0  0  0  0
   19.6551   17.9638   20.2445 H   0  0  0  0  0  0  0  0  0  0  0  0
   18.6137   17.2043   21.4326 H   0  0  0  0  0  0  0  0  0  0  0  0
   18.5021   19.3585   21.4765 C   0  0  0  0  0  0  0  0  0  0  0  0
   18.1017   19.3986   22.4993 H   0  0  0  0  0  0  0  0  0  0  0  0
   17.6290   19.3338   20.8094 H   0  0  0  0  0  0  0  0  0  0  0  0
   19.3061   20.6465   21.1873 C   0  0  0  0  0  0  0  0  0  0  0  0
   20.0654   20.8282   21.9568 H   0  0  0  0  0  0  0  0  0  0  0  0
   18.6388   21.5182   21.1810 H   0  0  0  0  0  0  0  0  0  0  0  0
   19.7987   20.5973   20.2075 H   0  0  0  0  0  0  0  0  0  0  0  0
  1  2  1  0  0  0  0
  1  3  1  0  0  0  0
  1  4  1  0  0  0  0
  1  5  1  0  0  0  0
  5  6  1  0  0  0  0
  5  7  1  0  0  0  0
  5  8  1  0  0  0  0
  8  9  1  0  0  0  0
  8 10  1  0  0  0  0
  8 11  1  0  0  0  0
 11 12  1  0  0  0  0
 11 13  1  0  0  0  0
 11 14  1  0  0  0  0
 14 15  1  0  0  0  0
 14 16  1  0  0  0  0
 14 17  1  0  0  0  0
M  END
> <VConfSearch Rank>
297

> <Conf_Id>
19

> <Delta U+W>
2.662

> <U+W>
-13.203

> <U>
47.423

> <W>
-60.626

> <W(PB)>
-62.328

> <W(SA)>
1.702

> <Valence>
2.414

> <Coulomb>
44.831

> <VdW>
0.178

> <VdW6>
-3.743

> <VdW12>
3.921

> <Bond>
0.138

> <Angle>
0.941

> <Pdih>
1.335

> <Idih>
0.000

> <Tether>
0.000

$$$$
VeraChem MOL file


 17 16  0  0  0  0  0  0  0  0999 V2000     
   20.7940   17.6959   20.7312 N   0  3  0  0  0  0  0  0  0  0  0  0
   20.7229   16.8031   20.2325 H   0  0  0  0  0  0  0  0  0  0  0  0
   21.7863   17.8412   20.9401 H   0  0  0  0  0  0  0  0  0  0  0  0
   20.5136   18.4306   20.0766 H   0  0  0  0  0  0  0  0  0  0  0  0
   19.9457   17.7090   21.9882 C   0  0  0  0  0  0  0  0  0  0  0  0
   20.3102   16.9011   22.6285 H   0  0  0  0  0  0  0  0  0  0  0  0
   18.9122   17.4819   21.7131 H   0  0  0  0  0  0  0  0  0  0  0  0
   19.9973   19.0359   22.7746 C   0  0  0  0  0  0  0  0  0  0  0  0
   19.6885   18.8254   23.8072 H   0  0  0  0  0  0  0  0  0  0  0  0
   21.0330   19.3953   22.8373 H   0  0  0  0  0  0  0  0  0  0  0  0
   19.0730   20.1490   22.2184 C   0  0  0  0  0  0  0  0  0  0  0  0
   19.1077   21.0042   22.9080 H   0  0  0  0  0  0  0  0  0  0  0  0
   18.0310   19.7994   22.2202 H   0  0  0  0  0  0  0  0  0  0  0  0
   19.4481   20.6429   20.8027 C   0  0  0  0  0  0  0  0  0  0  0  0
   20.5109   20.9111   20.7426 H   0  0  0  0  0  0  0  0  0  0  0  0
   18.8643   21.5360   20.5441 H   0  0  0  0  0  0  0  0  0  0  0  0
   19.2305   19.8848   20.0413 H   0  0  0  0  0  0  0  0  0  0  0  0
  1  2  1  0  0  0  0
  1  3  1  0  0  0  0
  1  4  1  0  0  0  0
  1  5  1  0  0  0  0
  5  6  1  0  0  0  0
  5  7  1  0  0  0  0
  5  8  1  0  0  0  0
  8  9  1  0  0  0  0
  8 10  1  0  0  0  0
  8 11  1  0  0  0  0
 11 12  1  0  0  0  0
 11 13  1  0  0  0  0
 11 14  1  0  0  0  0
 14 15  1  0  0  0  0
 14 16  1  0  0  0  0
 14 17  1  0  0  0  0
M  END
> <VConfSearch Rank>
298

> <Conf_Id>
44

> <Delta U+W>
2.712

> <U+W>
-13.153

> <U>
47.423

> <W>
-60.576

> <W(PB)>
-62.262

> <W(SA)>
1.687

> <Valence>
2.414

> <Coulomb>
44.831

> <VdW>
0.178

> <VdW6>
-3.743

> <VdW12>
3.922

> <Bond>
0.138

> <Angle>
0.941

> <Pdih>
1.335

> <Idih>
0.000

> <Tether>
0.000

$$$$
VeraChem MOL file


 17 16  0  0  0  0  0  0  0  0999 V2000     
   18.5034   17.8864   20.8151 N   0  3  0  0  0  0  0  0  0  0  0  0
   18.1630   18.8512   20.7741 H   0  0  0  0  0  0  0  0  0  0  0  0
   17.9645   17.4057   21.5416 H   0  0  0  0  0  0  0  0  0  0  0  0
   18.2598   17.4449   19.9226 H   0  0  0  0  0  0  0  0  0  0  0  0
   19.9946   17.8278   21.0848 C   0  0  0  0  0  0  0  0  0  0  0  0
   20.5086   18.3304   20.2613 H   0  0  0  0  0  0  0  0  0  0  0  0
   20.2932   16.7760   21.0775 H   0  0  0  0  0  0  0  0  0  0  0  0
   20.4106   18.4675   22.4255 C   0  0  0  0  0  0  0  0  0  0  0  0
   19.9213   17.9300   23.2485 H   0  0  0  0  0  0  0  0  0  0  0  0
   21.4901   18.3216   22.5643 H   0  0  0  0  0  0  0  0  0  0  0  0
   20.0832   19.9778   22.5314 C   0  0  0  0  0  0  0  0  0  0  0  0
   20.4002   20.3402   23.5194 H   0  0  0  0  0  0  0  0  0  0  0  0
   18.9966   20.1327   22.4862 H   0  0  0  0  0  0  0  0  0  0  0  0
   20.7756   20.8255   21.4397 C   0  0  0  0  0  0  0  0  0  0  0  0
   21.8645   20.6884   21.4652 H   0  0  0  0  0  0  0  0  0  0  0  0
   20.5691   21.8928   21.5922 H   0  0  0  0  0  0  0  0  0  0  0  0
   20.4204   20.5599   20.4361 H   0  0  0  0  0  0  0  0  0  0  0  0
  1  2  1  0  0  0  0
  1  3  1  0  0  0  0
  1  4  1  0  0  0  0
  1  5  1  0  0  0  0
  5  6  1  0  0  0  0
  5  7  1  0  0  0  0
  5  8  1  0  0  0  0
  8  9  1  0  0  0  0
  8 10  1  0  0  0  0
  8 11  1  0  0  0  0
 11 12  1  0  0  0  0
 11 13  1  0  0  0  0
 11 14  1  0  0  0  0
 14 15  1  0  0  0  0
 14 16  1  0  0  0  0
 14 17  1  0  0  0  0
M  END
> <VConfSearch Rank>
299

> <Conf_Id>
1

> <Delta U+W>
0.685

> <U+W>
-15.179

> <U>
45.697

> <W>
-60.876

> <W(PB)>
-62.586

> <W(SA)>
1.710

> <Valence>
1.263

> <Coulomb>
44.179

> <VdW>
0.255

> <VdW6>
-3.552

> <VdW12>
3.807

> <Bond>
0.125

> <Angle>
0.616

> <Pdih>
0.521

> <Idih>
0.000

> <Tether>
0.000

$$$$
VeraChem MOL file


 17 16  0  0  0  0  0  0  0  0999 V2000     
   18.7477   20.1381   20.4461 N   0  3  0  0  0  0  0  0  0  0  0  0
   17.8990   19.6310   20.1780 H   0  0  0  0  0  0  0  0  0  0  0  0
   19.5077   19.7905   19.8543 H   0  0  0  0  0  0  0  0  0  0  0  0
   18.5989   21.1208   20.1955 H   0  0  0  0  0  0  0  0  0  0  0  0
   19.0633   19.9735   21.9202 C   0  0  0  0  0  0  0  0  0  0  0  0
   18.2308   20.3973   22.4883 H   0  0  0  0  0  0  0  0  0  0  0  0
   19.9580   20.5604   22.1435 H   0  0  0  0  0  0  0  0  0  0  0  0
   19.2816   18.5081   22.3505 C   0  0  0  0  0  0  0  0  0  0  0  0
   19.4390   18.4808   23.4369 H   0  0  0  0  0  0  0  0  0  0  0  0
   18.3639   17.9361   22.1601 H   0  0  0  0  0  0  0  0  0  0  0  0
   20.4746   17.8156   21.6456 C   0  0  0  0  0  0  0  0  0  0  0  0
   20.2897   17.7527   20.5647 H   0  0  0  0  0  0  0  0  0  0  0  0
   20.5425   16.7783   22.0024 H   0  0  0  0  0  0  0  0  0  0  0  0
   21.8242   18.5244   21.9026 C   0  0  0  0  0  0  0  0  0  0  0  0
   22.6473   17.9645   21.4402 H   0  0  0  0  0  0  0  0  0  0  0  0
   22.0324   18.5987   22.9779 H   0  0  0  0  0  0  0  0  0  0  0  0
   21.8352   19.5373   21.4809 H   0  0  0  0  0  0  0  0  0  0  0  0
  1  2  1  0  0  0  0
  1  3  1  0  0  0  0
  1  4  1  0  0  0  0
  1  5  1  0  0  0  0
  5  6  1  0  0  0  0
  5  7  1  0  0  0  0
  5  8  1  0  0  0  0
  8  9  1  0  0  0  0
  8 10  1  0  0  0  0
  8 11  1  0  0  0  0
 11 12  1  0  0  0  0
 11 13  1  0  0  0  0
 11 14  1  0  0  0  0
 14 15  1  0  0  0  0
 14 16  1  0  0  0  0
 14 17  1  0  0  0  0
M  END
> <VConfSearch Rank>
300

> <Conf_Id>
43

> <Delta U+W>
0.642

> <U+W>
-15.222

> <U>
45.697

> <W>
-60.919

> <W(PB)>
-62.631

> <W(SA)>
1.712

> <Valence>
1.262

> <Coulomb>
44.179

> <VdW>
0.255

> <VdW6>
-3.552

> <VdW12>
3.807

> <Bond>
0.125

> <Angle>
0.616

> <Pdih>
0.521

> <Idih>
0.000

> <Tether>
0.000

$$$$
VeraChem MOL file


 17 16  0  0  0  0  0  0  0  0999 V2000     
   20.2193   17.1112   19.9541 N   0  3  0  0  0  0  0  0  0  0  0  0
   20.5060   17.6634   19.1402 H   0  0  0  0  0  0  0  0  0  0  0  0
   19.2235   16.9000   19.8386 H   0  0  0  0  0  0  0  0  0  0  0  0
   20.7200   16.2184   19.8976 H   0  0  0  0  0  0  0  0  0  0  0  0
   20.4994   17.8329   21.2572 C   0  0  0  0  0  0  0  0  0  0  0  0
   21.5781   17.9971   21.3271 H   0  0  0  0  0  0  0  0  0  0  0  0
   20.1990   17.1761   22.0782 H   0  0  0  0  0  0  0  0  0  0  0  0
   19.7623   19.1794   21.3756 C   0  0  0  0  0  0  0  0  0  0  0  0
   20.0547   19.8305   20.5410 H   0  0  0  0  0  0  0  0  0  0  0  0
   18.6803   19.0123   21.2897 H   0  0  0  0  0  0  0  0  0  0  0  0
   20.0748   19.8808   22.7158 C   0  0  0  0  0  0  0  0  0  0  0  0
   21.1581   20.0453   22.8038 H   0  0  0  0  0  0  0  0  0  0  0  0
   19.7853   19.2282   23.5516 H   0  0  0  0  0  0  0  0  0  0  0  0
   19.3389   21.2323   22.8416 C   0  0  0  0  0  0  0  0  0  0  0  0
   19.5739   21.7141   23.7995 H   0  0  0  0  0  0  0  0  0  0  0  0
   18.2507   21.0961   22.7918 H   0  0  0  0  0  0  0  0  0  0  0  0
   19.6342   21.9196   22.0381 H   0  0  0  0  0  0  0  0  0  0  0  0
  1  2  1  0  0  0  0
  1  3  1  0  0  0  0
  1  4  1  0  0  0  0
  1  5  1  0  0  0  0
  5  6  1  0  0  0  0
  5  7  1  0  0  0  0
  5  8  1  0  0  0  0
  8  9  1  0  0  0  0
  8 10  1  0  0  0  0
  8 11  1  0  0  0  0
 11 12  1  0  0  0  0
 11 13  1  0  0  0  0
 11 14  1  0  0  0  0
 14 15  1  0  0  0  0
 14 16  1  0  0  0  0
 14 17  1  0  0  0  0
M  END
> <VConfSearch Rank>
301

> <Conf_Id>
7

> <Delta U+W>
0.000

> <U+W>
-15.865

> <U>
44.664

> <W>
-60.529

> <W(PB)>
-62.309

> <W(SA)>
1.780

> <Valence>
0.872

> <Coulomb>
43.648

> <VdW>
0.144

> <VdW6>
-2.370

> <VdW12>
2.515

> <Bond>
0.080

> <Angle>
0.376

> <Pdih>
0.416

> <Idih>
0.000

> <Tether>
0.000

$$$$
VeraChem MOL file


 17 16  0  0  0  0  0  0  0  0999 V2000     
   21.5238   19.2051   19.8117 N   0  3  0  0  0  0  0  0  0  0  0  0
   22.3608   19.6955   20.1412 H   0  0  0  0  0  0  0  0  0  0  0  0
   21.0101   19.8571   19.2112 H   0  0  0  0  0  0  0  0  0  0  0  0
   21.8462   18.4398   19.2107 H   0  0  0  0  0  0  0  0  0  0  0  0
   20.6728   18.7000   20.9598 C   0  0  0  0  0  0  0  0  0  0  0  0
   21.2713   17.9905   21.5374 H   0  0  0  0  0  0  0  0  0  0  0  0
   19.8202   18.1637   20.5352 H   0  0  0  0  0  0  0  0  0  0  0  0
   20.1706   19.8260   21.8839 C   0  0  0  0  0  0  0  0  0  0  0  0
   21.0329   20.3834   22.2732 H   0  0  0  0  0  0  0  0  0  0  0  0
   19.5709   20.5396   21.3033 H   0  0  0  0  0  0  0  0  0  0  0  0
   19.3366   19.2943   23.0729 C   0  0  0  0  0  0  0  0  0  0  0  0
   19.0793   20.1349   23.7326 H   0  0  0  0  0  0  0  0  0  0  0  0
   19.9463   18.6053   23.6742 H   0  0  0  0  0  0  0  0  0  0  0  0
   18.0363   18.5851   22.6297 C   0  0  0  0  0  0  0  0  0  0  0  0
   17.4107   19.2510   22.0212 H   0  0  0  0  0  0  0  0  0  0  0  0
   17.4475   18.2793   23.5042 H   0  0  0  0  0  0  0  0  0  0  0  0
   18.2490   17.6830   22.0423 H   0  0  0  0  0  0  0  0  0  0  0  0
  1  2  1  0  0  0  0
  1  3  1  0  0  0  0
  1  4  1  0  0  0  0
  1  5  1  0  0  0  0
  5  6  1  0  0  0  0
  5  7  1  0  0  0  0
  5  8  1  0  0  0  0
  8  9  1  0  0  0  0
  8 10  1  0  0  0  0
  8 11  1  0  0  0  0
 11 12  1  0  0  0  0
 11 13  1  0  0  0  0
 11 14  1  0  0  0  0
 14 15  1  0  0  0  0
 14 16  1  0  0  0  0
 14 17  1  0  0  0  0
M  END
> <VConfSearch Rank>
302

> <Conf_Id>
36

> <Delta U+W>
0.275

> <U+W>
-15.590

> <U>
45.174

> <W>
-60.765

> <W(PB)>
-62.518

> <W(SA)>
1.754

> <Valence>
1.161

> <Coulomb>
43.789

> <VdW>
0.224

> <VdW6>
-2.897

> <VdW12>
3.121

> <Bond>
0.100

> <Angle>
0.500

> <Pdih>
0.561

> <Idih>
0.000

> <Tether>
0.000

$$$$
VeraChem MOL file


 17 16  0  0  0  0  0  0  0  0999 V2000     
   21.1132   20.4107   21.3804 N   0  3  0  0  0  0  0  0  0  0  0  0
   21.3897   19.6086   20.8085 H   0  0  0  0  0  0  0  0  0  0  0  0
   21.7156   20.4118   22.2091 H   0  0  0  0  0  0  0  0  0  0  0  0
   21.3407   21.2557   20.8465 H   0  0  0  0  0  0  0  0  0  0  0  0
   19.6439   20.3566   21.7519 C   0  0  0  0  0  0  0  0  0  0  0  0
   19.0505   20.4269   20.8363 H   0  0  0  0  0  0  0  0  0  0  0  0
   19.4346   21.2417   22.3589 H   0  0  0  0  0  0  0  0  0  0  0  0
   19.2356   19.0962   22.5434 C   0  0  0  0  0  0  0  0  0  0  0  0
   19.9810   18.8831   23.3209 H   0  0  0  0  0  0  0  0  0  0  0  0
   18.3019   19.3227   23.0752 H   0  0  0  0  0  0  0  0  0  0  0  0
   18.9934   17.8390   21.6696 C   0  0  0  0  0  0  0  0  0  0  0  0
   18.2007   18.0454   20.9367 H   0  0  0  0  0  0  0  0  0  0  0  0
   18.6085   17.0375   22.3158 H   0  0  0  0  0  0  0  0  0  0  0  0
   20.2504   17.3188   20.9361 C   0  0  0  0  0  0  0  0  0  0  0  0
   20.5542   17.9955   20.1290 H   0  0  0  0  0  0  0  0  0  0  0  0
   20.0467   16.3421   20.4780 H   0  0  0  0  0  0  0  0  0  0  0  0
   21.0925   17.1923   21.6289 H   0  0  0  0  0  0  0  0  0  0  0  0
  1  2  1  0  0  0  0
  1  3  1  0  0  0  0
  1  4  1  0  0  0  0
  1  5  1  0  0  0  0
  5  6  1  0  0  0  0
  5  7  1  0  0  0  0
  5  8  1  0  0  0  0
  8  9  1  0  0  0  0
  8 10  1  0  0  0  0
  8 11  1  0  0  0  0
 11 12  1  0  0  0  0
 11 13  1  0  0  0  0
 11 14  1  0  0  0  0
 14 15  1  0  0  0  0
 14 16  1  0  0  0  0
 14 17  1  0  0  0  0
M  END
> <VConfSearch Rank>
303

> <Conf_Id>
19

> <Delta U+W>
2.662

> <U+W>
-13.203

> <U>
47.423

> <W>
-60.626

> <W(PB)>
-62.328

> <W(SA)>
1.702

> <Valence>
2.414

> <Coulomb>
44.831

> <VdW>
0.178

> <VdW6>
-3.743

> <VdW12>
3.921

> <Bond>
0.138

> <Angle>
0.941

> <Pdih>
1.335

> <Idih>
0.000

> <Tether>
0.000

$$$$
VeraChem MOL file


 17 16  0  0  0  0  0  0  0  0999 V2000     
   19.2495   20.4420   22.6734 N   0  3  0  0  0  0  0  0  0  0  0  0
   18.9783   20.7341   23.6178 H   0  0  0  0  0  0  0  0  0  0  0  0
   18.9342   21.1769   22.0331 H   0  0  0  0  0  0  0  0  0  0  0  0
   20.2721   20.4337   22.6418 H   0  0  0  0  0  0  0  0  0  0  0  0
   18.6649   19.0902   22.3114 C   0  0  0  0  0  0  0  0  0  0  0  0
   17.5772   19.1868   22.3674 H   0  0  0  0  0  0  0  0  0  0  0  0
   18.9786   18.3623   23.0644 H   0  0  0  0  0  0  0  0  0  0  0  0
   19.0532   18.5872   20.9050 C   0  0  0  0  0  0  0  0  0  0  0  0
   18.3103   17.8381   20.6004 H   0  0  0  0  0  0  0  0  0  0  0  0
   18.9714   19.4056   20.1776 H   0  0  0  0  0  0  0  0  0  0  0  0
   20.4545   17.9298   20.8217 C   0  0  0  0  0  0  0  0  0  0  0  0
   20.5835   17.5168   19.8114 H   0  0  0  0  0  0  0  0  0  0  0  0
   20.5022   17.0730   21.5085 H   0  0  0  0  0  0  0  0  0  0  0  0
   21.6294   18.8905   21.1144 C   0  0  0  0  0  0  0  0  0  0  0  0
   21.5578   19.8038   20.5095 H   0  0  0  0  0  0  0  0  0  0  0  0
   22.5853   18.4066   20.8748 H   0  0  0  0  0  0  0  0  0  0  0  0
   21.6668   19.1694   22.1739 H   0  0  0  0  0  0  0  0  0  0  0  0
  1  2  1  0  0  0  0
  1  3  1  0  0  0  0
  1  4  1  0  0  0  0
  1  5  1  0  0  0  0
  5  6  1  0  0  0  0
  5  7  1  0  0  0  0
  5  8  1  0  0  0  0
  8  9  1  0  0  0  0
  8 10  1  0  0  0  0
  8 11  1  0  0  0  0
 11 12  1  0  0  0  0
 11 13  1  0  0  0  0
 11 14  1  0  0  0  0
 14 15  1  0  0  0  0
 14 16  1  0  0  0  0
 14 17  1  0  0  0  0
M  END
> <VConfSearch Rank>
304

> <Conf_Id>
44

> <Delta U+W>
2.712

> <U+W>
-13.153

> <U>
47.423

> <W>
-60.576

> <W(PB)>
-62.262

> <W(SA)>
1.687

> <Valence>
2.414

> <Coulomb>
44.831

> <VdW>
0.178

> <VdW6>
-3.743

> <VdW12>
3.922

> <Bond>
0.138

> <Angle>
0.941

> <Pdih>
1.335

> <Idih>
0.000

> <Tether>
0.000

$$$$
VeraChem MOL file


 17 16  0  0  0  0  0  0  0  0999 V2000     
   21.2526   18.3958   20.2750 N   0  3  0  0  0  0  0  0  0  0  0  0
   20.4764   17.7280   20.2689 H   0  0  0  0  0  0  0  0  0  0  0  0
   22.0449   17.9351   20.7327 H   0  0  0  0  0  0  0  0  0  0  0  0
   21.5219   18.5504   19.2982 H   0  0  0  0  0  0  0  0  0  0  0  0
   20.8741   19.6908   20.9676 C   0  0  0  0  0  0  0  0  0  0  0  0
   20.0469   20.1426   20.4140 H   0  0  0  0  0  0  0  0  0  0  0  0
   21.7320   20.3657   20.9035 H   0  0  0  0  0  0  0  0  0  0  0  0
   20.4742   19.5122   22.4468 C   0  0  0  0  0  0  0  0  0  0  0  0
   21.3250   19.0959   23.0024 H   0  0  0  0  0  0  0  0  0  0  0  0
   20.2811   20.5023   22.8804 H   0  0  0  0  0  0  0  0  0  0  0  0
   19.2316   18.6120   22.6592 C   0  0  0  0  0  0  0  0  0  0  0  0
   19.0328   18.5319   23.7371 H   0  0  0  0  0  0  0  0  0  0  0  0
   19.4414   17.5908   22.3131 H   0  0  0  0  0  0  0  0  0  0  0  0
   17.9659   19.1509   21.9539 C   0  0  0  0  0  0  0  0  0  0  0  0
   17.7343   20.1718   22.2846 H   0  0  0  0  0  0  0  0  0  0  0  0
   17.0981   18.5195   22.1848 H   0  0  0  0  0  0  0  0  0  0  0  0
   18.0854   19.1631   20.8633 H   0  0  0  0  0  0  0  0  0  0  0  0
  1  2  1  0  0  0  0
  1  3  1  0  0  0  0
  1  4  1  0  0  0  0
  1  5  1  0  0  0  0
  5  6  1  0  0  0  0
  5  7  1  0  0  0  0
  5  8  1  0  0  0  0
  8  9  1  0  0  0  0
  8 10  1  0  0  0  0
  8 11  1  0  0  0  0
 11 12  1  0  0  0  0
 11 13  1  0  0  0  0
 11 14  1  0  0  0  0
 14 15  1  0  0  0  0
 14 16  1  0  0  0  0
 14 17  1  0  0  0  0
M  END
> <VConfSearch Rank>
305

> <Conf_Id>
1

> <Delta U+W>
0.685

> <U+W>
-15.179

> <U>
45.697

> <W>
-60.876

> <W(PB)>
-62.586

> <W(SA)>
1.710

> <Valence>
1.263

> <Coulomb>
44.179

> <VdW>
0.255

> <VdW6>
-3.552

> <VdW12>
3.807

> <Bond>
0.125

> <Angle>
0.616

> <Pdih>
0.521

> <Idih>
0.000

> <Tether>
0.000

$$$$
VeraChem MOL file


 17 16  0  0  0  0  0  0  0  0999 V2000     
   19.5979   17.8889   23.1918 N   0  3  0  0  0  0  0  0  0  0  0  0
   18.6256   17.9545   23.5077 H   0  0  0  0  0  0  0  0  0  0  0  0
   20.0799   18.7310   23.5189 H   0  0  0  0  0  0  0  0  0  0  0  0
   20.0177   17.0937   23.6838 H   0  0  0  0  0  0  0  0  0  0  0  0
   19.6945   17.7353   21.6862 C   0  0  0  0  0  0  0  0  0  0  0  0
   19.1940   16.8021   21.4139 H   0  0  0  0  0  0  0  0  0  0  0  0
   20.7509   17.6417   21.4215 H   0  0  0  0  0  0  0  0  0  0  0  0
   19.0625   18.9021   20.8994 C   0  0  0  0  0  0  0  0  0  0  0  0
   19.1212   18.6750   19.8266 H   0  0  0  0  0  0  0  0  0  0  0  0
   17.9930   18.9622   21.1409 H   0  0  0  0  0  0  0  0  0  0  0  0
   19.7276   20.2754   21.1663 C   0  0  0  0  0  0  0  0  0  0  0  0
   19.5966   20.5601   22.2191 H   0  0  0  0  0  0  0  0  0  0  0  0
   19.2047   21.0422   20.5776 H   0  0  0  0  0  0  0  0  0  0  0  0
   21.2300   20.3013   20.8031 C   0  0  0  0  0  0  0  0  0  0  0  0
   21.6433   21.3082   20.9458 H   0  0  0  0  0  0  0  0  0  0  0  0
   21.3871   20.0208   19.7534 H   0  0  0  0  0  0  0  0  0  0  0  0
   21.8095   19.6136   21.4317 H   0  0  0  0  0  0  0  0  0  0  0  0
  1  2  1  0  0  0  0
  1  3  1  0  0  0  0
  1  4  1  0  0  0  0
  1  5  1  0  0  0  0
  5  6  1  0  0  0  0
  5  7  1  0  0  0  0
  5  8  1  0  0  0  0
  8  9  1  0  0  0  0
  8 10  1  0  0  0  0
  8 11  1  0  0  0  0
 11 12  1  0  0  0  0
 11 13  1  0  0  0  0
 11 14  1  0  0  0  0
 14 15  1  0  0  0  0
 14 16  1  0  0  0  0
 14 17  1  0  0  0  0
M  END
> <VConfSearch Rank>
306

> <Conf_Id>
43

> <Delta U+W>
0.642

> <U+W>
-15.222

> <U>
45.697

> <W>
-60.919

> <W(PB)>
-62.631

> <W(SA)>
1.712

> <Valence>
1.262

> <Coulomb>
44.179

> <VdW>
0.255

> <VdW6>
-3.552

> <VdW12>
3.807

> <Bond>
0.125

> <Angle>
0.616

> <Pdih>
0.521

> <Idih>
0.000

> <Tether>
0.000

$$$$
VeraChem MOL file


 17 16  0  0  0  0  0  0  0  0999 V2000     
   19.1910   16.8457   20.5563 N   0  3  0  0  0  0  0  0  0  0  0  0
   19.1318   17.1705   19.5864 H   0  0  0  0  0  0  0  0  0  0  0  0
   18.2377   16.8441   20.9317 H   0  0  0  0  0  0  0  0  0  0  0  0
   19.4979   15.8681   20.5230 H   0  0  0  0  0  0  0  0  0  0  0  0
   20.1267   17.7022   21.3860 C   0  0  0  0  0  0  0  0  0  0  0  0
   21.1260   17.6323   20.9478 H   0  0  0  0  0  0  0  0  0  0  0  0
   20.1647   17.2813   22.3944 H   0  0  0  0  0  0  0  0  0  0  0  0
   19.6950   19.1783   21.4573 C   0  0  0  0  0  0  0  0  0  0  0  0
   19.6430   19.5932   20.4419 H   0  0  0  0  0  0  0  0  0  0  0  0
   18.6851   19.2434   21.8836 H   0  0  0  0  0  0  0  0  0  0  0  0
   20.6739   20.0145   22.3106 C   0  0  0  0  0  0  0  0  0  0  0  0
   21.6857   19.9471   21.8863 H   0  0  0  0  0  0  0  0  0  0  0  0
   20.7288   19.5978   23.3263 H   0  0  0  0  0  0  0  0  0  0  0  0
   20.2473   21.4965   22.3867 C   0  0  0  0  0  0  0  0  0  0  0  0
   20.9549   22.0730   22.9967 H   0  0  0  0  0  0  0  0  0  0  0  0
   19.2523   21.5988   22.8391 H   0  0  0  0  0  0  0  0  0  0  0  0
   20.2166   21.9509   21.3878 H   0  0  0  0  0  0  0  0  0  0  0  0
  1  2  1  0  0  0  0
  1  3  1  0  0  0  0
  1  4  1  0  0  0  0
  1  5  1  0  0  0  0
  5  6  1  0  0  0  0
  5  7  1  0  0  0  0
  5  8  1  0  0  0  0
  8  9  1  0  0  0  0
  8 10  1  0  0  0  0
  8 11  1  0  0  0  0
 11 12  1  0  0  0  0
 11 13  1  0  0  0  0
 11 14  1  0  0  0  0
 14 15  1  0  0  0  0
 14 16  1  0  0  0  0
 14 17  1  0  0  0  0
M  END
> <VConfSearch Rank>
307

> <Conf_Id>
7

> <Delta U+W>
0.000

> <U+W>
-15.865

> <U>
44.664

> <W>
-60.529

> <W(PB)>
-62.309

> <W(SA)>
1.780

> <Valence>
0.872

> <Coulomb>
43.648

> <VdW>
0.144

> <VdW6>
-2.370

> <VdW12>
2.515

> <Bond>
0.080

> <Angle>
0.376

> <Pdih>
0.416

> <Idih>
0.000

> <Tether>
0.000

$$$$
VeraChem MOL file


 17 16  0  0  0  0  0  0  0  0999 V2000     
   20.3623   17.7665   23.5880 N   0  3  0  0  0  0  0  0  0  0  0  0
   19.4788   17.3612   23.9117 H   0  0  0  0  0  0  0  0  0  0  0  0
   20.5932   18.5334   24.2269 H   0  0  0  0  0  0  0  0  0  0  0  0
   21.0821   17.0478   23.7151 H   0  0  0  0  0  0  0  0  0  0  0  0
   20.2792   18.2327   22.1481 C   0  0  0  0  0  0  0  0  0  0  0  0
   20.0609   17.3625   21.5232 H   0  0  0  0  0  0  0  0  0  0  0  0
   21.2605   18.6215   21.8639 H   0  0  0  0  0  0  0  0  0  0  0  0
   19.2059   19.3147   21.9217 C   0  0  0  0  0  0  0  0  0  0  0  0
   18.2311   18.9282   22.2475 H   0  0  0  0  0  0  0  0  0  0  0  0
   19.4243   20.1880   22.5506 H   0  0  0  0  0  0  0  0  0  0  0  0
   19.1042   19.7535   20.4421 C   0  0  0  0  0  0  0  0  0  0  0  0
   18.2712   20.4627   20.3366 H   0  0  0  0  0  0  0  0  0  0  0  0
   18.8528   18.8864   19.8151 H   0  0  0  0  0  0  0  0  0  0  0  0
   20.3992   20.4153   19.9177 C   0  0  0  0  0  0  0  0  0  0  0  0
   20.6763   21.2823   20.5315 H   0  0  0  0  0  0  0  0  0  0  0  0
   20.2622   20.7654   18.8864 H   0  0  0  0  0  0  0  0  0  0  0  0
   21.2410   19.7114   19.9188 H   0  0  0  0  0  0  0  0  0  0  0  0
  1  2  1  0  0  0  0
  1  3  1  0  0  0  0
  1  4  1  0  0  0  0
  1  5  1  0  0  0  0
  5  6  1  0  0  0  0
  5  7  1  0  0  0  0
  5  8  1  0  0  0  0
  8  9  1  0  0  0  0
  8 10  1  0  0  0  0
  8 11  1  0  0  0  0
 11 12  1  0  0  0  0
 11 13  1  0  0  0  0
 11 14  1  0  0  0  0
 14 15  1  0  0  0  0
 14 16  1  0  0  0  0
 14 17  1  0  0  0  0
M  END
> <VConfSearch Rank>
308

> <Conf_Id>
36

> <Delta U+W>
0.275

> <U+W>
-15.590

> <U>
45.174

> <W>
-60.765

> <W(PB)>
-62.518

> <W(SA)>
1.754

> <Valence>
1.161

> <Coulomb>
43.789

> <VdW>
0.224

> <VdW6>
-2.897

> <VdW12>
3.121

> <Bond>
0.100

> <Angle>
0.500

> <Pdih>
0.561

> <Idih>
0.000

> <Tether>
0.000

$$$$
VeraChem MOL file


 17 16  0  0  0  0  0  0  0  0999 V2000     
   20.9605   18.0821   20.3402 N   0  3  0  0  0  0  0  0  0  0  0  0
   20.0807   17.5936   20.5252 H   0  0  0  0  0  0  0  0  0  0  0  0
   21.6922   17.5945   20.8659 H   0  0  0  0  0  0  0  0  0  0  0  0
   21.1739   17.9545   19.3457 H   0  0  0  0  0  0  0  0  0  0  0  0
   20.8790   19.5491   20.7160 C   0  0  0  0  0  0  0  0  0  0  0  0
   20.1329   20.0309   20.0785 H   0  0  0  0  0  0  0  0  0  0  0  0
   21.8529   19.9917   20.4900 H   0  0  0  0  0  0  0  0  0  0  0  0
   20.5422   19.8060   22.2000 C   0  0  0  0  0  0  0  0  0  0  0  0
   21.1276   19.1326   22.8401 H   0  0  0  0  0  0  0  0  0  0  0  0
   20.8756   20.8225   22.4479 H   0  0  0  0  0  0  0  0  0  0  0  0
   19.0345   19.7018   22.5443 C   0  0  0  0  0  0  0  0  0  0  0  0
   18.4670   20.4252   21.9421 H   0  0  0  0  0  0  0  0  0  0  0  0
   18.8970   20.0044   23.5919 H   0  0  0  0  0  0  0  0  0  0  0  0
   18.4322   18.2907   22.3566 C   0  0  0  0  0  0  0  0  0  0  0  0
   18.3539   18.0245   21.2962 H   0  0  0  0  0  0  0  0  0  0  0  0
   17.4178   18.2514   22.7744 H   0  0  0  0  0  0  0  0  0  0  0  0
   19.0334   17.5292   22.8702 H   0  0  0  0  0  0  0  0  0  0  0  0
  1  2  1  0  0  0  0
  1  3  1  0  0  0  0
  1  4  1  0  0  0  0
  1  5  1  0  0  0  0
  5  6  1  0  0  0  0
  5  7  1  0  0  0  0
  5  8  1  0  0  0  0
  8  9  1  0  0  0  0
  8 10  1  0  0  0  0
  8 11  1  0  0  0  0
 11 12  1  0  0  0  0
 11 13  1  0  0  0  0
 11 14  1  0  0  0  0
 14 15  1  0  0  0  0
 14 16  1  0  0  0  0
 14 17  1  0  0  0  0
M  END
> <VConfSearch Rank>
309

> <Conf_Id>
19

> <Delta U+W>
2.662

> <U+W>
-13.203

> <U>
47.423

> <W>
-60.626

> <W(PB)>
-62.328

> <W(SA)>
1.702

> <Valence>
2.414

> <Coulomb>
44.831

> <VdW>
0.178

> <VdW6>
-3.743

> <VdW12>
3.921

> <Bond>
0.138

> <Angle>
0.941

> <Pdih>
1.335

> <Idih>
0.000

> <Tether>
0.000

$$$$
VeraChem MOL file


 17 16  0  0  0  0  0  0  0  0999 V2000     
   19.1244   17.3687   21.7326 N   0  3  0  0  0  0  0  0  0  0  0  0
   18.3994   16.7282   21.3936 H   0  0  0  0  0  0  0  0  0  0  0  0
   19.5270   16.9436   22.5732 H   0  0  0  0  0  0  0  0  0  0  0  0
   19.8622   17.3917   21.0242 H   0  0  0  0  0  0  0  0  0  0  0  0
   18.5693   18.7523   22.0114 C   0  0  0  0  0  0  0  0  0  0  0  0
   17.7945   18.6382   22.7745 H   0  0  0  0  0  0  0  0  0  0  0  0
   18.0939   19.1266   21.1008 H   0  0  0  0  0  0  0  0  0  0  0  0
   19.6188   19.7686   22.5085 C   0  0  0  0  0  0  0  0  0  0  0  0
   19.0843   20.5749   23.0281 H   0  0  0  0  0  0  0  0  0  0  0  0
   20.2661   19.3017   23.2626 H   0  0  0  0  0  0  0  0  0  0  0  0
   20.4744   20.4099   21.3863 C   0  0  0  0  0  0  0  0  0  0  0  0
   21.1083   21.1871   21.8358 H   0  0  0  0  0  0  0  0  0  0  0  0
   19.8189   20.9281   20.6722 H   0  0  0  0  0  0  0  0  0  0  0  0
   21.3801   19.4151   20.6256 C   0  0  0  0  0  0  0  0  0  0  0  0
   21.9812   18.8127   21.3191 H   0  0  0  0  0  0  0  0  0  0  0  0
   22.0731   19.9570   19.9688 H   0  0  0  0  0  0  0  0  0  0  0  0
   20.7934   18.7424   19.9892 H   0  0  0  0  0  0  0  0  0  0  0  0
  1  2  1  0  0  0  0
  1  3  1  0  0  0  0
  1  4  1  0  0  0  0
  1  5  1  0  0  0  0
  5  6  1  0  0  0  0
  5  7  1  0  0  0  0
  5  8  1  0  0  0  0
  8  9  1  0  0  0  0
  8 10  1  0  0  0  0
  8 11  1  0  0  0  0
 11 12  1  0  0  0  0
 11 13  1  0  0  0  0
 11 14  1  0  0  0  0
 14 15  1  0  0  0  0
 14 16  1  0  0  0  0
 14 17  1  0  0  0  0
M  END
> <VConfSearch Rank>
310

> <Conf_Id>
44

> <Delta U+W>
2.712

> <U+W>
-13.153

> <U>
47.423

> <W>
-60.576

> <W(PB)>
-62.262

> <W(SA)>
1.687

> <Valence>
2.414

> <Coulomb>
44.831

> <VdW>
0.178

> <VdW6>
-3.743

> <VdW12>
3.922

> <Bond>
0.138

> <Angle>
0.941

> <Pdih>
1.335

> <Idih>
0.000

> <Tether>
0.000

$$$$
VeraChem MOL file


 17 16  0  0  0  0  0  0  0  0999 V2000     
   21.6204   18.1632   22.1317 N   0  3  0  0  0  0  0  0  0  0  0  0
   21.1053   18.3685   22.9925 H   0  0  0  0  0  0  0  0  0  0  0  0
   22.4089   18.8156   22.0876 H   0  0  0  0  0  0  0  0  0  0  0  0
   22.0168   17.2238   22.2371 H   0  0  0  0  0  0  0  0  0  0  0  0
   20.7317   18.2661   20.9071 C   0  0  0  0  0  0  0  0  0  0  0  0
   19.9325   17.5269   21.0045 H   0  0  0  0  0  0  0  0  0  0  0  0
   21.3345   17.9990   20.0349 H   0  0  0  0  0  0  0  0  0  0  0  0
   20.1216   19.6673   20.6964 C   0  0  0  0  0  0  0  0  0  0  0  0
   20.9315   20.3961   20.5591 H   0  0  0  0  0  0  0  0  0  0  0  0
   19.5507   19.6644   19.7585 H   0  0  0  0  0  0  0  0  0  0  0  0
   19.2009   20.1337   21.8516 C   0  0  0  0  0  0  0  0  0  0  0  0
   18.8271   21.1413   21.6213 H   0  0  0  0  0  0  0  0  0  0  0  0
   19.7796   20.2302   22.7802 H   0  0  0  0  0  0  0  0  0  0  0  0
   17.9969   19.1924   22.0839 C   0  0  0  0  0  0  0  0  0  0  0  0
   17.4012   19.0805   21.1687 H   0  0  0  0  0  0  0  0  0  0  0  0
   17.3385   19.5950   22.8645 H   0  0  0  0  0  0  0  0  0  0  0  0
   18.3204   18.1947   22.4061 H   0  0  0  0  0  0  0  0  0  0  0  0
  1  2  1  0  0  0  0
  1  3  1  0  0  0  0
  1  4  1  0  0  0  0
  1  5  1  0  0  0  0
  5  6  1  0  0  0  0
  5  7  1  0  0  0  0
  5  8  1  0  0  0  0
  8  9  1  0  0  0  0
  8 10  1  0  0  0  0
  8 11  1  0  0  0  0
 11 12  1  0  0  0  0
 11 13  1  0  0  0  0
 11 14  1  0  0  0  0
 14 15  1  0  0  0  0
 14 16  1  0  0  0  0
 14 17  1  0  0  0  0
M  END
> <VConfSearch Rank>
311

> <Conf_Id>
1

> <Delta U+W>
0.685

> <U+W>
-15.179

> <U>
45.697

> <W>
-60.876

> <W(PB)>
-62.586

> <W(SA)>
1.710

> <Valence>
1.263

> <Coulomb>
44.179

> <VdW>
0.255

> <VdW6>
-3.552

> <VdW12>
3.807

> <Bond>
0.125

> <Angle>
0.616

> <Pdih>
0.521

> <Idih>
0.000

> <Tether>
0.000

$$$$
VeraChem MOL file


 17 16  0  0  0  0  0  0  0  0999 V2000     
   20.0450   18.6096   19.6616 N   0  3  0  0  0  0  0  0  0  0  0  0
   20.3872   19.4112   19.1234 H   0  0  0  0  0  0  0  0  0  0  0  0
   19.0582   18.7849   19.8714 H   0  0  0  0  0  0  0  0  0  0  0  0
   20.0786   17.7965   19.0384 H   0  0  0  0  0  0  0  0  0  0  0  0
   20.8567   18.3872   20.9232 C   0  0  0  0  0  0  0  0  0  0  0  0
   21.8854   18.1700   20.6232 H   0  0  0  0  0  0  0  0  0  0  0  0
   20.4595   17.5046   21.4312 H   0  0  0  0  0  0  0  0  0  0  0  0
   20.8494   19.5905   21.8886 C   0  0  0  0  0  0  0  0  0  0  0  0
   21.5102   19.3649   22.7361 H   0  0  0  0  0  0  0  0  0  0  0  0
   21.2876   20.4610   21.3827 H   0  0  0  0  0  0  0  0  0  0  0  0
   19.4435   19.9606   22.4235 C   0  0  0  0  0  0  0  0  0  0  0  0
   18.7958   20.2779   21.5950 H   0  0  0  0  0  0  0  0  0  0  0  0
   19.5356   20.8318   23.0871 H   0  0  0  0  0  0  0  0  0  0  0  0
   18.7682   18.8070   23.2000 C   0  0  0  0  0  0  0  0  0  0  0  0
   17.8061   19.1339   23.6154 H   0  0  0  0  0  0  0  0  0  0  0  0
   19.3969   18.4725   24.0354 H   0  0  0  0  0  0  0  0  0  0  0  0
   18.5724   17.9438   22.5516 H   0  0  0  0  0  0  0  0  0  0  0  0
  1  2  1  0  0  0  0
  1  3  1  0  0  0  0
  1  4  1  0  0  0  0
  1  5  1  0  0  0  0
  5  6  1  0  0  0  0
  5  7  1  0  0  0  0
  5  8  1  0  0  0  0
  8  9  1  0  0  0  0
  8 10  1  0  0  0  0
  8 11  1  0  0  0  0
 11 12  1  0  0  0  0
 11 13  1  0  0  0  0
 11 14  1  0  0  0  0
 14 15  1  0  0  0  0
 14 16  1  0  0  0  0
 14 17  1  0  0  0  0
M  END
> <VConfSearch Rank>
312

> <Conf_Id>
43

> <Delta U+W>
0.642

> <U+W>
-15.222

> <U>
45.697

> <W>
-60.919

> <W(PB)>
-62.631

> <W(SA)>
1.712

> <Valence>
1.262

> <Coulomb>
44.179

> <VdW>
0.255

> <VdW6>
-3.552

> <VdW12>
3.807

> <Bond>
0.125

> <Angle>
0.616

> <Pdih>
0.521

> <Idih>
0.000

> <Tether>
0.000

$$$$
VeraChem MOL file


 17 16  0  0  0  0  0  0  0  0999 V2000     
   20.3644   19.0304   24.1363 N   0  3  0  0  0  0  0  0  0  0  0  0
   19.4777   19.4590   24.4186 H   0  0  0  0  0  0  0  0  0  0  0  0
   21.0767   19.7664   24.1649 H   0  0  0  0  0  0  0  0  0  0  0  0
   20.6104   18.3518   24.8642 H   0  0  0  0  0  0  0  0  0  0  0  0
   20.2721   18.3821   22.7694 C   0  0  0  0  0  0  0  0  0  0  0  0
   19.5193   17.5908   22.8212 H   0  0  0  0  0  0  0  0  0  0  0  0
   21.2387   17.9213   22.5483 H   0  0  0  0  0  0  0  0  0  0  0  0
   19.9040   19.3741   21.6510 C   0  0  0  0  0  0  0  0  0  0  0  0
   18.9403   19.8463   21.8841 H   0  0  0  0  0  0  0  0  0  0  0  0
   20.6538   20.1755   21.6121 H   0  0  0  0  0  0  0  0  0  0  0  0
   19.8204   18.6738   20.2770 C   0  0  0  0  0  0  0  0  0  0  0  0
   19.0723   17.8693   20.3162 H   0  0  0  0  0  0  0  0  0  0  0  0
   20.7838   18.1982   20.0445 H   0  0  0  0  0  0  0  0  0  0  0  0
   19.4515   19.6627   19.1501 C   0  0  0  0  0  0  0  0  0  0  0  0
   19.3972   19.1461   18.1830 H   0  0  0  0  0  0  0  0  0  0  0  0
   20.2005   20.4607   19.0634 H   0  0  0  0  0  0  0  0  0  0  0  0
   18.4755   20.1292   19.3373 H   0  0  0  0  0  0  0  0  0  0  0  0
  1  2  1  0  0  0  0
  1  3  1  0  0  0  0
  1  4  1  0  0  0  0
  1  5  1  0  0  0  0
  5  6  1  0  0  0  0
  5  7  1  0  0  0  0
  5  8  1  0  0  0  0
  8  9  1  0  0  0  0
  8 10  1  0  0  0  0
  8 11  1  0  0  0  0
 11 12  1  0  0  0  0
 11 13  1  0  0  0  0
 11 14  1  0  0  0  0
 14 15  1  0  0  0  0
 14 16  1  0  0  0  0
 14 17  1  0  0  0  0
M  END
> <VConfSearch Rank>
313

> <Conf_Id>
7

> <Delta U+W>
0.000

> <U+W>
-15.865

> <U>
44.664

> <W>
-60.529

> <W(PB)>
-62.309

> <W(SA)>
1.780

> <Valence>
0.872

> <Coulomb>
43.648

> <VdW>
0.144

> <VdW6>
-2.370

> <VdW12>
2.515

> <Bond>
0.080

> <Angle>
0.376

> <Pdih>
0.416

> <Idih>
0.000

> <Tether>
0.000

$$$$
VeraChem MOL file


 17 16  0  0  0  0  0  0  0  0999 V2000     
   19.7342   21.2616   20.5712 N   0  3  0  0  0  0  0  0  0  0  0  0
   18.7723   21.5959   20.6837 H   0  0  0  0  0  0  0  0  0  0  0  0
   19.8343   20.9554   19.5987 H   0  0  0  0  0  0  0  0  0  0  0  0
   20.3464   22.0752   20.6903 H   0  0  0  0  0  0  0  0  0  0  0  0
   20.0693   20.1556   21.5520 C   0  0  0  0  0  0  0  0  0  0  0  0
   19.9711   20.5594   22.5632 H   0  0  0  0  0  0  0  0  0  0  0  0
   21.1136   19.8731   21.3955 H   0  0  0  0  0  0  0  0  0  0  0  0
   19.1671   18.9159   21.3999 C   0  0  0  0  0  0  0  0  0  0  0  0
   18.1180   19.2176   21.5191 H   0  0  0  0  0  0  0  0  0  0  0  0
   19.2646   18.5113   20.3837 H   0  0  0  0  0  0  0  0  0  0  0  0
   19.4932   17.8107   22.4315 C   0  0  0  0  0  0  0  0  0  0  0  0
   18.7659   16.9941   22.3217 H   0  0  0  0  0  0  0  0  0  0  0  0
   19.3639   18.2046   23.4496 H   0  0  0  0  0  0  0  0  0  0  0  0
   20.9208   17.2389   22.2736 C   0  0  0  0  0  0  0  0  0  0  0  0
   21.0784   16.8437   21.2616 H   0  0  0  0  0  0  0  0  0  0  0  0
   21.0874   16.4181   22.9832 H   0  0  0  0  0  0  0  0  0  0  0  0
   21.6849   18.0026   22.4662 H   0  0  0  0  0  0  0  0  0  0  0  0
  1  2  1  0  0  0  0
  1  3  1  0  0  0  0
  1  4  1  0  0  0  0
  1  5  1  0  0  0  0
  5  6  1  0  0  0  0
  5  7  1  0  0  0  0
  5  8  1  0  0  0  0
  8  9  1  0  0  0  0
  8 10  1  0  0  0  0
  8 11  1  0  0  0  0
 11 12  1  0  0  0  0
 11 13  1  0  0  0  0
 11 14  1  0  0  0  0
 14 15  1  0  0  0  0
 14 16  1  0  0  0  0
 14 17  1  0  0  0  0
M  END
> <VConfSearch Rank>
314

> <Conf_Id>
36

> <Delta U+W>
0.275

> <U+W>
-15.590

> <U>
45.174

> <W>
-60.765

> <W(PB)>
-62.518

> <W(SA)>
1.754

> <Valence>
1.161

> <Coulomb>
43.789

> <VdW>
0.224

> <VdW6>
-2.897

> <VdW12>
3.121

> <Bond>
0.100

> <Angle>
0.500

> <Pdih>
0.561

> <Idih>
0.000

> <Tether>
0.000

$$$$
VeraChem MOL file


 17 16  0  0  0  0  0  0  0  0999 V2000     
   18.3593   18.3760   22.3680 N   0  3  0  0  0  0  0  0  0  0  0  0
   18.3628   18.2271   21.3558 H   0  0  0  0  0  0  0  0  0  0  0  0
   17.7910   19.2092   22.5480 H   0  0  0  0  0  0  0  0  0  0  0  0
   17.8651   17.5826   22.7888 H   0  0  0  0  0  0  0  0  0  0  0  0
   19.7644   18.5223   22.9197 C   0  0  0  0  0  0  0  0  0  0  0  0
   20.3005   17.5829   22.7603 H   0  0  0  0  0  0  0  0  0  0  0  0
   19.6700   18.6787   23.9977 H   0  0  0  0  0  0  0  0  0  0  0  0
   20.5666   19.6914   22.3105 C   0  0  0  0  0  0  0  0  0  0  0  0
   19.9340   20.5864   22.2435 H   0  0  0  0  0  0  0  0  0  0  0  0
   21.3735   19.9448   23.0109 H   0  0  0  0  0  0  0  0  0  0  0  0
   21.2098   19.3816   20.9346 C   0  0  0  0  0  0  0  0  0  0  0  0
   21.8892   18.5228   21.0292 H   0  0  0  0  0  0  0  0  0  0  0  0
   21.8383   20.2358   20.6462 H   0  0  0  0  0  0  0  0  0  0  0  0
   20.1945   19.1125   19.8007 C   0  0  0  0  0  0  0  0  0  0  0  0
   19.6836   18.1524   19.9375 H   0  0  0  0  0  0  0  0  0  0  0  0
   20.7090   19.0685   18.8319 H   0  0  0  0  0  0  0  0  0  0  0  0
   19.4419   19.9096   19.7420 H   0  0  0  0  0  0  0  0  0  0  0  0
  1  2  1  0  0  0  0
  1  3  1  0  0  0  0
  1  4  1  0  0  0  0
  1  5  1  0  0  0  0
  5  6  1  0  0  0  0
  5  7  1  0  0  0  0
  5  8  1  0  0  0  0
  8  9  1  0  0  0  0
  8 10  1  0  0  0  0
  8 11  1  0  0  0  0
 11 12  1  0  0  0  0
 11 13  1  0  0  0  0
 11 14  1  0  0  0  0
 14 15  1  0  0  0  0
 14 16  1  0  0  0  0
 14 17  1  0  0  0  0
M  END
> <VConfSearch Rank>
315

> <Conf_Id>
19

> <Delta U+W>
2.662

> <U+W>
-13.203

> <U>
47.423

> <W>
-60.626

> <W(PB)>
-62.328

> <W(SA)>
1.702

> <Valence>
2.414

> <Coulomb>
44.831

> <VdW>
0.178

> <VdW6>
-3.743

> <VdW12>
3.921

> <Bond>
0.138

> <Angle>
0.941

> <Pdih>
1.335

> <Idih>
0.000

> <Tether>
0.000

$$$$
VeraChem MOL file


 17 16  0  0  0  0  0  0  0  0999 V2000     
   21.3778   18.7152   20.5547 N   0  3  0  0  0  0  0  0  0  0  0  0
   21.9540   19.0155   19.7619 H   0  0  0  0  0  0  0  0  0  0  0  0
   21.6848   17.7702   20.8040 H   0  0  0  0  0  0  0  0  0  0  0  0
   21.6085   19.3245   21.3436 H   0  0  0  0  0  0  0  0  0  0  0  0
   19.8981   18.7583   20.2250 C   0  0  0  0  0  0  0  0  0  0  0  0
   19.7391   18.0836   19.3794 H   0  0  0  0  0  0  0  0  0  0  0  0
   19.6429   19.7711   19.9016 H   0  0  0  0  0  0  0  0  0  0  0  0
   18.9764   18.3334   21.3875 C   0  0  0  0  0  0  0  0  0  0  0  0
   18.0111   18.0347   20.9575 H   0  0  0  0  0  0  0  0  0  0  0  0
   19.3785   17.4365   21.8771 H   0  0  0  0  0  0  0  0  0  0  0  0
   18.7082   19.4447   22.4343 C   0  0  0  0  0  0  0  0  0  0  0  0
   17.9639   19.0718   23.1519 H   0  0  0  0  0  0  0  0  0  0  0  0
   18.2474   20.3127   21.9421 H   0  0  0  0  0  0  0  0  0  0  0  0
   19.9605   19.9012   23.2168 C   0  0  0  0  0  0  0  0  0  0  0  0
   20.4986   19.0444   23.6429 H   0  0  0  0  0  0  0  0  0  0  0  0
   19.6717   20.5591   24.0468 H   0  0  0  0  0  0  0  0  0  0  0  0
   20.6479   20.4699   22.5797 H   0  0  0  0  0  0  0  0  0  0  0  0
  1  2  1  0  0  0  0
  1  3  1  0  0  0  0
  1  4  1  0  0  0  0
  1  5  1  0  0  0  0
  5  6  1  0  0  0  0
  5  7  1  0  0  0  0
  5  8  1  0  0  0  0
  8  9  1  0  0  0  0
  8 10  1  0  0  0  0
  8 11  1  0  0  0  0
 11 12  1  0  0  0  0
 11 13  1  0  0  0  0
 11 14  1  0  0  0  0
 14 15  1  0  0  0  0
 14 16  1  0  0  0  0
 14 17  1  0  0  0  0
M  END
> <VConfSearch Rank>
316

> <Conf_Id>
44

> <Delta U+W>
2.712

> <U+W>
-13.153

> <U>
47.423

> <W>
-60.576

> <W(PB)>
-62.262

> <W(SA)>
1.687

> <Valence>
2.414

> <Coulomb>
44.831

> <VdW>
0.178

> <VdW6>
-3.743

> <VdW12>
3.922

> <Bond>
0.138

> <Angle>
0.941

> <Pdih>
1.335

> <Idih>
0.000

> <Tether>
0.000

$$$$
VeraChem MOL file


 17 16  0  0  0  0  0  0  0  0999 V2000     
   21.6118   19.9377   22.1199 N   0  3  0  0  0  0  0  0  0  0  0  0
   20.9094   20.1896   22.8210 H   0  0  0  0  0  0  0  0  0  0  0  0
   21.7849   20.7721   21.5513 H   0  0  0  0  0  0  0  0  0  0  0  0
   22.4805   19.7367   22.6254 H   0  0  0  0  0  0  0  0  0  0  0  0
   21.1654   18.7601   21.2751 C   0  0  0  0  0  0  0  0  0  0  0  0
   21.0280   17.9006   21.9364 H   0  0  0  0  0  0  0  0  0  0  0  0
   21.9745   18.5243   20.5784 H   0  0  0  0  0  0  0  0  0  0  0  0
   19.8678   19.0190   20.4819 C   0  0  0  0  0  0  0  0  0  0  0  0
   20.0286   19.8577   19.7916 H   0  0  0  0  0  0  0  0  0  0  0  0
   19.6589   18.1424   19.8544 H   0  0  0  0  0  0  0  0  0  0  0  0
   18.6342   19.3143   21.3711 C   0  0  0  0  0  0  0  0  0  0  0  0
   17.7665   19.4990   20.7224 H   0  0  0  0  0  0  0  0  0  0  0  0
   18.7911   20.2418   21.9385 H   0  0  0  0  0  0  0  0  0  0  0  0
   18.2980   18.1600   22.3429 C   0  0  0  0  0  0  0  0  0  0  0  0
   18.1355   17.2207   21.7986 H   0  0  0  0  0  0  0  0  0  0  0  0
   17.3819   18.3841   22.9046 H   0  0  0  0  0  0  0  0  0  0  0  0
   19.1019   17.9987   23.0720 H   0  0  0  0  0  0  0  0  0  0  0  0
  1  2  1  0  0  0  0
  1  3  1  0  0  0  0
  1  4  1  0  0  0  0
  1  5  1  0  0  0  0
  5  6  1  0  0  0  0
  5  7  1  0  0  0  0
  5  8  1  0  0  0  0
  8  9  1  0  0  0  0
  8 10  1  0  0  0  0
  8 11  1  0  0  0  0
 11 12  1  0  0  0  0
 11 13  1  0  0  0  0
 11 14  1  0  0  0  0
 14 15  1  0  0  0  0
 14 16  1  0  0  0  0
 14 17  1  0  0  0  0
M  END
> <VConfSearch Rank>
317

> <Conf_Id>
1

> <Delta U+W>
0.685

> <U+W>
-15.179

> <U>
45.697

> <W>
-60.876

> <W(PB)>
-62.586

> <W(SA)>
1.710

> <Valence>
1.263

> <Coulomb>
44.179

> <VdW>
0.255

> <VdW6>
-3.552

> <VdW12>
3.807

> <Bond>
0.125

> <Angle>
0.616

> <Pdih>
0.521

> <Idih>
0.000

> <Tether>
0.000

$$$$
VeraChem MOL file


 17 16  0  0  0  0  0  0  0  0999 V2000     
   18.3320   19.8815   20.7744 N   0  3  0  0  0  0  0  0  0  0  0  0
   17.4621   19.4652   21.1198 H   0  0  0  0  0  0  0  0  0  0  0  0
   18.7216   19.2368   20.0809 H   0  0  0  0  0  0  0  0  0  0  0  0
   18.0739   20.7384   20.2746 H   0  0  0  0  0  0  0  0  0  0  0  0
   19.3123   20.1575   21.8981 C   0  0  0  0  0  0  0  0  0  0  0  0
   18.8470   20.8777   22.5765 H   0  0  0  0  0  0  0  0  0  0  0  0
   20.2007   20.6256   21.4662 H   0  0  0  0  0  0  0  0  0  0  0  0
   19.7209   18.8989   22.6912 C   0  0  0  0  0  0  0  0  0  0  0  0
   20.3764   19.2024   23.5182 H   0  0  0  0  0  0  0  0  0  0  0  0
   18.8278   18.4593   23.1546 H   0  0  0  0  0  0  0  0  0  0  0  0
   20.4403   17.8235   21.8395 C   0  0  0  0  0  0  0  0  0  0  0  0
   19.7639   17.4426   21.0623 H   0  0  0  0  0  0  0  0  0  0  0  0
   20.6782   16.9642   22.4820 H   0  0  0  0  0  0  0  0  0  0  0  0
   21.7438   18.3394   21.1878 C   0  0  0  0  0  0  0  0  0  0  0  0
   22.2523   17.5288   20.6499 H   0  0  0  0  0  0  0  0  0  0  0  0
   22.4380   18.7251   21.9457 H   0  0  0  0  0  0  0  0  0  0  0  0
   21.5447   19.1414   20.4660 H   0  0  0  0  0  0  0  0  0  0  0  0
  1  2  1  0  0  0  0
  1  3  1  0  0  0  0
  1  4  1  0  0  0  0
  1  5  1  0  0  0  0
  5  6  1  0  0  0  0
  5  7  1  0  0  0  0
  5  8  1  0  0  0  0
  8  9  1  0  0  0  0
  8 10  1  0  0  0  0
  8 11  1  0  0  0  0
 11 12  1  0  0  0  0
 11 13  1  0  0  0  0
 11 14  1  0  0  0  0
 14 15  1  0  0  0  0
 14 16  1  0  0  0  0
 14 17  1  0  0  0  0
M  END
> <VConfSearch Rank>
318

> <Conf_Id>
43

> <Delta U+W>
0.642

> <U+W>
-15.222

> <U>
45.697

> <W>
-60.919

> <W(PB)>
-62.631

> <W(SA)>
1.712

> <Valence>
1.262

> <Coulomb>
44.179

> <VdW>
0.255

> <VdW6>
-3.552

> <VdW12>
3.807

> <Bond>
0.125

> <Angle>
0.616

> <Pdih>
0.521

> <Idih>
0.000

> <Tether>
0.000

$$$$
VeraChem MOL file


 17 16  0  0  0  0  0  0  0  0999 V2000     
   19.1756   18.6738   19.1883 N   0  3  0  0  0  0  0  0  0  0  0  0
   19.8360   19.3102   18.7316 H   0  0  0  0  0  0  0  0  0  0  0  0
   18.2808   19.1679   19.2574 H   0  0  0  0  0  0  0  0  0  0  0  0
   19.0308   17.8871   18.5471 H   0  0  0  0  0  0  0  0  0  0  0  0
   19.6757   18.2123   20.5426 C   0  0  0  0  0  0  0  0  0  0  0  0
   20.6124   17.6695   20.3896 H   0  0  0  0  0  0  0  0  0  0  0  0
   18.9400   17.5164   20.9550 H   0  0  0  0  0  0  0  0  0  0  0  0
   19.9041   19.3699   21.5317 C   0  0  0  0  0  0  0  0  0  0  0  0
   20.6318   20.0745   21.1075 H   0  0  0  0  0  0  0  0  0  0  0  0
   18.9651   19.9219   21.6710 H   0  0  0  0  0  0  0  0  0  0  0  0
   20.4127   18.8570   22.8969 C   0  0  0  0  0  0  0  0  0  0  0  0
   21.3509   18.3014   22.7576 H   0  0  0  0  0  0  0  0  0  0  0  0
   19.6863   18.1491   23.3205 H   0  0  0  0  0  0  0  0  0  0  0  0
   20.6442   20.0127   23.8943 C   0  0  0  0  0  0  0  0  0  0  0  0
   21.0050   19.6278   24.8569 H   0  0  0  0  0  0  0  0  0  0  0  0
   19.7147   20.5663   24.0806 H   0  0  0  0  0  0  0  0  0  0  0  0
   21.3924   20.7199   23.5132 H   0  0  0  0  0  0  0  0  0  0  0  0
  1  2  1  0  0  0  0
  1  3  1  0  0  0  0
  1  4  1  0  0  0  0
  1  5  1  0  0  0  0
  5  6  1  0  0  0  0
  5  7  1  0  0  0  0
  5  8  1  0  0  0  0
  8  9  1  0  0  0  0
  8 10  1  0  0  0  0
  8 11  1  0  0  0  0
 11 12  1  0  0  0  0
 11 13  1  0  0  0  0
 11 14  1  0  0  0  0
 14 15  1  0  0  0  0
 14 16  1  0  0  0  0
 14 17  1  0  0  0  0
M  END
> <VConfSearch Rank>
319

> <Conf_Id>
7

> <Delta U+W>
0.000

> <U+W>
-15.865

> <U>
44.664

> <W>
-60.529

> <W(PB)>
-62.309

> <W(SA)>
1.780

> <Valence>
0.872

> <Coulomb>
43.648

> <VdW>
0.144

> <VdW6>
-2.370

> <VdW12>
2.515

> <Bond>
0.080

> <Angle>
0.376

> <Pdih>
0.416

> <Idih>
0.000

> <Tether>
0.000

$$$$
VeraChem MOL file


 17 16  0  0  0  0  0  0  0  0999 V2000     
   20.0565   17.8355   23.6751 N   0  3  0  0  0  0  0  0  0  0  0  0
   19.1048   17.6345   23.9969 H   0  0  0  0  0  0  0  0  0  0  0  0
   20.4252   18.5808   24.2737 H   0  0  0  0  0  0  0  0  0  0  0  0
   20.6166   16.9982   23.8653 H   0  0  0  0  0  0  0  0  0  0  0  0
   20.0915   18.2159   22.2083 C   0  0  0  0  0  0  0  0  0  0  0  0
   19.7144   17.3680   21.6302 H   0  0  0  0  0  0  0  0  0  0  0  0
   21.1351   18.3840   21.9297 H   0  0  0  0  0  0  0  0  0  0  0  0
   19.2592   19.4722   21.8873 C   0  0  0  0  0  0  0  0  0  0  0  0
   18.2217   19.3078   22.2075 H   0  0  0  0  0  0  0  0  0  0  0  0
   19.6369   20.3234   22.4692 H   0  0  0  0  0  0  0  0  0  0  0  0
   19.2711   19.8269   20.3820 C   0  0  0  0  0  0  0  0  0  0  0  0
   18.5979   20.6787   20.2107 H   0  0  0  0  0  0  0  0  0  0  0  0
   18.8622   18.9885   19.8006 H   0  0  0  0  0  0  0  0  0  0  0  0
   20.6803   20.1846   19.8566 C   0  0  0  0  0  0  0  0  0  0  0  0
   21.1146   21.0170   20.4255 H   0  0  0  0  0  0  0  0  0  0  0  0
   20.6326   20.4882   18.8028 H   0  0  0  0  0  0  0  0  0  0  0  0
   21.3648   19.3296   19.9236 H   0  0  0  0  0  0  0  0  0  0  0  0
  1  2  1  0  0  0  0
  1  3  1  0  0  0  0
  1  4  1  0  0  0  0
  1  5  1  0  0  0  0
  5  6  1  0  0  0  0
  5  7  1  0  0  0  0
  5  8  1  0  0  0  0
  8  9  1  0  0  0  0
  8 10  1  0  0  0  0
  8 11  1  0  0  0  0
 11 12  1  0  0  0  0
 11 13  1  0  0  0  0
 11 14  1  0  0  0  0
 14 15  1  0  0  0  0
 14 16  1  0  0  0  0
 14 17  1  0  0  0  0
M  END
> <VConfSearch Rank>
320

> <Conf_Id>
36

> <Delta U+W>
0.275

> <U+W>
-15.590

> <U>
45.174

> <W>
-60.765

> <W(PB)>
-62.518

> <W(SA)>
1.754

> <Valence>
1.161

> <Coulomb>
43.789

> <VdW>
0.224

> <VdW6>
-2.897

> <VdW12>
3.121

> <Bond>
0.100

> <Angle>
0.500

> <Pdih>
0.561

> <Idih>
0.000

> <Tether>
0.000

$$$$
VeraChem MOL file


 17 16  0  0  0  0  0  0  0  0999 V2000     
   20.5871   17.5714   22.6161 N   0  3  0  0  0  0  0  0  0  0  0  0
   21.1772   17.7433   21.7981 H   0  0  0  0  0  0  0  0  0  0  0  0
   19.9913   16.7681   22.3944 H   0  0  0  0  0  0  0  0  0  0  0  0
   21.2060   17.2807   23.3798 H   0  0  0  0  0  0  0  0  0  0  0  0
   19.7697   18.7940   22.9865 C   0  0  0  0  0  0  0  0  0  0  0  0
   20.4542   19.5951   23.2781 H   0  0  0  0  0  0  0  0  0  0  0  0
   19.1716   18.5256   23.8616 H   0  0  0  0  0  0  0  0  0  0  0  0
   18.8296   19.2913   21.8683 C   0  0  0  0  0  0  0  0  0  0  0  0
   18.3169   18.4395   21.4022 H   0  0  0  0  0  0  0  0  0  0  0  0
   18.0425   19.8967   22.3371 H   0  0  0  0  0  0  0  0  0  0  0  0
   19.5204   20.1618   20.7877 C   0  0  0  0  0  0  0  0  0  0  0  0
   19.9756   21.0441   21.2593 H   0  0  0  0  0  0  0  0  0  0  0  0
   18.7478   20.5460   20.1069 H   0  0  0  0  0  0  0  0  0  0  0  0
   20.5862   19.4169   19.9522 C   0  0  0  0  0  0  0  0  0  0  0  0
   21.4798   19.1939   20.5467 H   0  0  0  0  0  0  0  0  0  0  0  0
   20.9088   20.0378   19.1063 H   0  0  0  0  0  0  0  0  0  0  0  0
   20.1885   18.4787   19.5439 H   0  0  0  0  0  0  0  0  0  0  0  0
  1  2  1  0  0  0  0
  1  3  1  0  0  0  0
  1  4  1  0  0  0  0
  1  5  1  0  0  0  0
  5  6  1  0  0  0  0
  5  7  1  0  0  0  0
  5  8  1  0  0  0  0
  8  9  1  0  0  0  0
  8 10  1  0  0  0  0
  8 11  1  0  0  0  0
 11 12  1  0  0  0  0
 11 13  1  0  0  0  0
 11 14  1  0  0  0  0
 14 15  1  0  0  0  0
 14 16  1  0  0  0  0
 14 17  1  0  0  0  0
M  END
> <VConfSearch Rank>
321

> <Conf_Id>
19

> <Delta U+W>
2.662

> <U+W>
-13.203

> <U>
47.423

> <W>
-60.626

> <W(PB)>
-62.328

> <W(SA)>
1.702

> <Valence>
2.414

> <Coulomb>
44.831

> <VdW>
0.178

> <VdW6>
-3.743

> <VdW12>
3.921

> <Bond>
0.138

> <Angle>
0.941

> <Pdih>
1.335

> <Idih>
0.000

> <Tether>
0.000

$$$$
VeraChem MOL file


 17 16  0  0  0  0  0  0  0  0999 V2000     
   20.6899   17.4752   21.0679 N   0  3  0  0  0  0  0  0  0  0  0  0
   20.5638   16.4788   20.8629 H   0  0  0  0  0  0  0  0  0  0  0  0
   21.6994   17.6445   21.1094 H   0  0  0  0  0  0  0  0  0  0  0  0
   20.3301   17.9967   20.2645 H   0  0  0  0  0  0  0  0  0  0  0  0
   19.9975   17.8783   22.3556 C   0  0  0  0  0  0  0  0  0  0  0  0
   20.4393   17.2801   23.1571 H   0  0  0  0  0  0  0  0  0  0  0  0
   18.9396   17.6129   22.2798 H   0  0  0  0  0  0  0  0  0  0  0  0
   20.1366   19.3740   22.7094 C   0  0  0  0  0  0  0  0  0  0  0  0
   19.9542   19.4816   23.7869 H   0  0  0  0  0  0  0  0  0  0  0  0
   21.1708   19.7043   22.5446 H   0  0  0  0  0  0  0  0  0  0  0  0
   19.1477   20.3057   21.9633 C   0  0  0  0  0  0  0  0  0  0  0  0
   19.2605   21.3226   22.3646 H   0  0  0  0  0  0  0  0  0  0  0  0
   18.1149   20.0036   22.1871 H   0  0  0  0  0  0  0  0  0  0  0  0
   19.3490   20.3560   20.4316 C   0  0  0  0  0  0  0  0  0  0  0  0
   20.3959   20.5626   20.1738 H   0  0  0  0  0  0  0  0  0  0  0  0
   18.7346   21.1531   19.9931 H   0  0  0  0  0  0  0  0  0  0  0  0
   19.0455   19.4167   19.9549 H   0  0  0  0  0  0  0  0  0  0  0  0
  1  2  1  0  0  0  0
  1  3  1  0  0  0  0
  1  4  1  0  0  0  0
  1  5  1  0  0  0  0
  5  6  1  0  0  0  0
  5  7  1  0  0  0  0
  5  8  1  0  0  0  0
  8  9  1  0  0  0  0
  8 10  1  0  0  0  0
  8 11  1  0  0  0  0
 11 12  1  0  0  0  0
 11 13  1  0  0  0  0
 11 14  1  0  0  0  0
 14 15  1  0  0  0  0
 14 16  1  0  0  0  0
 14 17  1  0  0  0  0
M  END
> <VConfSearch Rank>
322

> <Conf_Id>
44

> <Delta U+W>
2.712

> <U+W>
-13.153

> <U>
47.423

> <W>
-60.576

> <W(PB)>
-62.262

> <W(SA)>
1.687

> <Valence>
2.414

> <Coulomb>
44.831

> <VdW>
0.178

> <VdW6>
-3.743

> <VdW12>
3.922

> <Bond>
0.138

> <Angle>
0.941

> <Pdih>
1.335

> <Idih>
0.000

> <Tether>
0.000

$$$$
VeraChem MOL file


 17 16  0  0  0  0  0  0  0  0999 V2000     
   20.0173   18.8713   23.5760 N   0  3  0  0  0  0  0  0  0  0  0  0
   20.1834   19.8558   23.3487 H   0  0  0  0  0  0  0  0  0  0  0  0
   20.9128   18.4744   23.8757 H   0  0  0  0  0  0  0  0  0  0  0  0
   19.3961   18.8532   24.3912 H   0  0  0  0  0  0  0  0  0  0  0  0
   19.4281   18.1151   22.4010 C   0  0  0  0  0  0  0  0  0  0  0  0
   18.4654   18.5695   22.1531 H   0  0  0  0  0  0  0  0  0  0  0  0
   19.2430   17.0875   22.7254 H   0  0  0  0  0  0  0  0  0  0  0  0
   20.3337   18.1011   21.1521 C   0  0  0  0  0  0  0  0  0  0  0  0
   21.2822   17.6065   21.4003 H   0  0  0  0  0  0  0  0  0  0  0  0
   19.8584   17.4811   20.3805 H   0  0  0  0  0  0  0  0  0  0  0  0
   20.6241   19.5064   20.5687 C   0  0  0  0  0  0  0  0  0  0  0  0
   21.2841   19.3980   19.6966 H   0  0  0  0  0  0  0  0  0  0  0  0
   21.1819   20.1100   21.2976 H   0  0  0  0  0  0  0  0  0  0  0  0
   19.3444   20.2600   20.1394 C   0  0  0  0  0  0  0  0  0  0  0  0
   18.7691   19.6765   19.4090 H   0  0  0  0  0  0  0  0  0  0  0  0
   19.6011   21.2201   19.6732 H   0  0  0  0  0  0  0  0  0  0  0  0
   18.6937   20.4723   20.9970 H   0  0  0  0  0  0  0  0  0  0  0  0
  1  2  1  0  0  0  0
  1  3  1  0  0  0  0
  1  4  1  0  0  0  0
  1  5  1  0  0  0  0
  5  6  1  0  0  0  0
  5  7  1  0  0  0  0
  5  8  1  0  0  0  0
  8  9  1  0  0  0  0
  8 10  1  0  0  0  0
  8 11  1  0  0  0  0
 11 12  1  0  0  0  0
 11 13  1  0  0  0  0
 11 14  1  0  0  0  0
 14 15  1  0  0  0  0
 14 16  1  0  0  0  0
 14 17  1  0  0  0  0
M  END
> <VConfSearch Rank>
323

> <Conf_Id>
1

> <Delta U+W>
0.685

> <U+W>
-15.179

> <U>
45.697

> <W>
-60.876

> <W(PB)>
-62.586

> <W(SA)>
1.710

> <Valence>
1.263

> <Coulomb>
44.179

> <VdW>
0.255

> <VdW6>
-3.552

> <VdW12>
3.807

> <Bond>
0.125

> <Angle>
0.616

> <Pdih>
0.521

> <Idih>
0.000

> <Tether>
0.000

$$$$
VeraChem MOL file


 17 16  0  0  0  0  0  0  0  0999 V2000     
   20.1378   18.9383   23.5721 N   0  3  0  0  0  0  0  0  0  0  0  0
   20.3373   19.8601   23.9720 H   0  0  0  0  0  0  0  0  0  0  0  0
   21.0087   18.5925   23.1593 H   0  0  0  0  0  0  0  0  0  0  0  0
   19.9105   18.3171   24.3551 H   0  0  0  0  0  0  0  0  0  0  0  0
   19.0164   18.9945   22.5527 C   0  0  0  0  0  0  0  0  0  0  0  0
   18.1142   19.3341   23.0686 H   0  0  0  0  0  0  0  0  0  0  0  0
   18.8362   17.9793   22.1900 H   0  0  0  0  0  0  0  0  0  0  0  0
   19.3053   19.9295   21.3601 C   0  0  0  0  0  0  0  0  0  0  0  0
   18.4190   19.9565   20.7123 H   0  0  0  0  0  0  0  0  0  0  0  0
   19.4444   20.9537   21.7305 H   0  0  0  0  0  0  0  0  0  0  0  0
   20.5383   19.5151   20.5190 C   0  0  0  0  0  0  0  0  0  0  0  0
   21.4490   19.5719   21.1306 H   0  0  0  0  0  0  0  0  0  0  0  0
   20.6731   20.2428   19.7064 H   0  0  0  0  0  0  0  0  0  0  0  0
   20.4079   18.1004   19.9095 C   0  0  0  0  0  0  0  0  0  0  0  0
   21.2716   17.8754   19.2704 H   0  0  0  0  0  0  0  0  0  0  0  0
   19.5042   18.0187   19.2917 H   0  0  0  0  0  0  0  0  0  0  0  0
   20.3620   17.3281   20.6875 H   0  0  0  0  0  0  0  0  0  0  0  0
  1  2  1  0  0  0  0
  1  3  1  0  0  0  0
  1  4  1  0  0  0  0
  1  5  1  0  0  0  0
  5  6  1  0  0  0  0
  5  7  1  0  0  0  0
  5  8  1  0  0  0  0
  8  9  1  0  0  0  0
  8 10  1  0  0  0  0
  8 11  1  0  0  0  0
 11 12  1  0  0  0  0
 11 13  1  0  0  0  0
 11 14  1  0  0  0  0
 14 15  1  0  0  0  0
 14 16  1  0  0  0  0
 14 17  1  0  0  0  0
M  END
> <VConfSearch Rank>
324

> <Conf_Id>
43

> <Delta U+W>
0.642

> <U+W>
-15.222

> <U>
45.697

> <W>
-60.919

> <W(PB)>
-62.631

> <W(SA)>
1.712

> <Valence>
1.262

> <Coulomb>
44.179

> <VdW>
0.255

> <VdW6>
-3.552

> <VdW12>
3.807

> <Bond>
0.125

> <Angle>
0.616

> <Pdih>
0.521

> <Idih>
0.000

> <Tether>
0.000

$$$$
VeraChem MOL file


 17 16  0  0  0  0  0  0  0  0999 V2000     
   20.7781   21.4261   22.1672 N   0  3  0  0  0  0  0  0  0  0  0  0
   20.3344   21.9118   21.3817 H   0  0  0  0  0  0  0  0  0  0  0  0
   21.7622   21.2877   21.9179 H   0  0  0  0  0  0  0  0  0  0  0  0
   20.7622   22.0729   22.9624 H   0  0  0  0  0  0  0  0  0  0  0  0
   20.0847   20.1178   22.4908 C   0  0  0  0  0  0  0  0  0  0  0  0
   19.0537   20.3437   22.7762 H   0  0  0  0  0  0  0  0  0  0  0  0
   20.5890   19.6727   23.3528 H   0  0  0  0  0  0  0  0  0  0  0  0
   20.0902   19.1217   21.3169 C   0  0  0  0  0  0  0  0  0  0  0  0
   19.5967   19.5779   20.4484 H   0  0  0  0  0  0  0  0  0  0  0  0
   21.1267   18.9090   21.0231 H   0  0  0  0  0  0  0  0  0  0  0  0
   19.3748   17.8041   21.6881 C   0  0  0  0  0  0  0  0  0  0  0  0
   18.3381   18.0168   21.9855 H   0  0  0  0  0  0  0  0  0  0  0  0
   19.8663   17.3486   22.5595 H   0  0  0  0  0  0  0  0  0  0  0  0
   19.3762   16.7999   20.5153 C   0  0  0  0  0  0  0  0  0  0  0  0
   18.8638   15.8715   20.7989 H   0  0  0  0  0  0  0  0  0  0  0  0
   20.4008   16.5410   20.2178 H   0  0  0  0  0  0  0  0  0  0  0  0
   18.8606   17.2144   19.6392 H   0  0  0  0  0  0  0  0  0  0  0  0
  1  2  1  0  0  0  0
  1  3  1  0  0  0  0
  1  4  1  0  0  0  0
  1  5  1  0  0  0  0
  5  6  1  0  0  0  0
  5  7  1  0  0  0  0
  5  8  1  0  0  0  0
  8  9  1  0  0  0  0
  8 10  1  0  0  0  0
  8 11  1  0  0  0  0
 11 12  1  0  0  0  0
 11 13  1  0  0  0  0
 11 14  1  0  0  0  0
 14 15  1  0  0  0  0
 14 16  1  0  0  0  0
 14 17  1  0  0  0  0
M  END
> <VConfSearch Rank>
325

> <Conf_Id>
7

> <Delta U+W>
0.000

> <U+W>
-15.865

> <U>
44.664

> <W>
-60.529

> <W(PB)>
-62.309

> <W(SA)>
1.780

> <Valence>
0.872

> <Coulomb>
43.648

> <VdW>
0.144

> <VdW6>
-2.370

> <VdW12>
2.515

> <Bond>
0.080

> <Angle>
0.376

> <Pdih>
0.416

> <Idih>
0.000

> <Tether>
0.000

$$$$
VeraChem MOL file


 17 16  0  0  0  0  0  0  0  0999 V2000     
   17.5256   18.8653   21.6382 N   0  3  0  0  0  0  0  0  0  0  0  0
   17.1965   18.7821   20.6715 H   0  0  0  0  0  0  0  0  0  0  0  0
   17.2964   19.8127   21.9534 H   0  0  0  0  0  0  0  0  0  0  0  0
   16.9600   18.2210   22.2001 H   0  0  0  0  0  0  0  0  0  0  0  0
   19.0070   18.5689   21.7611 C   0  0  0  0  0  0  0  0  0  0  0  0
   19.1733   17.5377   21.4380 H   0  0  0  0  0  0  0  0  0  0  0  0
   19.2783   18.6454   22.8172 H   0  0  0  0  0  0  0  0  0  0  0  0
   19.8872   19.5204   20.9281 C   0  0  0  0  0  0  0  0  0  0  0  0
   19.5799   19.4657   19.8753 H   0  0  0  0  0  0  0  0  0  0  0  0
   19.7190   20.5563   21.2515 H   0  0  0  0  0  0  0  0  0  0  0  0
   21.3931   19.1832   21.0310 C   0  0  0  0  0  0  0  0  0  0  0  0
   21.9538   19.8436   20.3547 H   0  0  0  0  0  0  0  0  0  0  0  0
   21.5680   18.1576   20.6762 H   0  0  0  0  0  0  0  0  0  0  0  0
   21.9507   19.3388   22.4645 C   0  0  0  0  0  0  0  0  0  0  0  0
   21.7830   20.3547   22.8454 H   0  0  0  0  0  0  0  0  0  0  0  0
   23.0319   19.1499   22.4795 H   0  0  0  0  0  0  0  0  0  0  0  0
   21.4816   18.6305   23.1589 H   0  0  0  0  0  0  0  0  0  0  0  0
  1  2  1  0  0  0  0
  1  3  1  0  0  0  0
  1  4  1  0  0  0  0
  1  5  1  0  0  0  0
  5  6  1  0  0  0  0
  5  7  1  0  0  0  0
  5  8  1  0  0  0  0
  8  9  1  0  0  0  0
  8 10  1  0  0  0  0
  8 11  1  0  0  0  0
 11 12  1  0  0  0  0
 11 13  1  0  0  0  0
 11 14  1  0  0  0  0
 14 15  1  0  0  0  0
 14 16  1  0  0  0  0
 14 17  1  0  0  0  0
M  END
> <VConfSearch Rank>
326

> <Conf_Id>
36

> <Delta U+W>
0.275

> <U+W>
-15.590

> <U>
45.174

> <W>
-60.765

> <W(PB)>
-62.518

> <W(SA)>
1.754

> <Valence>
1.161

> <Coulomb>
43.789

> <VdW>
0.224

> <VdW6>
-2.897

> <VdW12>
3.121

> <Bond>
0.100

> <Angle>
0.500

> <Pdih>
0.561

> <Idih>
0.000

> <Tether>
0.000

$$$$
VeraChem MOL file


 17 16  0  0  0  0  0  0  0  0999 V2000     
   18.2293   18.6152   20.9726 N   0  3  0  0  0  0  0  0  0  0  0  0
   18.2147   19.3692   21.6640 H   0  0  0  0  0  0  0  0  0  0  0  0
   17.9310   17.7606   21.4524 H   0  0  0  0  0  0  0  0  0  0  0  0
   17.5100   18.8307   20.2747 H   0  0  0  0  0  0  0  0  0  0  0  0
   19.5991   18.4580   20.3410 C   0  0  0  0  0  0  0  0  0  0  0  0
   19.8344   19.3714   19.7882 H   0  0  0  0  0  0  0  0  0  0  0  0
   19.5275   17.6372   19.6222 H   0  0  0  0  0  0  0  0  0  0  0  0
   20.7293   18.1495   21.3455 C   0  0  0  0  0  0  0  0  0  0  0  0
   20.3945   17.3921   22.0666 H   0  0  0  0  0  0  0  0  0  0  0  0
   21.5564   17.6899   20.7882 H   0  0  0  0  0  0  0  0  0  0  0  0
   21.2865   19.3912   22.0874 C   0  0  0  0  0  0  0  0  0  0  0  0
   21.6760   20.1142   21.3570 H   0  0  0  0  0  0  0  0  0  0  0  0
   22.1486   19.0753   22.6915 H   0  0  0  0  0  0  0  0  0  0  0  0
   20.2672   20.0929   23.0135 C   0  0  0  0  0  0  0  0  0  0  0  0
   19.4897   20.6089   22.4383 H   0  0  0  0  0  0  0  0  0  0  0  0
   20.7703   20.8512   23.6276 H   0  0  0  0  0  0  0  0  0  0  0  0
   19.7886   19.3771   23.6944 H   0  0  0  0  0  0  0  0  0  0  0  0
  1  2  1  0  0  0  0
  1  3  1  0  0  0  0
  1  4  1  0  0  0  0
  1  5  1  0  0  0  0
  5  6  1  0  0  0  0
  5  7  1  0  0  0  0
  5  8  1  0  0  0  0
  8  9  1  0  0  0  0
  8 10  1  0  0  0  0
  8 11  1  0  0  0  0
 11 12  1  0  0  0  0
 11 13  1  0  0  0  0
 11 14  1  0  0  0  0
 14 15  1  0  0  0  0
 14 16  1  0  0  0  0
 14 17  1  0  0  0  0
M  END
> <VConfSearch Rank>
327

> <Conf_Id>
19

> <Delta U+W>
2.662

> <U+W>
-13.203

> <U>
47.423

> <W>
-60.626

> <W(PB)>
-62.328

> <W(SA)>
1.702

> <Valence>
2.414

> <Coulomb>
44.831

> <VdW>
0.178

> <VdW6>
-3.743

> <VdW12>
3.921

> <Bond>
0.138

> <Angle>
0.941

> <Pdih>
1.335

> <Idih>
0.000

> <Tether>
0.000

$$$$
VeraChem MOL file


 17 16  0  0  0  0  0  0  0  0999 V2000     
   18.7167   17.8041   20.8797 N   0  3  0  0  0  0  0  0  0  0  0  0
   18.5797   16.8264   20.6037 H   0  0  0  0  0  0  0  0  0  0  0  0
   17.9302   18.3348   20.4935 H   0  0  0  0  0  0  0  0  0  0  0  0
   18.6354   17.8444   21.8988 H   0  0  0  0  0  0  0  0  0  0  0  0
   20.0504   18.3440   20.4003 C   0  0  0  0  0  0  0  0  0  0  0  0
   20.0532   18.2668   19.3096 H   0  0  0  0  0  0  0  0  0  0  0  0
   20.8455   17.7007   20.7865 H   0  0  0  0  0  0  0  0  0  0  0  0
   20.3229   19.8091   20.8013 C   0  0  0  0  0  0  0  0  0  0  0  0
   21.0826   20.2081   20.1161 H   0  0  0  0  0  0  0  0  0  0  0  0
   19.4226   20.4165   20.6393 H   0  0  0  0  0  0  0  0  0  0  0  0
   20.8438   19.9928   22.2496 C   0  0  0  0  0  0  0  0  0  0  0  0
   21.1030   21.0513   22.3924 H   0  0  0  0  0  0  0  0  0  0  0  0
   21.7793   19.4308   22.3799 H   0  0  0  0  0  0  0  0  0  0  0  0
   19.8376   19.5800   23.3478 C   0  0  0  0  0  0  0  0  0  0  0  0
   18.8596   20.0530   23.1905 H   0  0  0  0  0  0  0  0  0  0  0  0
   20.2030   19.8913   24.3351 H   0  0  0  0  0  0  0  0  0  0  0  0
   19.7037   18.4925   23.3825 H   0  0  0  0  0  0  0  0  0  0  0  0
  1  2  1  0  0  0  0
  1  3  1  0  0  0  0
  1  4  1  0  0  0  0
  1  5  1  0  0  0  0
  5  6  1  0  0  0  0
  5  7  1  0  0  0  0
  5  8  1  0  0  0  0
  8  9  1  0  0  0  0
  8 10  1  0  0  0  0
  8 11  1  0  0  0  0
 11 12  1  0  0  0  0
 11 13  1  0  0  0  0
 11 14  1  0  0  0  0
 14 15  1  0  0  0  0
 14 16  1  0  0  0  0
 14 17  1  0  0  0  0
M  END
> <VConfSearch Rank>
328

> <Conf_Id>
44

> <Delta U+W>
2.712

> <U+W>
-13.153

> <U>
47.423

> <W>
-60.576

> <W(PB)>
-62.262

> <W(SA)>
1.687

> <Valence>
2.414

> <Coulomb>
44.831

> <VdW>
0.178

> <VdW6>
-3.743

> <VdW12>
3.922

> <Bond>
0.138

> <Angle>
0.941

> <Pdih>
1.335

> <Idih>
0.000

> <Tether>
0.000

$$$$
VeraChem MOL file


 17 16  0  0  0  0  0  0  0  0999 V2000     
   18.9542   19.1526   19.8664 N   0  3  0  0  0  0  0  0  0  0  0  0
   19.7529   18.5275   19.7257 H   0  0  0  0  0  0  0  0  0  0  0  0
   19.1640   20.0271   19.3759 H   0  0  0  0  0  0  0  0  0  0  0  0
   18.1537   18.7275   19.3877 H   0  0  0  0  0  0  0  0  0  0  0  0
   18.6736   19.3830   21.3388 C   0  0  0  0  0  0  0  0  0  0  0  0
   18.4295   18.4191   21.7927 H   0  0  0  0  0  0  0  0  0  0  0  0
   17.7912   20.0245   21.4131 H   0  0  0  0  0  0  0  0  0  0  0  0
   19.8451   20.0355   22.1014 C   0  0  0  0  0  0  0  0  0  0  0  0
   20.0560   21.0203   21.6639 H   0  0  0  0  0  0  0  0  0  0  0  0
   19.5299   20.2220   23.1366 H   0  0  0  0  0  0  0  0  0  0  0  0
   21.1418   19.1881   22.1088 C   0  0  0  0  0  0  0  0  0  0  0  0
   21.9195   19.7363   22.6589 H   0  0  0  0  0  0  0  0  0  0  0  0
   21.5214   19.0697   21.0848 H   0  0  0  0  0  0  0  0  0  0  0  0
   20.9529   17.7979   22.7580 C   0  0  0  0  0  0  0  0  0  0  0  0
   20.5745   17.8898   23.7844 H   0  0  0  0  0  0  0  0  0  0  0  0
   21.9088   17.2598   22.8007 H   0  0  0  0  0  0  0  0  0  0  0  0
   20.2495   17.1780   22.1879 H   0  0  0  0  0  0  0  0  0  0  0  0
  1  2  1  0  0  0  0
  1  3  1  0  0  0  0
  1  4  1  0  0  0  0
  1  5  1  0  0  0  0
  5  6  1  0  0  0  0
  5  7  1  0  0  0  0
  5  8  1  0  0  0  0
  8  9  1  0  0  0  0
  8 10  1  0  0  0  0
  8 11  1  0  0  0  0
 11 12  1  0  0  0  0
 11 13  1  0  0  0  0
 11 14  1  0  0  0  0
 14 15  1  0  0  0  0
 14 16  1  0  0  0  0
 14 17  1  0  0  0  0
M  END
> <VConfSearch Rank>
329

> <Conf_Id>
1

> <Delta U+W>
0.685

> <U+W>
-15.179

> <U>
45.697

> <W>
-60.876

> <W(PB)>
-62.586

> <W(SA)>
1.710

> <Valence>
1.263

> <Coulomb>
44.179

> <VdW>
0.255

> <VdW6>
-3.552

> <VdW12>
3.807

> <Bond>
0.125

> <Angle>
0.616

> <Pdih>
0.521

> <Idih>
0.000

> <Tether>
0.000

$$$$
VeraChem MOL file


 17 16  0  0  0  0  0  0  0  0999 V2000     
   21.5516   19.1074   20.4610 N   0  3  0  0  0  0  0  0  0  0  0  0
   22.1328   19.9192   20.6903 H   0  0  0  0  0  0  0  0  0  0  0  0
   20.7698   19.4457   19.8927 H   0  0  0  0  0  0  0  0  0  0  0  0
   22.1158   18.4974   19.8608 H   0  0  0  0  0  0  0  0  0  0  0  0
   21.0708   18.3862   21.7053 C   0  0  0  0  0  0  0  0  0  0  0  0
   21.9520   18.0221   22.2406 H   0  0  0  0  0  0  0  0  0  0  0  0
   20.4849   17.5189   21.3900 H   0  0  0  0  0  0  0  0  0  0  0  0
   20.2278   19.2680   22.6497 C   0  0  0  0  0  0  0  0  0  0  0  0
   19.9807   18.6852   23.5470 H   0  0  0  0  0  0  0  0  0  0  0  0
   20.8379   20.1139   22.9931 H   0  0  0  0  0  0  0  0  0  0  0  0
   18.9204   19.8020   22.0132 C   0  0  0  0  0  0  0  0  0  0  0  0
   19.1546   20.4628   21.1675 H   0  0  0  0  0  0  0  0  0  0  0  0
   18.3976   20.4271   22.7506 H   0  0  0  0  0  0  0  0  0  0  0  0
   17.9703   18.6756   21.5461 C   0  0  0  0  0  0  0  0  0  0  0  0
   17.0320   19.0974   21.1631 H   0  0  0  0  0  0  0  0  0  0  0  0
   17.7201   18.0012   22.3753 H   0  0  0  0  0  0  0  0  0  0  0  0
   18.4170   18.0780   20.7415 H   0  0  0  0  0  0  0  0  0  0  0  0
  1  2  1  0  0  0  0
  1  3  1  0  0  0  0
  1  4  1  0  0  0  0
  1  5  1  0  0  0  0
  5  6  1  0  0  0  0
  5  7  1  0  0  0  0
  5  8  1  0  0  0  0
  8  9  1  0  0  0  0
  8 10  1  0  0  0  0
  8 11  1  0  0  0  0
 11 12  1  0  0  0  0
 11 13  1  0  0  0  0
 11 14  1  0  0  0  0
 14 15  1  0  0  0  0
 14 16  1  0  0  0  0
 14 17  1  0  0  0  0
M  END
> <VConfSearch Rank>
330

> <Conf_Id>
43

> <Delta U+W>
0.642

> <U+W>
-15.222

> <U>
45.697

> <W>
-60.919

> <W(PB)>
-62.631

> <W(SA)>
1.712

> <Valence>
1.262

> <Coulomb>
44.179

> <VdW>
0.255

> <VdW6>
-3.552

> <VdW12>
3.807

> <Bond>
0.125

> <Angle>
0.616

> <Pdih>
0.521

> <Idih>
0.000

> <Tether>
0.000

$$$$
VeraChem MOL file


 17 16  0  0  0  0  0  0  0  0999 V2000     
   20.0013   19.9474   19.1941 N   0  3  0  0  0  0  0  0  0  0  0  0
   19.5382   20.8435   19.3739 H   0  0  0  0  0  0  0  0  0  0  0  0
   19.2938   19.3156   18.8070 H   0  0  0  0  0  0  0  0  0  0  0  0
   20.6886   20.1129   18.4517 H   0  0  0  0  0  0  0  0  0  0  0  0
   20.6464   19.3808   20.4432 C   0  0  0  0  0  0  0  0  0  0  0  0
   21.4076   20.0892   20.7811 H   0  0  0  0  0  0  0  0  0  0  0  0
   21.1448   18.4463   20.1715 H   0  0  0  0  0  0  0  0  0  0  0  0
   19.6415   19.1197   21.5799 C   0  0  0  0  0  0  0  0  0  0  0  0
   19.1319   20.0572   21.8395 H   0  0  0  0  0  0  0  0  0  0  0  0
   18.8701   18.4198   21.2320 H   0  0  0  0  0  0  0  0  0  0  0  0
   20.3388   18.5437   22.8319 C   0  0  0  0  0  0  0  0  0  0  0  0
   21.1134   19.2424   23.1787 H   0  0  0  0  0  0  0  0  0  0  0  0
   20.8519   17.6069   22.5720 H   0  0  0  0  0  0  0  0  0  0  0  0
   19.3369   18.2793   23.9766 C   0  0  0  0  0  0  0  0  0  0  0  0
   19.8517   17.8708   24.8559 H   0  0  0  0  0  0  0  0  0  0  0  0
   18.5690   17.5569   23.6708 H   0  0  0  0  0  0  0  0  0  0  0  0
   18.8325   19.2052   24.2822 H   0  0  0  0  0  0  0  0  0  0  0  0
  1  2  1  0  0  0  0
  1  3  1  0  0  0  0
  1  4  1  0  0  0  0
  1  5  1  0  0  0  0
  5  6  1  0  0  0  0
  5  7  1  0  0  0  0
  5  8  1  0  0  0  0
  8  9  1  0  0  0  0
  8 10  1  0  0  0  0
  8 11  1  0  0  0  0
 11 12  1  0  0  0  0
 11 13  1  0  0  0  0
 11 14  1  0  0  0  0
 14 15  1  0  0  0  0
 14 16  1  0  0  0  0
 14 17  1  0  0  0  0
M  END
> <VConfSearch Rank>
331

> <Conf_Id>
7

> <Delta U+W>
0.000

> <U+W>
-15.865

> <U>
44.664

> <W>
-60.529

> <W(PB)>
-62.309

> <W(SA)>
1.780

> <Valence>
0.872

> <Coulomb>
43.648

> <VdW>
0.144

> <VdW6>
-2.370

> <VdW12>
2.515

> <Bond>
0.080

> <Angle>
0.376

> <Pdih>
0.416

> <Idih>
0.000

> <Tether>
0.000

$$$$
VeraChem MOL file


 17 16  0  0  0  0  0  0  0  0999 V2000     
   20.4834   17.1211   20.3478 N   0  3  0  0  0  0  0  0  0  0  0  0
   20.9904   17.4056   19.5042 H   0  0  0  0  0  0  0  0  0  0  0  0
   19.5334   16.8704   20.0574 H   0  0  0  0  0  0  0  0  0  0  0  0
   20.9274   16.2605   20.6842 H   0  0  0  0  0  0  0  0  0  0  0  0
   20.4857   18.2071   21.4051 C   0  0  0  0  0  0  0  0  0  0  0  0
   21.5239   18.4014   21.6877 H   0  0  0  0  0  0  0  0  0  0  0  0
   19.9577   17.8233   22.2819 H   0  0  0  0  0  0  0  0  0  0  0  0
   19.8247   19.5160   20.9320 C   0  0  0  0  0  0  0  0  0  0  0  0
   20.3369   19.8715   20.0281 H   0  0  0  0  0  0  0  0  0  0  0  0
   18.7824   19.3205   20.6466 H   0  0  0  0  0  0  0  0  0  0  0  0
   19.8684   20.6283   22.0057 C   0  0  0  0  0  0  0  0  0  0  0  0
   19.4558   21.5531   21.5785 H   0  0  0  0  0  0  0  0  0  0  0  0
   20.9127   20.8486   22.2684 H   0  0  0  0  0  0  0  0  0  0  0  0
   19.0769   20.2663   23.2834 C   0  0  0  0  0  0  0  0  0  0  0  0
   18.0299   20.0355   23.0475 H   0  0  0  0  0  0  0  0  0  0  0  0
   19.0834   21.1056   23.9909 H   0  0  0  0  0  0  0  0  0  0  0  0
   19.5123   19.3989   23.7954 H   0  0  0  0  0  0  0  0  0  0  0  0
  1  2  1  0  0  0  0
  1  3  1  0  0  0  0
  1  4  1  0  0  0  0
  1  5  1  0  0  0  0
  5  6  1  0  0  0  0
  5  7  1  0  0  0  0
  5  8  1  0  0  0  0
  8  9  1  0  0  0  0
  8 10  1  0  0  0  0
  8 11  1  0  0  0  0
 11 12  1  0  0  0  0
 11 13  1  0  0  0  0
 11 14  1  0  0  0  0
 14 15  1  0  0  0  0
 14 16  1  0  0  0  0
 14 17  1  0  0  0  0
M  END
> <VConfSearch Rank>
332

> <Conf_Id>
36

> <Delta U+W>
0.275

> <U+W>
-15.590

> <U>
45.174

> <W>
-60.765

> <W(PB)>
-62.518

> <W(SA)>
1.754

> <Valence>
1.161

> <Coulomb>
43.789

> <VdW>
0.224

> <VdW6>
-2.897

> <VdW12>
3.121

> <Bond>
0.100

> <Angle>
0.500

> <Pdih>
0.561

> <Idih>
0.000

> <Tether>
0.000

$$$$
VeraChem MOL file


 17 16  0  0  0  0  0  0  0  0999 V2000     
   18.7236   18.4340   22.8950 N   0  3  0  0  0  0  0  0  0  0  0  0
   18.4749   19.3533   22.5209 H   0  0  0  0  0  0  0  0  0  0  0  0
   19.1812   18.5899   23.7981 H   0  0  0  0  0  0  0  0  0  0  0  0
   17.8471   17.9386   23.0875 H   0  0  0  0  0  0  0  0  0  0  0  0
   19.6113   17.6596   21.9398 C   0  0  0  0  0  0  0  0  0  0  0  0
   19.0488   17.4641   21.0228 H   0  0  0  0  0  0  0  0  0  0  0  0
   19.8293   16.6987   22.4137 H   0  0  0  0  0  0  0  0  0  0  0  0
   20.9408   18.3642   21.5968 C   0  0  0  0  0  0  0  0  0  0  0  0
   21.3899   18.7826   22.5073 H   0  0  0  0  0  0  0  0  0  0  0  0
   21.6426   17.5992   21.2389 H   0  0  0  0  0  0  0  0  0  0  0  0
   20.8262   19.4553   20.5018 C   0  0  0  0  0  0  0  0  0  0  0  0
   20.4347   19.0103   19.5762 H   0  0  0  0  0  0  0  0  0  0  0  0
   21.8375   19.8131   20.2627 H   0  0  0  0  0  0  0  0  0  0  0  0
   19.9554   20.6693   20.8979 C   0  0  0  0  0  0  0  0  0  0  0  0
   18.8928   20.4040   20.9451 H   0  0  0  0  0  0  0  0  0  0  0  0
   20.0551   21.4686   20.1521 H   0  0  0  0  0  0  0  0  0  0  0  0
   20.2620   21.0798   21.8688 H   0  0  0  0  0  0  0  0  0  0  0  0
  1  2  1  0  0  0  0
  1  3  1  0  0  0  0
  1  4  1  0  0  0  0
  1  5  1  0  0  0  0
  5  6  1  0  0  0  0
  5  7  1  0  0  0  0
  5  8  1  0  0  0  0
  8  9  1  0  0  0  0
  8 10  1  0  0  0  0
  8 11  1  0  0  0  0
 11 12  1  0  0  0  0
 11 13  1  0  0  0  0
 11 14  1  0  0  0  0
 14 15  1  0  0  0  0
 14 16  1  0  0  0  0
 14 17  1  0  0  0  0
M  END
> <VConfSearch Rank>
333

> <Conf_Id>
19

> <Delta U+W>
2.662

> <U+W>
-13.203

> <U>
47.423

> <W>
-60.626

> <W(PB)>
-62.328

> <W(SA)>
1.702

> <Valence>
2.414

> <Coulomb>
44.831

> <VdW>
0.178

> <VdW6>
-3.743

> <VdW12>
3.921

> <Bond>
0.138

> <Angle>
0.941

> <Pdih>
1.335

> <Idih>
0.000

> <Tether>
0.000

$$$$
VeraChem MOL file


 17 16  0  0  0  0  0  0  0  0999 V2000     
   18.8544   17.9049   22.6320 N   0  3  0  0  0  0  0  0  0  0  0  0
   17.9626   17.7534   23.1143 H   0  0  0  0  0  0  0  0  0  0  0  0
   19.4890   17.1622   22.9407 H   0  0  0  0  0  0  0  0  0  0  0  0
   18.6858   17.7607   21.6332 H   0  0  0  0  0  0  0  0  0  0  0  0
   19.4210   19.2832   22.9133 C   0  0  0  0  0  0  0  0  0  0  0  0
   19.5720   19.3524   23.9940 H   0  0  0  0  0  0  0  0  0  0  0  0
   18.6760   20.0307   22.6278 H   0  0  0  0  0  0  0  0  0  0  0  0
   20.7569   19.5779   22.1991 C   0  0  0  0  0  0  0  0  0  0  0  0
   21.2546   20.3922   22.7424 H   0  0  0  0  0  0  0  0  0  0  0  0
   21.4250   18.7102   22.2791 H   0  0  0  0  0  0  0  0  0  0  0  0
   20.6119   20.0120   20.7181 C   0  0  0  0  0  0  0  0  0  0  0  0
   21.6047   20.2964   20.3421 H   0  0  0  0  0  0  0  0  0  0  0  0
   19.9931   20.9184   20.6576 H   0  0  0  0  0  0  0  0  0  0  0  0
   20.0260   18.9254   19.7881 C   0  0  0  0  0  0  0  0  0  0  0  0
   20.5654   17.9753   19.8960 H   0  0  0  0  0  0  0  0  0  0  0  0
   20.1085   19.2377   18.7389 H   0  0  0  0  0  0  0  0  0  0  0  0
   18.9623   18.7538   19.9900 H   0  0  0  0  0  0  0  0  0  0  0  0
  1  2  1  0  0  0  0
  1  3  1  0  0  0  0
  1  4  1  0  0  0  0
  1  5  1  0  0  0  0
  5  6  1  0  0  0  0
  5  7  1  0  0  0  0
  5  8  1  0  0  0  0
  8  9  1  0  0  0  0
  8 10  1  0  0  0  0
  8 11  1  0  0  0  0
 11 12  1  0  0  0  0
 11 13  1  0  0  0  0
 11 14  1  0  0  0  0
 14 15  1  0  0  0  0
 14 16  1  0  0  0  0
 14 17  1  0  0  0  0
M  END
> <VConfSearch Rank>
334

> <Conf_Id>
44

> <Delta U+W>
2.712

> <U+W>
-13.153

> <U>
47.423

> <W>
-60.576

> <W(PB)>
-62.262

> <W(SA)>
1.687

> <Valence>
2.414

> <Coulomb>
44.831

> <VdW>
0.178

> <VdW6>
-3.743

> <VdW12>
3.922

> <Bond>
0.138

> <Angle>
0.941

> <Pdih>
1.335

> <Idih>
0.000

> <Tether>
0.000

$$$$
VeraChem MOL file


 17 16  0  0  0  0  0  0  0  0999 V2000     
   20.6364   17.4146   20.7087 N   0  3  0  0  0  0  0  0  0  0  0  0
   19.9112   17.7981   20.0961 H   0  0  0  0  0  0  0  0  0  0  0  0
   20.2587   16.5588   21.1263 H   0  0  0  0  0  0  0  0  0  0  0  0
   21.4175   17.1328   20.1078 H   0  0  0  0  0  0  0  0  0  0  0  0
   21.0683   18.4155   21.7630 C   0  0  0  0  0  0  0  0  0  0  0  0
   21.4864   19.2870   21.2525 H   0  0  0  0  0  0  0  0  0  0  0  0
   21.8655   17.9548   22.3528 H   0  0  0  0  0  0  0  0  0  0  0  0
   19.9291   18.8603   22.7033 C   0  0  0  0  0  0  0  0  0  0  0  0
   19.5432   17.9843   23.2413 H   0  0  0  0  0  0  0  0  0  0  0  0
   20.3458   19.5294   23.4679 H   0  0  0  0  0  0  0  0  0  0  0  0
   18.7602   19.5765   21.9820 C   0  0  0  0  0  0  0  0  0  0  0  0
   17.9950   19.8413   22.7252 H   0  0  0  0  0  0  0  0  0  0  0  0
   18.2731   18.8888   21.2775 H   0  0  0  0  0  0  0  0  0  0  0  0
   19.2020   20.8575   21.2379 C   0  0  0  0  0  0  0  0  0  0  0  0
   19.6915   21.5625   21.9223 H   0  0  0  0  0  0  0  0  0  0  0  0
   18.3342   21.3660   20.7982 H   0  0  0  0  0  0  0  0  0  0  0  0
   19.9005   20.6306   20.4227 H   0  0  0  0  0  0  0  0  0  0  0  0
  1  2  1  0  0  0  0
  1  3  1  0  0  0  0
  1  4  1  0  0  0  0
  1  5  1  0  0  0  0
  5  6  1  0  0  0  0
  5  7  1  0  0  0  0
  5  8  1  0  0  0  0
  8  9  1  0  0  0  0
  8 10  1  0  0  0  0
  8 11  1  0  0  0  0
 11 12  1  0  0  0  0
 11 13  1  0  0  0  0
 11 14  1  0  0  0  0
 14 15  1  0  0  0  0
 14 16  1  0  0  0  0
 14 17  1  0  0  0  0
M  END
> <VConfSearch Rank>
335

> <Conf_Id>
1

> <Delta U+W>
0.685

> <U+W>
-15.179

> <U>
45.697

> <W>
-60.876

> <W(PB)>
-62.586

> <W(SA)>
1.710

> <Valence>
1.263

> <Coulomb>
44.179

> <VdW>
0.255

> <VdW6>
-3.552

> <VdW12>
3.807

> <Bond>
0.125

> <Angle>
0.616

> <Pdih>
0.521

> <Idih>
0.000

> <Tether>
0.000

$$$$
VeraChem MOL file


 17 16  0  0  0  0  0  0  0  0999 V2000     
   19.1622   17.5585   20.5049 N   0  3  0  0  0  0  0  0  0  0  0  0
   18.1474   17.6535   20.4026 H   0  0  0  0  0  0  0  0  0  0  0  0
   19.3380   17.1786   21.4394 H   0  0  0  0  0  0  0  0  0  0  0  0
   19.4640   16.8473   19.8312 H   0  0  0  0  0  0  0  0  0  0  0  0
   19.8785   18.8780   20.2910 C   0  0  0  0  0  0  0  0  0  0  0  0
   19.6779   19.2035   19.2666 H   0  0  0  0  0  0  0  0  0  0  0  0
   20.9529   18.7001   20.3846 H   0  0  0  0  0  0  0  0  0  0  0  0
   19.4473   19.9870   21.2729 C   0  0  0  0  0  0  0  0  0  0  0  0
   19.9665   20.9162   21.0032 H   0  0  0  0  0  0  0  0  0  0  0  0
   18.3755   20.1869   21.1427 H   0  0  0  0  0  0  0  0  0  0  0  0
   19.7320   19.6577   22.7596 C   0  0  0  0  0  0  0  0  0  0  0  0
   19.1469   18.7818   23.0710 H   0  0  0  0  0  0  0  0  0  0  0  0
   19.3803   20.4935   23.3806 H   0  0  0  0  0  0  0  0  0  0  0  0
   21.2306   19.4126   23.0493 C   0  0  0  0  0  0  0  0  0  0  0  0
   21.3934   19.2484   24.1224 H   0  0  0  0  0  0  0  0  0  0  0  0
   21.8373   20.2762   22.7471 H   0  0  0  0  0  0  0  0  0  0  0  0
   21.6052   18.5283   22.5187 H   0  0  0  0  0  0  0  0  0  0  0  0
  1  2  1  0  0  0  0
  1  3  1  0  0  0  0
  1  4  1  0  0  0  0
  1  5  1  0  0  0  0
  5  6  1  0  0  0  0
  5  7  1  0  0  0  0
  5  8  1  0  0  0  0
  8  9  1  0  0  0  0
  8 10  1  0  0  0  0
  8 11  1  0  0  0  0
 11 12  1  0  0  0  0
 11 13  1  0  0  0  0
 11 14  1  0  0  0  0
 14 15  1  0  0  0  0
 14 16  1  0  0  0  0
 14 17  1  0  0  0  0
M  END
> <VConfSearch Rank>
336

> <Conf_Id>
43

> <Delta U+W>
0.642

> <U+W>
-15.222

> <U>
45.697

> <W>
-60.919

> <W(PB)>
-62.631

> <W(SA)>
1.712

> <Valence>
1.262

> <Coulomb>
44.179

> <VdW>
0.255

> <VdW6>
-3.552

> <VdW12>
3.807

> <Bond>
0.125

> <Angle>
0.616

> <Pdih>
0.521

> <Idih>
0.000

> <Tether>
0.000

$$$$
VeraChem MOL file


 17 16  0  0  0  0  0  0  0  0999 V2000     
   19.5977   21.4591   22.4441 N   0  3  0  0  0  0  0  0  0  0  0  0
   20.1980   21.4002   23.2722 H   0  0  0  0  0  0  0  0  0  0  0  0
   18.6313   21.3441   22.7644 H   0  0  0  0  0  0  0  0  0  0  0  0
   19.6793   22.4164   22.0866 H   0  0  0  0  0  0  0  0  0  0  0  0
   19.9744   20.4318   21.3953 C   0  0  0  0  0  0  0  0  0  0  0  0
   21.0016   20.6332   21.0792 H   0  0  0  0  0  0  0  0  0  0  0  0
   19.3169   20.5729   20.5331 H   0  0  0  0  0  0  0  0  0  0  0  0
   19.8630   18.9813   21.8992 C   0  0  0  0  0  0  0  0  0  0  0  0
   20.5128   18.8477   22.7743 H   0  0  0  0  0  0  0  0  0  0  0  0
   18.8339   18.7876   22.2299 H   0  0  0  0  0  0  0  0  0  0  0  0
   20.2552   17.9681   20.8014 C   0  0  0  0  0  0  0  0  0  0  0  0
   21.2841   18.1637   20.4676 H   0  0  0  0  0  0  0  0  0  0  0  0
   19.6072   18.1036   19.9239 H   0  0  0  0  0  0  0  0  0  0  0  0
   20.1459   16.5108   21.2997 C   0  0  0  0  0  0  0  0  0  0  0  0
   20.4286   15.8073   20.5059 H   0  0  0  0  0  0  0  0  0  0  0  0
   19.1193   16.2745   21.6085 H   0  0  0  0  0  0  0  0  0  0  0  0
   20.8094   16.3352   22.1566 H   0  0  0  0  0  0  0  0  0  0  0  0
  1  2  1  0  0  0  0
  1  3  1  0  0  0  0
  1  4  1  0  0  0  0
  1  5  1  0  0  0  0
  5  6  1  0  0  0  0
  5  7  1  0  0  0  0
  5  8  1  0  0  0  0
  8  9  1  0  0  0  0
  8 10  1  0  0  0  0
  8 11  1  0  0  0  0
 11 12  1  0  0  0  0
 11 13  1  0  0  0  0
 11 14  1  0  0  0  0
 14 15  1  0  0  0  0
 14 16  1  0  0  0  0
 14 17  1  0  0  0  0
M  END
> <VConfSearch Rank>
337

> <Conf_Id>
7

> <Delta U+W>
0.000

> <U+W>
-15.865

> <U>
44.664

> <W>
-60.529

> <W(PB)>
-62.309

> <W(SA)>
1.780

> <Valence>
0.872

> <Coulomb>
43.648

> <VdW>
0.144

> <VdW6>
-2.370

> <VdW12>
2.515

> <Bond>
0.080

> <Angle>
0.376

> <Pdih>
0.416

> <Idih>
0.000

> <Tether>
0.000

$$$$
VeraChem MOL file


 17 16  0  0  0  0  0  0  0  0999 V2000     
   21.8145   20.1436   22.7037 N   0  3  0  0  0  0  0  0  0  0  0  0
   21.9396   19.7193   23.6278 H   0  0  0  0  0  0  0  0  0  0  0  0
   21.3960   21.0670   22.8510 H   0  0  0  0  0  0  0  0  0  0  0  0
   22.7522   20.3008   22.3205 H   0  0  0  0  0  0  0  0  0  0  0  0
   20.9703   19.2769   21.7906 C   0  0  0  0  0  0  0  0  0  0  0  0
   21.4890   18.3241   21.6544 H   0  0  0  0  0  0  0  0  0  0  0  0
   20.9068   19.7747   20.8195 H   0  0  0  0  0  0  0  0  0  0  0  0
   19.5527   19.0208   22.3371 C   0  0  0  0  0  0  0  0  0  0  0  0
   19.6281   18.5573   23.3298 H   0  0  0  0  0  0  0  0  0  0  0  0
   19.0324   19.9778   22.4755 H   0  0  0  0  0  0  0  0  0  0  0  0
   18.7150   18.1035   21.4158 C   0  0  0  0  0  0  0  0  0  0  0  0
   17.7501   17.8967   21.8998 H   0  0  0  0  0  0  0  0  0  0  0  0
   19.2182   17.1328   21.3031 H   0  0  0  0  0  0  0  0  0  0  0  0
   18.4577   18.7199   20.0216 C   0  0  0  0  0  0  0  0  0  0  0  0
   17.9604   19.6949   20.1064 H   0  0  0  0  0  0  0  0  0  0  0  0
   17.8102   18.0647   19.4246 H   0  0  0  0  0  0  0  0  0  0  0  0
   19.3921   18.8591   19.4634 H   0  0  0  0  0  0  0  0  0  0  0  0
  1  2  1  0  0  0  0
  1  3  1  0  0  0  0
  1  4  1  0  0  0  0
  1  5  1  0  0  0  0
  5  6  1  0  0  0  0
  5  7  1  0  0  0  0
  5  8  1  0  0  0  0
  8  9  1  0  0  0  0
  8 10  1  0  0  0  0
  8 11  1  0  0  0  0
 11 12  1  0  0  0  0
 11 13  1  0  0  0  0
 11 14  1  0  0  0  0
 14 15  1  0  0  0  0
 14 16  1  0  0  0  0
 14 17  1  0  0  0  0
M  END
> <VConfSearch Rank>
338

> <Conf_Id>
36

> <Delta U+W>
0.275

> <U+W>
-15.590

> <U>
45.174

> <W>
-60.765

> <W(PB)>
-62.518

> <W(SA)>
1.754

> <Valence>
1.161

> <Coulomb>
43.789

> <VdW>
0.224

> <VdW6>
-2.897

> <VdW12>
3.121

> <Bond>
0.100

> <Angle>
0.500

> <Pdih>
0.561

> <Idih>
0.000

> <Tether>
0.000

$$$$
VeraChem MOL file


 17 16  0  0  0  0  0  0  0  0999 V2000     
   20.7258   19.2011   19.9313 N   0  3  0  0  0  0  0  0  0  0  0  0
   21.3556   18.7226   20.5804 H   0  0  0  0  0  0  0  0  0  0  0  0
   21.0279   20.1788   19.8839 H   0  0  0  0  0  0  0  0  0  0  0  0
   20.8834   18.7959   19.0030 H   0  0  0  0  0  0  0  0  0  0  0  0
   19.2766   19.0793   20.3614 C   0  0  0  0  0  0  0  0  0  0  0  0
   18.9910   18.0245   20.3280 H   0  0  0  0  0  0  0  0  0  0  0  0
   18.6771   19.6152   19.6205 H   0  0  0  0  0  0  0  0  0  0  0  0
   18.9796   19.6568   21.7614 C   0  0  0  0  0  0  0  0  0  0  0  0
   19.4828   20.6252   21.8827 H   0  0  0  0  0  0  0  0  0  0  0  0
   17.9033   19.8678   21.8152 H   0  0  0  0  0  0  0  0  0  0  0  0
   19.3391   18.7115   22.9361 C   0  0  0  0  0  0  0  0  0  0  0  0
   18.7807   17.7700   22.8370 H   0  0  0  0  0  0  0  0  0  0  0  0
   18.9919   19.1737   23.8709 H   0  0  0  0  0  0  0  0  0  0  0  0
   20.8479   18.4038   23.0701 C   0  0  0  0  0  0  0  0  0  0  0  0
   21.2008   17.7593   22.2567 H   0  0  0  0  0  0  0  0  0  0  0  0
   21.0460   17.8734   24.0106 H   0  0  0  0  0  0  0  0  0  0  0  0
   21.4437   19.3259   23.0760 H   0  0  0  0  0  0  0  0  0  0  0  0
  1  2  1  0  0  0  0
  1  3  1  0  0  0  0
  1  4  1  0  0  0  0
  1  5  1  0  0  0  0
  5  6  1  0  0  0  0
  5  7  1  0  0  0  0
  5  8  1  0  0  0  0
  8  9  1  0  0  0  0
  8 10  1  0  0  0  0
  8 11  1  0  0  0  0
 11 12  1  0  0  0  0
 11 13  1  0  0  0  0
 11 14  1  0  0  0  0
 14 15  1  0  0  0  0
 14 16  1  0  0  0  0
 14 17  1  0  0  0  0
M  END
> <VConfSearch Rank>
339

> <Conf_Id>
19

> <Delta U+W>
2.662

> <U+W>
-13.203

> <U>
47.423

> <W>
-60.626

> <W(PB)>
-62.328

> <W(SA)>
1.702

> <Valence>
2.414

> <Coulomb>
44.831

> <VdW>
0.178

> <VdW6>
-3.743

> <VdW12>
3.921

> <Bond>
0.138

> <Angle>
0.941

> <Pdih>
1.335

> <Idih>
0.000

> <Tether>
0.000

$$$$
VeraChem MOL file


 17 16  0  0  0  0  0  0  0  0999 V2000     
   18.9411   17.5763   20.9950 N   0  3  0  0  0  0  0  0  0  0  0  0
   18.9982   16.6344   20.5945 H   0  0  0  0  0  0  0  0  0  0  0  0
   17.9617   17.8689   20.9275 H   0  0  0  0  0  0  0  0  0  0  0  0
   19.1630   17.4951   21.9905 H   0  0  0  0  0  0  0  0  0  0  0  0
   19.8690   18.5465   20.2894 C   0  0  0  0  0  0  0  0  0  0  0  0
   19.5638   18.5750   19.2398 H   0  0  0  0  0  0  0  0  0  0  0  0
   20.8869   18.1501   20.3346 H   0  0  0  0  0  0  0  0  0  0  0  0
   19.8410   19.9801   20.8602 C   0  0  0  0  0  0  0  0  0  0  0  0
   20.2206   20.6572   20.0835 H   0  0  0  0  0  0  0  0  0  0  0  0
   18.8043   20.2891   21.0487 H   0  0  0  0  0  0  0  0  0  0  0  0
   20.7037   20.1825   22.1320 C   0  0  0  0  0  0  0  0  0  0  0  0
   20.6962   21.2511   22.3887 H   0  0  0  0  0  0  0  0  0  0  0  0
   21.7507   19.9302   21.9124 H   0  0  0  0  0  0  0  0  0  0  0  0
   20.2271   19.3773   23.3623 C   0  0  0  0  0  0  0  0  0  0  0  0
   19.1573   19.5346   23.5516 H   0  0  0  0  0  0  0  0  0  0  0  0
   20.7741   19.6945   24.2597 H   0  0  0  0  0  0  0  0  0  0  0  0
   20.4105   18.3039   23.2363 H   0  0  0  0  0  0  0  0  0  0  0  0
  1  2  1  0  0  0  0
  1  3  1  0  0  0  0
  1  4  1  0  0  0  0
  1  5  1  0  0  0  0
  5  6  1  0  0  0  0
  5  7  1  0  0  0  0
  5  8  1  0  0  0  0
  8  9  1  0  0  0  0
  8 10  1  0  0  0  0
  8 11  1  0  0  0  0
 11 12  1  0  0  0  0
 11 13  1  0  0  0  0
 11 14  1  0  0  0  0
 14 15  1  0  0  0  0
 14 16  1  0  0  0  0
 14 17  1  0  0  0  0
M  END
> <VConfSearch Rank>
340

> <Conf_Id>
44

> <Delta U+W>
2.712

> <U+W>
-13.153

> <U>
47.423

> <W>
-60.576

> <W(PB)>
-62.262

> <W(SA)>
1.687

> <Valence>
2.414

> <Coulomb>
44.831

> <VdW>
0.178

> <VdW6>
-3.743

> <VdW12>
3.922

> <Bond>
0.138

> <Angle>
0.941

> <Pdih>
1.335

> <Idih>
0.000

> <Tether>
0.000

$$$$
VeraChem MOL file


 17 16  0  0  0  0  0  0  0  0999 V2000     
   20.2763   20.7149   22.6034 N   0  3  0  0  0  0  0  0  0  0  0  0
   19.8360   20.0607   23.2566 H   0  0  0  0  0  0  0  0  0  0  0  0
   19.5842   21.4382   22.3865 H   0  0  0  0  0  0  0  0  0  0  0  0
   21.0393   21.1753   23.1099 H   0  0  0  0  0  0  0  0  0  0  0  0
   20.7718   20.0129   21.3538 C   0  0  0  0  0  0  0  0  0  0  0  0
   21.5246   19.2789   21.6526 H   0  0  0  0  0  0  0  0  0  0  0  0
   21.2606   20.7607   20.7234 H   0  0  0  0  0  0  0  0  0  0  0  0
   19.6565   19.3156   20.5476 C   0  0  0  0  0  0  0  0  0  0  0  0
   18.9269   20.0669   20.2175 H   0  0  0  0  0  0  0  0  0  0  0  0
   20.0952   18.8934   19.6337 H   0  0  0  0  0  0  0  0  0  0  0  0
   18.9237   18.1944   21.3256 C   0  0  0  0  0  0  0  0  0  0  0  0
   18.1424   17.7686   20.6805 H   0  0  0  0  0  0  0  0  0  0  0  0
   18.4018   18.6170   22.1949 H   0  0  0  0  0  0  0  0  0  0  0  0
   19.8678   17.0602   21.7861 C   0  0  0  0  0  0  0  0  0  0  0  0
   20.4012   16.6202   20.9334 H   0  0  0  0  0  0  0  0  0  0  0  0
   19.2978   16.2589   22.2738 H   0  0  0  0  0  0  0  0  0  0  0  0
   20.6125   17.4219   22.5062 H   0  0  0  0  0  0  0  0  0  0  0  0
  1  2  1  0  0  0  0
  1  3  1  0  0  0  0
  1  4  1  0  0  0  0
  1  5  1  0  0  0  0
  5  6  1  0  0  0  0
  5  7  1  0  0  0  0
  5  8  1  0  0  0  0
  8  9  1  0  0  0  0
  8 10  1  0  0  0  0
  8 11  1  0  0  0  0
 11 12  1  0  0  0  0
 11 13  1  0  0  0  0
 11 14  1  0  0  0  0
 14 15  1  0  0  0  0
 14 16  1  0  0  0  0
 14 17  1  0  0  0  0
M  END
> <VConfSearch Rank>
341

> <Conf_Id>
1

> <Delta U+W>
0.685

> <U+W>
-15.179

> <U>
45.697

> <W>
-60.876

> <W(PB)>
-62.586

> <W(SA)>
1.710

> <Valence>
1.263

> <Coulomb>
44.179

> <VdW>
0.255

> <VdW6>
-3.552

> <VdW12>
3.807

> <Bond>
0.125

> <Angle>
0.616

> <Pdih>
0.521

> <Idih>
0.000

> <Tether>
0.000

$$$$
VeraChem MOL file


 17 16  0  0  0  0  0  0  0  0999 V2000     
   19.5807   20.0937   19.9577 N   0  3  0  0  0  0  0  0  0  0  0  0
   19.1146   20.9797   20.1748 H   0  0  0  0  0  0  0  0  0  0  0  0
   18.8680   19.3594   19.9959 H   0  0  0  0  0  0  0  0  0  0  0  0
   19.8961   20.1540   18.9843 H   0  0  0  0  0  0  0  0  0  0  0  0
   20.7296   19.8113   20.9065 C   0  0  0  0  0  0  0  0  0  0  0  0
   21.4654   20.6110   20.7856 H   0  0  0  0  0  0  0  0  0  0  0  0
   21.1984   18.8720   20.6019 H   0  0  0  0  0  0  0  0  0  0  0  0
   20.3072   19.7256   22.3878 C   0  0  0  0  0  0  0  0  0  0  0  0
   21.2066   19.5844   23.0018 H   0  0  0  0  0  0  0  0  0  0  0  0
   19.8749   20.6869   22.6955 H   0  0  0  0  0  0  0  0  0  0  0  0
   19.3000   18.5884   22.6909 C   0  0  0  0  0  0  0  0  0  0  0  0
   18.3583   18.7650   22.1536 H   0  0  0  0  0  0  0  0  0  0  0  0
   19.0482   18.6146   23.7604 H   0  0  0  0  0  0  0  0  0  0  0  0
   19.8458   17.1859   22.3377 C   0  0  0  0  0  0  0  0  0  0  0  0
   19.1275   16.4086   22.6288 H   0  0  0  0  0  0  0  0  0  0  0  0
   20.7879   16.9850   22.8642 H   0  0  0  0  0  0  0  0  0  0  0  0
   20.0268   17.0824   21.2604 H   0  0  0  0  0  0  0  0  0  0  0  0
  1  2  1  0  0  0  0
  1  3  1  0  0  0  0
  1  4  1  0  0  0  0
  1  5  1  0  0  0  0
  5  6  1  0  0  0  0
  5  7  1  0  0  0  0
  5  8  1  0  0  0  0
  8  9  1  0  0  0  0
  8 10  1  0  0  0  0
  8 11  1  0  0  0  0
 11 12  1  0  0  0  0
 11 13  1  0  0  0  0
 11 14  1  0  0  0  0
 14 15  1  0  0  0  0
 14 16  1  0  0  0  0
 14 17  1  0  0  0  0
M  END
> <VConfSearch Rank>
342

> <Conf_Id>
43

> <Delta U+W>
0.642

> <U+W>
-15.222

> <U>
45.697

> <W>
-60.919

> <W(PB)>
-62.631

> <W(SA)>
1.712

> <Valence>
1.262

> <Coulomb>
44.179

> <VdW>
0.255

> <VdW6>
-3.552

> <VdW12>
3.807

> <Bond>
0.125

> <Angle>
0.616

> <Pdih>
0.521

> <Idih>
0.000

> <Tether>
0.000

$$$$
VeraChem MOL file


 17 16  0  0  0  0  0  0  0  0999 V2000     
   20.3844   19.9605   23.9680 N   0  3  0  0  0  0  0  0  0  0  0  0
   20.5154   19.0564   24.4319 H   0  0  0  0  0  0  0  0  0  0  0  0
   19.4273   20.2657   24.1690 H   0  0  0  0  0  0  0  0  0  0  0  0
   21.0112   20.6254   24.4327 H   0  0  0  0  0  0  0  0  0  0  0  0
   20.6535   19.8788   22.4786 C   0  0  0  0  0  0  0  0  0  0  0  0
   21.6958   19.5791   22.3398 H   0  0  0  0  0  0  0  0  0  0  0  0
   20.5258   20.8796   22.0571 H   0  0  0  0  0  0  0  0  0  0  0  0
   19.7287   18.8880   21.7484 C   0  0  0  0  0  0  0  0  0  0  0  0
   19.8482   17.8873   22.1846 H   0  0  0  0  0  0  0  0  0  0  0  0
   18.6823   19.1833   21.9028 H   0  0  0  0  0  0  0  0  0  0  0  0
   20.0358   18.8353   20.2357 C   0  0  0  0  0  0  0  0  0  0  0  0
   21.0840   18.5429   20.0806 H   0  0  0  0  0  0  0  0  0  0  0  0
   19.9194   19.8374   19.7991 H   0  0  0  0  0  0  0  0  0  0  0  0
   19.1119   17.8433   19.4965 C   0  0  0  0  0  0  0  0  0  0  0  0
   19.3459   17.8206   18.4242 H   0  0  0  0  0  0  0  0  0  0  0  0
   18.0575   18.1294   19.6045 H   0  0  0  0  0  0  0  0  0  0  0  0
   19.2313   16.8248   19.8883 H   0  0  0  0  0  0  0  0  0  0  0  0
  1  2  1  0  0  0  0
  1  3  1  0  0  0  0
  1  4  1  0  0  0  0
  1  5  1  0  0  0  0
  5  6  1  0  0  0  0
  5  7  1  0  0  0  0
  5  8  1  0  0  0  0
  8  9  1  0  0  0  0
  8 10  1  0  0  0  0
  8 11  1  0  0  0  0
 11 12  1  0  0  0  0
 11 13  1  0  0  0  0
 11 14  1  0  0  0  0
 14 15  1  0  0  0  0
 14 16  1  0  0  0  0
 14 17  1  0  0  0  0
M  END
> <VConfSearch Rank>
343

> <Conf_Id>
7

> <Delta U+W>
0.000

> <U+W>
-15.865

> <U>
44.664

> <W>
-60.529

> <W(PB)>
-62.309

> <W(SA)>
1.780

> <Valence>
0.872

> <Coulomb>
43.648

> <VdW>
0.144

> <VdW6>
-2.370

> <VdW12>
2.515

> <Bond>
0.080

> <Angle>
0.376

> <Pdih>
0.416

> <Idih>
0.000

> <Tether>
0.000

$$$$
VeraChem MOL file


 17 16  0  0  0  0  0  0  0  0999 V2000     
   20.3239   20.6260   19.7953 N   0  3  0  0  0  0  0  0  0  0  0  0
   19.7503   21.4628   19.9381 H   0  0  0  0  0  0  0  0  0  0  0  0
   19.8769   20.0780   19.0540 H   0  0  0  0  0  0  0  0  0  0  0  0
   21.2255   20.9444   19.4258 H   0  0  0  0  0  0  0  0  0  0  0  0
   20.4887   19.8259   21.0720 C   0  0  0  0  0  0  0  0  0  0  0  0
   20.9965   20.4591   21.8045 H   0  0  0  0  0  0  0  0  0  0  0  0
   21.1337   18.9713   20.8518 H   0  0  0  0  0  0  0  0  0  0  0  0
   19.1511   19.3309   21.6548 C   0  0  0  0  0  0  0  0  0  0  0  0
   18.4959   20.1936   21.8348 H   0  0  0  0  0  0  0  0  0  0  0  0
   18.6403   18.6963   20.9184 H   0  0  0  0  0  0  0  0  0  0  0  0
   19.3295   18.5498   22.9777 C   0  0  0  0  0  0  0  0  0  0  0  0
   18.3382   18.2968   23.3793 H   0  0  0  0  0  0  0  0  0  0  0  0
   19.8106   19.1947   23.7265 H   0  0  0  0  0  0  0  0  0  0  0  0
   20.1504   17.2511   22.8065 C   0  0  0  0  0  0  0  0  0  0  0  0
   19.6936   16.5906   22.0580 H   0  0  0  0  0  0  0  0  0  0  0  0
   20.1998   16.6992   23.7541 H   0  0  0  0  0  0  0  0  0  0  0  0
   21.1805   17.4632   22.4935 H   0  0  0  0  0  0  0  0  0  0  0  0
  1  2  1  0  0  0  0
  1  3  1  0  0  0  0
  1  4  1  0  0  0  0
  1  5  1  0  0  0  0
  5  6  1  0  0  0  0
  5  7  1  0  0  0  0
  5  8  1  0  0  0  0
  8  9  1  0  0  0  0
  8 10  1  0  0  0  0
  8 11  1  0  0  0  0
 11 12  1  0  0  0  0
 11 13  1  0  0  0  0
 11 14  1  0  0  0  0
 14 15  1  0  0  0  0
 14 16  1  0  0  0  0
 14 17  1  0  0  0  0
M  END
> <VConfSearch Rank>
344

> <Conf_Id>
36

> <Delta U+W>
0.275

> <U+W>
-15.590

> <U>
45.174

> <W>
-60.765

> <W(PB)>
-62.518

> <W(SA)>
1.754

> <Valence>
1.161

> <Coulomb>
43.789

> <VdW>
0.224

> <VdW6>
-2.897

> <VdW12>
3.121

> <Bond>
0.100

> <Angle>
0.500

> <Pdih>
0.561

> <Idih>
0.000

> <Tether>
0.000

$$$$
VeraChem MOL file


 17 16  0  0  0  0  0  0  0  0999 V2000     
   18.3674   18.0280   21.3433 N   0  3  0  0  0  0  0  0  0  0  0  0
   18.1719   19.0017   21.5893 H   0  0  0  0  0  0  0  0  0  0  0  0
   18.2338   17.4701   22.1921 H   0  0  0  0  0  0  0  0  0  0  0  0
   17.6459   17.7335   20.6774 H   0  0  0  0  0  0  0  0  0  0  0  0
   19.7629   17.8614   20.7734 C   0  0  0  0  0  0  0  0  0  0  0  0
   19.8257   18.4219   19.8369 H   0  0  0  0  0  0  0  0  0  0  0  0
   19.8889   16.8004   20.5412 H   0  0  0  0  0  0  0  0  0  0  0  0
   20.8940   18.3056   21.7248 C   0  0  0  0  0  0  0  0  0  0  0  0
   20.6955   17.9396   22.7409 H   0  0  0  0  0  0  0  0  0  0  0  0
   21.8183   17.8090   21.4010 H   0  0  0  0  0  0  0  0  0  0  0  0
   21.1552   19.8334   21.7435 C   0  0  0  0  0  0  0  0  0  0  0  0
   21.4146   20.1764   20.7320 H   0  0  0  0  0  0  0  0  0  0  0  0
   22.0406   20.0254   22.3658 H   0  0  0  0  0  0  0  0  0  0  0  0
   19.9793   20.6761   22.2874 C   0  0  0  0  0  0  0  0  0  0  0  0
   19.1343   20.6856   21.5892 H   0  0  0  0  0  0  0  0  0  0  0  0
   20.2920   21.7189   22.4290 H   0  0  0  0  0  0  0  0  0  0  0  0
   19.6331   20.2978   23.2581 H   0  0  0  0  0  0  0  0  0  0  0  0
  1  2  1  0  0  0  0
  1  3  1  0  0  0  0
  1  4  1  0  0  0  0
  1  5  1  0  0  0  0
  5  6  1  0  0  0  0
  5  7  1  0  0  0  0
  5  8  1  0  0  0  0
  8  9  1  0  0  0  0
  8 10  1  0  0  0  0
  8 11  1  0  0  0  0
 11 12  1  0  0  0  0
 11 13  1  0  0  0  0
 11 14  1  0  0  0  0
 14 15  1  0  0  0  0
 14 16  1  0  0  0  0
 14 17  1  0  0  0  0
M  END
> <VConfSearch Rank>
345

> <Conf_Id>
19

> <Delta U+W>
2.662

> <U+W>
-13.203

> <U>
47.423

> <W>
-60.626

> <W(PB)>
-62.328

> <W(SA)>
1.702

> <Valence>
2.414

> <Coulomb>
44.831

> <VdW>
0.178

> <VdW6>
-3.743

> <VdW12>
3.921

> <Bond>
0.138

> <Angle>
0.941

> <Pdih>
1.335

> <Idih>
0.000

> <Tether>
0.000

$$$$
VeraChem MOL file


 17 16  0  0  0  0  0  0  0  0999 V2000     
   21.3862   19.7807   22.4194 N   0  3  0  0  0  0  0  0  0  0  0  0
   21.9191   20.6301   22.6326 H   0  0  0  0  0  0  0  0  0  0  0  0
   21.9887   18.9857   22.6526 H   0  0  0  0  0  0  0  0  0  0  0  0
   20.5906   19.7541   23.0622 H   0  0  0  0  0  0  0  0  0  0  0  0
   20.9398   19.7436   20.9705 C   0  0  0  0  0  0  0  0  0  0  0  0
   21.8441   19.7732   20.3565 H   0  0  0  0  0  0  0  0  0  0  0  0
   20.3600   20.6466   20.7616 H   0  0  0  0  0  0  0  0  0  0  0  0
   20.1160   18.4947   20.5923 C   0  0  0  0  0  0  0  0  0  0  0  0
   20.1748   18.3721   19.5026 H   0  0  0  0  0  0  0  0  0  0  0  0
   20.5778   17.5958   21.0218 H   0  0  0  0  0  0  0  0  0  0  0  0
   18.6179   18.5704   20.9831 C   0  0  0  0  0  0  0  0  0  0  0  0
   18.1091   17.6849   20.5768 H   0  0  0  0  0  0  0  0  0  0  0  0
   18.1522   19.4385   20.4959 H   0  0  0  0  0  0  0  0  0  0  0  0
   18.3570   18.6327   22.5053 C   0  0  0  0  0  0  0  0  0  0  0  0
   18.8886   17.8309   23.0340 H   0  0  0  0  0  0  0  0  0  0  0  0
   17.2854   18.5149   22.7128 H   0  0  0  0  0  0  0  0  0  0  0  0
   18.6620   19.5977   22.9266 H   0  0  0  0  0  0  0  0  0  0  0  0
  1  2  1  0  0  0  0
  1  3  1  0  0  0  0
  1  4  1  0  0  0  0
  1  5  1  0  0  0  0
  5  6  1  0  0  0  0
  5  7  1  0  0  0  0
  5  8  1  0  0  0  0
  8  9  1  0  0  0  0
  8 10  1  0  0  0  0
  8 11  1  0  0  0  0
 11 12  1  0  0  0  0
 11 13  1  0  0  0  0
 11 14  1  0  0  0  0
 14 15  1  0  0  0  0
 14 16  1  0  0  0  0
 14 17  1  0  0  0  0
M  END
> <VConfSearch Rank>
346

> <Conf_Id>
44

> <Delta U+W>
2.712

> <U+W>
-13.153

> <U>
47.423

> <W>
-60.576

> <W(PB)>
-62.262

> <W(SA)>
1.687

> <Valence>
2.414

> <Coulomb>
44.831

> <VdW>
0.178

> <VdW6>
-3.743

> <VdW12>
3.922

> <Bond>
0.138

> <Angle>
0.941

> <Pdih>
1.335

> <Idih>
0.000

> <Tether>
0.000

$$$$
VeraChem MOL file


 17 16  0  0  0  0  0  0  0  0999 V2000     
   18.7401   18.0758   22.8756 N   0  3  0  0  0  0  0  0  0  0  0  0
   18.2973   18.9778   22.6788 H   0  0  0  0  0  0  0  0  0  0  0  0
   19.1055   18.1200   23.8316 H   0  0  0  0  0  0  0  0  0  0  0  0
   17.9963   17.3706   22.8736 H   0  0  0  0  0  0  0  0  0  0  0  0
   19.8270   17.7520   21.8689 C   0  0  0  0  0  0  0  0  0  0  0  0
   19.3662   17.6911   20.8796 H   0  0  0  0  0  0  0  0  0  0  0  0
   20.2270   16.7650   22.1166 H   0  0  0  0  0  0  0  0  0  0  0  0
   20.9786   18.7783   21.8440 C   0  0  0  0  0  0  0  0  0  0  0  0
   21.4610   18.8026   22.8302 H   0  0  0  0  0  0  0  0  0  0  0  0
   21.7441   18.4302   21.1379 H   0  0  0  0  0  0  0  0  0  0  0  0
   20.5377   20.2106   21.4520 C   0  0  0  0  0  0  0  0  0  0  0  0
   21.4166   20.8701   21.4755 H   0  0  0  0  0  0  0  0  0  0  0  0
   19.8397   20.6090   22.2008 H   0  0  0  0  0  0  0  0  0  0  0  0
   19.8931   20.2829   20.0488 C   0  0  0  0  0  0  0  0  0  0  0  0
   20.5730   19.8905   19.2815 H   0  0  0  0  0  0  0  0  0  0  0  0
   19.6569   21.3224   19.7867 H   0  0  0  0  0  0  0  0  0  0  0  0
   18.9585   19.7098   20.0036 H   0  0  0  0  0  0  0  0  0  0  0  0
  1  2  1  0  0  0  0
  1  3  1  0  0  0  0
  1  4  1  0  0  0  0
  1  5  1  0  0  0  0
  5  6  1  0  0  0  0
  5  7  1  0  0  0  0
  5  8  1  0  0  0  0
  8  9  1  0  0  0  0
  8 10  1  0  0  0  0
  8 11  1  0  0  0  0
 11 12  1  0  0  0  0
 11 13  1  0  0  0  0
 11 14  1  0  0  0  0
 14 15  1  0  0  0  0
 14 16  1  0  0  0  0
 14 17  1  0  0  0  0
M  END
> <VConfSearch Rank>
347

> <Conf_Id>
1

> <Delta U+W>
0.685

> <U+W>
-15.179

> <U>
45.697

> <W>
-60.876

> <W(PB)>
-62.586

> <W(SA)>
1.710

> <Valence>
1.263

> <Coulomb>
44.179

> <VdW>
0.255

> <VdW6>
-3.552

> <VdW12>
3.807

> <Bond>
0.125

> <Angle>
0.616

> <Pdih>
0.521

> <Idih>
0.000

> <Tether>
0.000

$$$$
VeraChem MOL file


 17 16  0  0  0  0  0  0  0  0999 V2000     
   17.9609   19.2667   21.4288 N   0  3  0  0  0  0  0  0  0  0  0  0
   17.5642   18.6282   20.7328 H   0  0  0  0  0  0  0  0  0  0  0  0
   18.4023   20.0359   20.9170 H   0  0  0  0  0  0  0  0  0  0  0  0
   17.1733   19.6664   21.9490 H   0  0  0  0  0  0  0  0  0  0  0  0
   18.9440   18.5645   22.3454 C   0  0  0  0  0  0  0  0  0  0  0  0
   18.3985   17.7848   22.8840 H   0  0  0  0  0  0  0  0  0  0  0  0
   19.3045   19.2917   23.0775 H   0  0  0  0  0  0  0  0  0  0  0  0
   20.1419   17.9324   21.6068 C   0  0  0  0  0  0  0  0  0  0  0  0
   20.7611   17.3950   22.3372 H   0  0  0  0  0  0  0  0  0  0  0  0
   19.7723   17.1746   20.9032 H   0  0  0  0  0  0  0  0  0  0  0  0
   21.0231   18.9541   20.8458 C   0  0  0  0  0  0  0  0  0  0  0  0
   20.4404   19.4354   20.0486 H   0  0  0  0  0  0  0  0  0  0  0  0
   21.8369   18.4135   20.3423 H   0  0  0  0  0  0  0  0  0  0  0  0
   21.6332   20.0335   21.7690 C   0  0  0  0  0  0  0  0  0  0  0  0
   22.3001   20.6944   21.2003 H   0  0  0  0  0  0  0  0  0  0  0  0
   22.2223   19.5766   22.5747 H   0  0  0  0  0  0  0  0  0  0  0  0
   20.8569   20.6604   22.2255 H   0  0  0  0  0  0  0  0  0  0  0  0
  1  2  1  0  0  0  0
  1  3  1  0  0  0  0
  1  4  1  0  0  0  0
  1  5  1  0  0  0  0
  5  6  1  0  0  0  0
  5  7  1  0  0  0  0
  5  8  1  0  0  0  0
  8  9  1  0  0  0  0
  8 10  1  0  0  0  0
  8 11  1  0  0  0  0
 11 12  1  0  0  0  0
 11 13  1  0  0  0  0
 11 14  1  0  0  0  0
 14 15  1  0  0  0  0
 14 16  1  0  0  0  0
 14 17  1  0  0  0  0
M  END
> <VConfSearch Rank>
348

> <Conf_Id>
43

> <Delta U+W>
0.642

> <U+W>
-15.222

> <U>
45.697

> <W>
-60.919

> <W(PB)>
-62.631

> <W(SA)>
1.712

> <Valence>
1.262

> <Coulomb>
44.179

> <VdW>
0.255

> <VdW6>
-3.552

> <VdW12>
3.807

> <Bond>
0.125

> <Angle>
0.616

> <Pdih>
0.521

> <Idih>
0.000

> <Tether>
0.000

$$$$
VeraChem MOL file


 17 16  0  0  0  0  0  0  0  0999 V2000     
   18.3709   20.5233   22.9939 N   0  3  0  0  0  0  0  0  0  0  0  0
   17.5950   20.5508   22.3255 H   0  0  0  0  0  0  0  0  0  0  0  0
   18.8835   21.4050   22.8960 H   0  0  0  0  0  0  0  0  0  0  0  0
   17.9550   20.5249   23.9309 H   0  0  0  0  0  0  0  0  0  0  0  0
   19.2655   19.3192   22.7765 C   0  0  0  0  0  0  0  0  0  0  0  0
   18.6626   18.4194   22.9262 H   0  0  0  0  0  0  0  0  0  0  0  0
   20.0482   19.3379   23.5397 H   0  0  0  0  0  0  0  0  0  0  0  0
   19.9075   19.2850   21.3776 C   0  0  0  0  0  0  0  0  0  0  0  0
   19.1187   19.2819   20.6136 H   0  0  0  0  0  0  0  0  0  0  0  0
   20.4996   20.1972   21.2250 H   0  0  0  0  0  0  0  0  0  0  0  0
   20.8095   18.0442   21.1980 C   0  0  0  0  0  0  0  0  0  0  0  0
   20.2181   17.1308   21.3539 H   0  0  0  0  0  0  0  0  0  0  0  0
   21.5974   18.0450   21.9645 H   0  0  0  0  0  0  0  0  0  0  0  0
   21.4570   18.0031   19.7969 C   0  0  0  0  0  0  0  0  0  0  0  0
   22.0932   17.1150   19.6896 H   0  0  0  0  0  0  0  0  0  0  0  0
   22.0834   18.8881   19.6247 H   0  0  0  0  0  0  0  0  0  0  0  0
   20.6932   17.9667   19.0093 H   0  0  0  0  0  0  0  0  0  0  0  0
  1  2  1  0  0  0  0
  1  3  1  0  0  0  0
  1  4  1  0  0  0  0
  1  5  1  0  0  0  0
  5  6  1  0  0  0  0
  5  7  1  0  0  0  0
  5  8  1  0  0  0  0
  8  9  1  0  0  0  0
  8 10  1  0  0  0  0
  8 11  1  0  0  0  0
 11 12  1  0  0  0  0
 11 13  1  0  0  0  0
 11 14  1  0  0  0  0
 14 15  1  0  0  0  0
 14 16  1  0  0  0  0
 14 17  1  0  0  0  0
M  END
> <VConfSearch Rank>
349

> <Conf_Id>
7

> <Delta U+W>
0.000

> <U+W>
-15.865

> <U>
44.664

> <W>
-60.529

> <W(PB)>
-62.309

> <W(SA)>
1.780

> <Valence>
0.872

> <Coulomb>
43.648

> <VdW>
0.144

> <VdW6>
-2.370

> <VdW12>
2.515

> <Bond>
0.080

> <Angle>
0.376

> <Pdih>
0.416

> <Idih>
0.000

> <Tether>
0.000

$$$$
VeraChem MOL file


 17 16  0  0  0  0  0  0  0  0999 V2000     
   21.4105   18.6843   23.4809 N   0  3  0  0  0  0  0  0  0  0  0  0
   21.4018   19.5041   24.0953 H   0  0  0  0  0  0  0  0  0  0  0  0
   22.2943   18.7058   22.9632 H   0  0  0  0  0  0  0  0  0  0  0  0
   21.4428   17.8592   24.0884 H   0  0  0  0  0  0  0  0  0  0  0  0
   20.2108   18.6560   22.5550 C   0  0  0  0  0  0  0  0  0  0  0  0
   19.3093   18.6033   23.1714 H   0  0  0  0  0  0  0  0  0  0  0  0
   20.2704   17.7437   21.9559 H   0  0  0  0  0  0  0  0  0  0  0  0
   20.1318   19.8832   21.6266 C   0  0  0  0  0  0  0  0  0  0  0  0
   20.1128   20.7956   22.2373 H   0  0  0  0  0  0  0  0  0  0  0  0
   21.0380   19.9370   21.0087 H   0  0  0  0  0  0  0  0  0  0  0  0
   18.8828   19.8618   20.7147 C   0  0  0  0  0  0  0  0  0  0  0  0
   18.8447   20.7977   20.1397 H   0  0  0  0  0  0  0  0  0  0  0  0
   17.9737   19.8415   21.3322 H   0  0  0  0  0  0  0  0  0  0  0  0
   18.8711   18.6668   19.7340 C   0  0  0  0  0  0  0  0  0  0  0  0
   19.7731   18.6603   19.1083 H   0  0  0  0  0  0  0  0  0  0  0  0
   18.0013   18.7249   19.0668 H   0  0  0  0  0  0  0  0  0  0  0  0
   18.8161   17.7087   20.2662 H   0  0  0  0  0  0  0  0  0  0  0  0
  1  2  1  0  0  0  0
  1  3  1  0  0  0  0
  1  4  1  0  0  0  0
  1  5  1  0  0  0  0
  5  6  1  0  0  0  0
  5  7  1  0  0  0  0
  5  8  1  0  0  0  0
  8  9  1  0  0  0  0
  8 10  1  0  0  0  0
  8 11  1  0  0  0  0
 11 12  1  0  0  0  0
 11 13  1  0  0  0  0
 11 14  1  0  0  0  0
 14 15  1  0  0  0  0
 14 16  1  0  0  0  0
 14 17  1  0  0  0  0
M  END
> <VConfSearch Rank>
350

> <Conf_Id>
36

> <Delta U+W>
0.275

> <U+W>
-15.590

> <U>
45.174

> <W>
-60.765

> <W(PB)>
-62.518

> <W(SA)>
1.754

> <Valence>
1.161

> <Coulomb>
43.789

> <VdW>
0.224

> <VdW6>
-2.897

> <VdW12>
3.121

> <Bond>
0.100

> <Angle>
0.500

> <Pdih>
0.561

> <Idih>
0.000

> <Tether>
0.000

$$$$
VeraChem MOL file


 17 16  0  0  0  0  0  0  0  0999 V2000     
   20.5445   20.4596   22.5608 N   0  3  0  0  0  0  0  0  0  0  0  0
   19.6135   20.6277   22.1713 H   0  0  0  0  0  0  0  0  0  0  0  0
   21.2163   20.9368   21.9522 H   0  0  0  0  0  0  0  0  0  0  0  0
   20.5813   20.9301   23.4707 H   0  0  0  0  0  0  0  0  0  0  0  0
   20.8453   18.9778   22.6793 C   0  0  0  0  0  0  0  0  0  0  0  0
   20.1425   18.5358   23.3906 H   0  0  0  0  0  0  0  0  0  0  0  0
   21.8512   18.8882   23.0984 H   0  0  0  0  0  0  0  0  0  0  0  0
   20.7876   18.2098   21.3420 C   0  0  0  0  0  0  0  0  0  0  0  0
   21.2931   18.7860   20.5558 H   0  0  0  0  0  0  0  0  0  0  0  0
   21.3703   17.2866   21.4606 H   0  0  0  0  0  0  0  0  0  0  0  0
   19.3587   17.8164   20.8879 C   0  0  0  0  0  0  0  0  0  0  0  0
   18.8869   17.1873   21.6558 H   0  0  0  0  0  0  0  0  0  0  0  0
   19.4417   17.1884   19.9897 H   0  0  0  0  0  0  0  0  0  0  0  0
   18.4375   19.0152   20.5668 C   0  0  0  0  0  0  0  0  0  0  0  0
   18.1526   19.5584   21.4753 H   0  0  0  0  0  0  0  0  0  0  0  0
   17.5093   18.6663   20.0957 H   0  0  0  0  0  0  0  0  0  0  0  0
   18.9208   19.7145   19.8722 H   0  0  0  0  0  0  0  0  0  0  0  0
  1  2  1  0  0  0  0
  1  3  1  0  0  0  0
  1  4  1  0  0  0  0
  1  5  1  0  0  0  0
  5  6  1  0  0  0  0
  5  7  1  0  0  0  0
  5  8  1  0  0  0  0
  8  9  1  0  0  0  0
  8 10  1  0  0  0  0
  8 11  1  0  0  0  0
 11 12  1  0  0  0  0
 11 13  1  0  0  0  0
 11 14  1  0  0  0  0
 14 15  1  0  0  0  0
 14 16  1  0  0  0  0
 14 17  1  0  0  0  0
M  END
> <VConfSearch Rank>
351

> <Conf_Id>
19

> <Delta U+W>
2.662

> <U+W>
-13.203

> <U>
47.423

> <W>
-60.626

> <W(PB)>
-62.328

> <W(SA)>
1.702

> <Valence>
2.414

> <Coulomb>
44.831

> <VdW>
0.178

> <VdW6>
-3.743

> <VdW12>
3.921

> <Bond>
0.138

> <Angle>
0.941

> <Pdih>
1.335

> <Idih>
0.000

> <Tether>
0.000

$$$$
VeraChem MOL file


 17 16  0  0  0  0  0  0  0  0999 V2000     
   18.6106   19.7096   22.7930 N   0  3  0  0  0  0  0  0  0  0  0  0
   18.2679   19.7103   23.7591 H   0  0  0  0  0  0  0  0  0  0  0  0
   17.8890   20.1593   22.2215 H   0  0  0  0  0  0  0  0  0  0  0  0
   19.4361   20.3134   22.7650 H   0  0  0  0  0  0  0  0  0  0  0  0
   18.9225   18.3077   22.3060 C   0  0  0  0  0  0  0  0  0  0  0  0
   17.9935   17.7341   22.3661 H   0  0  0  0  0  0  0  0  0  0  0  0
   19.6445   17.8540   22.9903 H   0  0  0  0  0  0  0  0  0  0  0  0
   19.4606   18.2430   20.8610 C   0  0  0  0  0  0  0  0  0  0  0  0
   19.2912   17.2250   20.4858 H   0  0  0  0  0  0  0  0  0  0  0  0
   18.8728   18.9050   20.2114 H   0  0  0  0  0  0  0  0  0  0  0  0
   20.9725   18.5562   20.7235 C   0  0  0  0  0  0  0  0  0  0  0  0
   21.2690   18.3793   19.6801 H   0  0  0  0  0  0  0  0  0  0  0  0
   21.5535   17.8463   21.3289 H   0  0  0  0  0  0  0  0  0  0  0  0
   21.3633   20.0013   21.1080 C   0  0  0  0  0  0  0  0  0  0  0  0
   20.7338   20.7359   20.5892 H   0  0  0  0  0  0  0  0  0  0  0  0
   22.4062   20.2004   20.8289 H   0  0  0  0  0  0  0  0  0  0  0  0
   21.2824   20.1659   22.1887 H   0  0  0  0  0  0  0  0  0  0  0  0
  1  2  1  0  0  0  0
  1  3  1  0  0  0  0
  1  4  1  0  0  0  0
  1  5  1  0  0  0  0
  5  6  1  0  0  0  0
  5  7  1  0  0  0  0
  5  8  1  0  0  0  0
  8  9  1  0  0  0  0
  8 10  1  0  0  0  0
  8 11  1  0  0  0  0
 11 12  1  0  0  0  0
 11 13  1  0  0  0  0
 11 14  1  0  0  0  0
 14 15  1  0  0  0  0
 14 16  1  0  0  0  0
 14 17  1  0  0  0  0
M  END
> <VConfSearch Rank>
352

> <Conf_Id>
44

> <Delta U+W>
2.712

> <U+W>
-13.153

> <U>
47.423

> <W>
-60.576

> <W(PB)>
-62.262

> <W(SA)>
1.687

> <Valence>
2.414

> <Coulomb>
44.831

> <VdW>
0.178

> <VdW6>
-3.743

> <VdW12>
3.922

> <Bond>
0.138

> <Angle>
0.941

> <Pdih>
1.335

> <Idih>
0.000

> <Tether>
0.000

$$$$
VeraChem MOL file


 17 16  0  0  0  0  0  0  0  0999 V2000     
   18.6919   18.2828   22.9663 N   0  3  0  0  0  0  0  0  0  0  0  0
   18.2582   18.1245   22.0524 H   0  0  0  0  0  0  0  0  0  0  0  0
   18.1523   19.0169   23.4345 H   0  0  0  0  0  0  0  0  0  0  0  0
   18.5623   17.4246   23.5116 H   0  0  0  0  0  0  0  0  0  0  0  0
   20.1569   18.6528   22.8366 C   0  0  0  0  0  0  0  0  0  0  0  0
   20.6766   17.8186   22.3582 H   0  0  0  0  0  0  0  0  0  0  0  0
   20.5616   18.7690   23.8456 H   0  0  0  0  0  0  0  0  0  0  0  0
   20.4035   19.9477   22.0351 C   0  0  0  0  0  0  0  0  0  0  0  0
   19.9116   20.7865   22.5453 H   0  0  0  0  0  0  0  0  0  0  0  0
   21.4788   20.1698   22.0487 H   0  0  0  0  0  0  0  0  0  0  0  0
   19.9156   19.8821   20.5663 C   0  0  0  0  0  0  0  0  0  0  0  0
   20.1190   20.8477   20.0825 H   0  0  0  0  0  0  0  0  0  0  0  0
   18.8254   19.7517   20.5360 H   0  0  0  0  0  0  0  0  0  0  0  0
   20.5972   18.7589   19.7516 C   0  0  0  0  0  0  0  0  0  0  0  0
   21.6894   18.8682   19.7658 H   0  0  0  0  0  0  0  0  0  0  0  0
   20.2713   18.7913   18.7038 H   0  0  0  0  0  0  0  0  0  0  0  0
   20.3472   17.7657   20.1452 H   0  0  0  0  0  0  0  0  0  0  0  0
  1  2  1  0  0  0  0
  1  3  1  0  0  0  0
  1  4  1  0  0  0  0
  1  5  1  0  0  0  0
  5  6  1  0  0  0  0
  5  7  1  0  0  0  0
  5  8  1  0  0  0  0
  8  9  1  0  0  0  0
  8 10  1  0  0  0  0
  8 11  1  0  0  0  0
 11 12  1  0  0  0  0
 11 13  1  0  0  0  0
 11 14  1  0  0  0  0
 14 15  1  0  0  0  0
 14 16  1  0  0  0  0
 14 17  1  0  0  0  0
M  END
> <VConfSearch Rank>
353

> <Conf_Id>
1

> <Delta U+W>
0.685

> <U+W>
-15.179

> <U>
45.697

> <W>
-60.876

> <W(PB)>
-62.586

> <W(SA)>
1.710

> <Valence>
1.263

> <Coulomb>
44.179

> <VdW>
0.255

> <VdW6>
-3.552

> <VdW12>
3.807

> <Bond>
0.125

> <Angle>
0.616

> <Pdih>
0.521

> <Idih>
0.000

> <Tether>
0.000

$$$$
VeraChem MOL file


 17 16  0  0  0  0  0  0  0  0999 V2000     
   20.0652   19.3992   19.6526 N   0  3  0  0  0  0  0  0  0  0  0  0
   21.0418   19.4303   19.3448 H   0  0  0  0  0  0  0  0  0  0  0  0
   19.8648   20.2908   20.1145 H   0  0  0  0  0  0  0  0  0  0  0  0
   19.4875   19.3640   18.8066 H   0  0  0  0  0  0  0  0  0  0  0  0
   19.7977   18.2198   20.5676 C   0  0  0  0  0  0  0  0  0  0  0  0
   19.9954   17.3064   20.0000 H   0  0  0  0  0  0  0  0  0  0  0  0
   18.7374   18.2296   20.8330 H   0  0  0  0  0  0  0  0  0  0  0  0
   20.6550   18.2197   21.8502 C   0  0  0  0  0  0  0  0  0  0  0  0
   20.4415   17.3027   22.4153 H   0  0  0  0  0  0  0  0  0  0  0  0
   21.7165   18.1684   21.5742 H   0  0  0  0  0  0  0  0  0  0  0  0
   20.4204   19.4477   22.7649 C   0  0  0  0  0  0  0  0  0  0  0  0
   20.7171   20.3684   22.2444 H   0  0  0  0  0  0  0  0  0  0  0  0
   21.0804   19.3681   23.6401 H   0  0  0  0  0  0  0  0  0  0  0  0
   18.9574   19.5716   23.2488 C   0  0  0  0  0  0  0  0  0  0  0  0
   18.8520   20.4145   23.9441 H   0  0  0  0  0  0  0  0  0  0  0  0
   18.6372   18.6624   23.7741 H   0  0  0  0  0  0  0  0  0  0  0  0
   18.2686   19.7445   22.4125 H   0  0  0  0  0  0  0  0  0  0  0  0
  1  2  1  0  0  0  0
  1  3  1  0  0  0  0
  1  4  1  0  0  0  0
  1  5  1  0  0  0  0
  5  6  1  0  0  0  0
  5  7  1  0  0  0  0
  5  8  1  0  0  0  0
  8  9  1  0  0  0  0
  8 10  1  0  0  0  0
  8 11  1  0  0  0  0
 11 12  1  0  0  0  0
 11 13  1  0  0  0  0
 11 14  1  0  0  0  0
 14 15  1  0  0  0  0
 14 16  1  0  0  0  0
 14 17  1  0  0  0  0
M  END
> <VConfSearch Rank>
354

> <Conf_Id>
43

> <Delta U+W>
0.642

> <U+W>
-15.222

> <U>
45.697

> <W>
-60.919

> <W(PB)>
-62.631

> <W(SA)>
1.712

> <Valence>
1.262

> <Coulomb>
44.179

> <VdW>
0.255

> <VdW6>
-3.552

> <VdW12>
3.807

> <Bond>
0.125

> <Angle>
0.616

> <Pdih>
0.521

> <Idih>
0.000

> <Tether>
0.000

$$$$
VeraChem MOL file


 17 16  0  0  0  0  0  0  0  0999 V2000     
   22.1966   17.9235   22.1273 N   0  3  0  0  0  0  0  0  0  0  0  0
   21.8716   17.3440   22.9071 H   0  0  0  0  0  0  0  0  0  0  0  0
   22.6670   18.7381   22.5335 H   0  0  0  0  0  0  0  0  0  0  0  0
   22.9144   17.3820   21.6348 H   0  0  0  0  0  0  0  0  0  0  0  0
   21.0618   18.3241   21.2058 C   0  0  0  0  0  0  0  0  0  0  0  0
   20.6288   17.4115   20.7871 H   0  0  0  0  0  0  0  0  0  0  0  0
   21.4841   18.9105   20.3853 H   0  0  0  0  0  0  0  0  0  0  0  0
   19.9646   19.1398   21.9136 C   0  0  0  0  0  0  0  0  0  0  0  0
   19.5536   18.5539   22.7465 H   0  0  0  0  0  0  0  0  0  0  0  0
   20.4060   20.0478   22.3459 H   0  0  0  0  0  0  0  0  0  0  0  0
   18.8291   19.5268   20.9407 C   0  0  0  0  0  0  0  0  0  0  0  0
   18.3892   18.6185   20.5052 H   0  0  0  0  0  0  0  0  0  0  0  0
   19.2404   20.1106   20.1051 H   0  0  0  0  0  0  0  0  0  0  0  0
   17.7248   20.3453   21.6438 C   0  0  0  0  0  0  0  0  0  0  0  0
   16.9283   20.6100   20.9363 H   0  0  0  0  0  0  0  0  0  0  0  0
   18.1281   21.2776   22.0602 H   0  0  0  0  0  0  0  0  0  0  0  0
   17.2702   19.7737   22.4635 H   0  0  0  0  0  0  0  0  0  0  0  0
  1  2  1  0  0  0  0
  1  3  1  0  0  0  0
  1  4  1  0  0  0  0
  1  5  1  0  0  0  0
  5  6  1  0  0  0  0
  5  7  1  0  0  0  0
  5  8  1  0  0  0  0
  8  9  1  0  0  0  0
  8 10  1  0  0  0  0
  8 11  1  0  0  0  0
 11 12  1  0  0  0  0
 11 13  1  0  0  0  0
 11 14  1  0  0  0  0
 14 15  1  0  0  0  0
 14 16  1  0  0  0  0
 14 17  1  0  0  0  0
M  END
> <VConfSearch Rank>
355

> <Conf_Id>
7

> <Delta U+W>
0.000

> <U+W>
-15.865

> <U>
44.664

> <W>
-60.529

> <W(PB)>
-62.309

> <W(SA)>
1.780

> <Valence>
0.872

> <Coulomb>
43.648

> <VdW>
0.144

> <VdW6>
-2.370

> <VdW12>
2.515

> <Bond>
0.080

> <Angle>
0.376

> <Pdih>
0.416

> <Idih>
0.000

> <Tether>
0.000

$$$$
VeraChem MOL file


 17 16  0  0  0  0  0  0  0  0999 V2000     
   22.1418   19.9979   21.2799 N   0  3  0  0  0  0  0  0  0  0  0  0
   22.8170   19.4066   21.7740 H   0  0  0  0  0  0  0  0  0  0  0  0
   22.0307   20.8536   21.8323 H   0  0  0  0  0  0  0  0  0  0  0  0
   22.5800   20.2715   20.3945 H   0  0  0  0  0  0  0  0  0  0  0  0
   20.8204   19.2889   21.0595 C   0  0  0  0  0  0  0  0  0  0  0  0
   21.0090   18.4070   20.4413 H   0  0  0  0  0  0  0  0  0  0  0  0
   20.1656   19.9643   20.5029 H   0  0  0  0  0  0  0  0  0  0  0  0
   20.1338   18.8636   22.3717 C   0  0  0  0  0  0  0  0  0  0  0  0
   20.8153   18.2181   22.9416 H   0  0  0  0  0  0  0  0  0  0  0  0
   19.9459   19.7491   22.9933 H   0  0  0  0  0  0  0  0  0  0  0  0
   18.8064   18.1069   22.1322 C   0  0  0  0  0  0  0  0  0  0  0  0
   18.4118   17.7636   23.0989 H   0  0  0  0  0  0  0  0  0  0  0  0
   18.9978   17.2022   21.5381 H   0  0  0  0  0  0  0  0  0  0  0  0
   17.7356   18.9726   21.4295 C   0  0  0  0  0  0  0  0  0  0  0  0
   17.5299   19.8873   22.0006 H   0  0  0  0  0  0  0  0  0  0  0  0
   16.7932   18.4178   21.3353 H   0  0  0  0  0  0  0  0  0  0  0  0
   18.0508   19.2628   20.4193 H   0  0  0  0  0  0  0  0  0  0  0  0
  1  2  1  0  0  0  0
  1  3  1  0  0  0  0
  1  4  1  0  0  0  0
  1  5  1  0  0  0  0
  5  6  1  0  0  0  0
  5  7  1  0  0  0  0
  5  8  1  0  0  0  0
  8  9  1  0  0  0  0
  8 10  1  0  0  0  0
  8 11  1  0  0  0  0
 11 12  1  0  0  0  0
 11 13  1  0  0  0  0
 11 14  1  0  0  0  0
 14 15  1  0  0  0  0
 14 16  1  0  0  0  0
 14 17  1  0  0  0  0
M  END
> <VConfSearch Rank>
356

> <Conf_Id>
36

> <Delta U+W>
0.275

> <U+W>
-15.590

> <U>
45.174

> <W>
-60.765

> <W(PB)>
-62.518

> <W(SA)>
1.754

> <Valence>
1.161

> <Coulomb>
43.789

> <VdW>
0.224

> <VdW6>
-2.897

> <VdW12>
3.121

> <Bond>
0.100

> <Angle>
0.500

> <Pdih>
0.561

> <Idih>
0.000

> <Tether>
0.000

$$$$
VeraChem MOL file


 17 16  0  0  0  0  0  0  0  0999 V2000     
   21.3473   19.3005   22.7728 N   0  3  0  0  0  0  0  0  0  0  0  0
   20.5619   18.8496   23.2487 H   0  0  0  0  0  0  0  0  0  0  0  0
   21.3071   20.2978   23.0036 H   0  0  0  0  0  0  0  0  0  0  0  0
   22.2071   18.9327   23.1928 H   0  0  0  0  0  0  0  0  0  0  0  0
   21.3064   19.0668   21.2749 C   0  0  0  0  0  0  0  0  0  0  0  0
   21.4211   17.9960   21.0864 H   0  0  0  0  0  0  0  0  0  0  0  0
   22.1722   19.5797   20.8474 H   0  0  0  0  0  0  0  0  0  0  0  0
   20.0254   19.5840   20.5869 C   0  0  0  0  0  0  0  0  0  0  0  0
   19.7704   20.5813   20.9689 H   0  0  0  0  0  0  0  0  0  0  0  0
   20.2492   19.7182   19.5202 H   0  0  0  0  0  0  0  0  0  0  0  0
   18.8057   18.6344   20.7021 C   0  0  0  0  0  0  0  0  0  0  0  0
   19.0533   17.6594   20.2592 H   0  0  0  0  0  0  0  0  0  0  0  0
   17.9882   19.0457   20.0935 H   0  0  0  0  0  0  0  0  0  0  0  0
   18.2900   18.4287   22.1445 C   0  0  0  0  0  0  0  0  0  0  0  0
   18.9903   17.8326   22.7411 H   0  0  0  0  0  0  0  0  0  0  0  0
   17.3347   17.8879   22.1336 H   0  0  0  0  0  0  0  0  0  0  0  0
   18.1229   19.3894   22.6489 H   0  0  0  0  0  0  0  0  0  0  0  0
  1  2  1  0  0  0  0
  1  3  1  0  0  0  0
  1  4  1  0  0  0  0
  1  5  1  0  0  0  0
  5  6  1  0  0  0  0
  5  7  1  0  0  0  0
  5  8  1  0  0  0  0
  8  9  1  0  0  0  0
  8 10  1  0  0  0  0
  8 11  1  0  0  0  0
 11 12  1  0  0  0  0
 11 13  1  0  0  0  0
 11 14  1  0  0  0  0
 14 15  1  0  0  0  0
 14 16  1  0  0  0  0
 14 17  1  0  0  0  0
M  END
> <VConfSearch Rank>
357

> <Conf_Id>
19

> <Delta U+W>
2.662

> <U+W>
-13.203

> <U>
47.423

> <W>
-60.626

> <W(PB)>
-62.328

> <W(SA)>
1.702

> <Valence>
2.414

> <Coulomb>
44.831

> <VdW>
0.178

> <VdW6>
-3.743

> <VdW12>
3.921

> <Bond>
0.138

> <Angle>
0.941

> <Pdih>
1.335

> <Idih>
0.000

> <Tether>
0.000

$$$$
VeraChem MOL file


 17 16  0  0  0  0  0  0  0  0999 V2000     
   19.6267   17.2926   22.1118 N   0  3  0  0  0  0  0  0  0  0  0  0
   19.0474   16.4518   22.0207 H   0  0  0  0  0  0  0  0  0  0  0  0
   20.2635   17.1310   22.8978 H   0  0  0  0  0  0  0  0  0  0  0  0
   20.2011   17.3565   21.2674 H   0  0  0  0  0  0  0  0  0  0  0  0
   18.7855   18.5380   22.3151 C   0  0  0  0  0  0  0  0  0  0  0  0
   18.2091   18.3885   23.2321 H   0  0  0  0  0  0  0  0  0  0  0  0
   18.0809   18.6218   21.4832 H   0  0  0  0  0  0  0  0  0  0  0  0
   19.6019   19.8415   22.4413 C   0  0  0  0  0  0  0  0  0  0  0  0
   18.9720   20.5833   22.9500 H   0  0  0  0  0  0  0  0  0  0  0  0
   20.4673   19.6805   23.0977 H   0  0  0  0  0  0  0  0  0  0  0  0
   20.0561   20.4489   21.0895 C   0  0  0  0  0  0  0  0  0  0  0  0
   20.5321   21.4194   21.2887 H   0  0  0  0  0  0  0  0  0  0  0  0
   19.1763   20.6642   20.4668 H   0  0  0  0  0  0  0  0  0  0  0  0
   21.0470   19.5688   20.2942 C   0  0  0  0  0  0  0  0  0  0  0  0
   21.8936   19.2568   20.9195 H   0  0  0  0  0  0  0  0  0  0  0  0
   21.4519   20.1278   19.4406 H   0  0  0  0  0  0  0  0  0  0  0  0
   20.5568   18.6754   19.8902 H   0  0  0  0  0  0  0  0  0  0  0  0
  1  2  1  0  0  0  0
  1  3  1  0  0  0  0
  1  4  1  0  0  0  0
  1  5  1  0  0  0  0
  5  6  1  0  0  0  0
  5  7  1  0  0  0  0
  5  8  1  0  0  0  0
  8  9  1  0  0  0  0
  8 10  1  0  0  0  0
  8 11  1  0  0  0  0
 11 12  1  0  0  0  0
 11 13  1  0  0  0  0
 11 14  1  0  0  0  0
 14 15  1  0  0  0  0
 14 16  1  0  0  0  0
 14 17  1  0  0  0  0
M  END
> <VConfSearch Rank>
358

> <Conf_Id>
44

> <Delta U+W>
2.712

> <U+W>
-13.153

> <U>
47.423

> <W>
-60.576

> <W(PB)>
-62.262

> <W(SA)>
1.687

> <Valence>
2.414

> <Coulomb>
44.831

> <VdW>
0.178

> <VdW6>
-3.743

> <VdW12>
3.922

> <Bond>
0.138

> <Angle>
0.941

> <Pdih>
1.335

> <Idih>
0.000

> <Tether>
0.000

$$$$
VeraChem MOL file


 17 16  0  0  0  0  0  0  0  0999 V2000     
   19.8664   17.5749   22.9409 N   0  3  0  0  0  0  0  0  0  0  0  0
   18.9025   17.7394   22.6372 H   0  0  0  0  0  0  0  0  0  0  0  0
   19.9490   17.9368   23.8957 H   0  0  0  0  0  0  0  0  0  0  0  0
   19.9937   16.5593   22.9955 H   0  0  0  0  0  0  0  0  0  0  0  0
   20.8687   18.2194   22.0029 C   0  0  0  0  0  0  0  0  0  0  0  0
   20.7467   17.7692   21.0143 H   0  0  0  0  0  0  0  0  0  0  0  0
   21.8704   17.9725   22.3653 H   0  0  0  0  0  0  0  0  0  0  0  0
   20.7271   19.7520   21.8977 C   0  0  0  0  0  0  0  0  0  0  0  0
   20.8914   20.1979   22.8875 H   0  0  0  0  0  0  0  0  0  0  0  0
   21.5289   20.1354   21.2528 H   0  0  0  0  0  0  0  0  0  0  0  0
   19.3590   20.2216   21.3431 C   0  0  0  0  0  0  0  0  0  0  0  0
   19.3457   21.3203   21.3182 H   0  0  0  0  0  0  0  0  0  0  0  0
   18.5523   19.9242   22.0266 H   0  0  0  0  0  0  0  0  0  0  0  0
   19.0640   19.6836   19.9241 C   0  0  0  0  0  0  0  0  0  0  0  0
   19.8571   19.9693   19.2210 H   0  0  0  0  0  0  0  0  0  0  0  0
   18.1183   20.0931   19.5461 H   0  0  0  0  0  0  0  0  0  0  0  0
   18.9773   18.5898   19.9167 H   0  0  0  0  0  0  0  0  0  0  0  0
  1  2  1  0  0  0  0
  1  3  1  0  0  0  0
  1  4  1  0  0  0  0
  1  5  1  0  0  0  0
  5  6  1  0  0  0  0
  5  7  1  0  0  0  0
  5  8  1  0  0  0  0
  8  9  1  0  0  0  0
  8 10  1  0  0  0  0
  8 11  1  0  0  0  0
 11 12  1  0  0  0  0
 11 13  1  0  0  0  0
 11 14  1  0  0  0  0
 14 15  1  0  0  0  0
 14 16  1  0  0  0  0
 14 17  1  0  0  0  0
M  END
> <VConfSearch Rank>
359

> <Conf_Id>
1

> <Delta U+W>
0.685

> <U+W>
-15.179

> <U>
45.697

> <W>
-60.876

> <W(PB)>
-62.586

> <W(SA)>
1.710

> <Valence>
1.263

> <Coulomb>
44.179

> <VdW>
0.255

> <VdW6>
-3.552

> <VdW12>
3.807

> <Bond>
0.125

> <Angle>
0.616

> <Pdih>
0.521

> <Idih>
0.000

> <Tether>
0.000

$$$$
VeraChem MOL file


 17 16  0  0  0  0  0  0  0  0999 V2000     
   18.6282   19.4695   23.0376 N   0  3  0  0  0  0  0  0  0  0  0  0
   18.5284   20.4820   23.1574 H   0  0  0  0  0  0  0  0  0  0  0  0
   19.5026   19.1954   23.4945 H   0  0  0  0  0  0  0  0  0  0  0  0
   17.8655   19.0310   23.5636 H   0  0  0  0  0  0  0  0  0  0  0  0
   18.6085   19.0682   21.5753 C   0  0  0  0  0  0  0  0  0  0  0  0
   17.6372   19.3563   21.1640 H   0  0  0  0  0  0  0  0  0  0  0  0
   18.6887   17.9794   21.5210 H   0  0  0  0  0  0  0  0  0  0  0  0
   19.7304   19.7150   20.7368 C   0  0  0  0  0  0  0  0  0  0  0  0
   19.5988   19.4203   19.6872 H   0  0  0  0  0  0  0  0  0  0  0  0
   19.6170   20.8068   20.7643 H   0  0  0  0  0  0  0  0  0  0  0  0
   21.1598   19.3349   21.1970 C   0  0  0  0  0  0  0  0  0  0  0  0
   21.3394   19.7048   22.2156 H   0  0  0  0  0  0  0  0  0  0  0  0
   21.8872   19.8507   20.5546 H   0  0  0  0  0  0  0  0  0  0  0  0
   21.4298   17.8138   21.1404 C   0  0  0  0  0  0  0  0  0  0  0  0
   22.4713   17.5972   21.4112 H   0  0  0  0  0  0  0  0  0  0  0  0
   21.2579   17.4199   20.1303 H   0  0  0  0  0  0  0  0  0  0  0  0
   20.7854   17.2629   21.8370 H   0  0  0  0  0  0  0  0  0  0  0  0
  1  2  1  0  0  0  0
  1  3  1  0  0  0  0
  1  4  1  0  0  0  0
  1  5  1  0  0  0  0
  5  6  1  0  0  0  0
  5  7  1  0  0  0  0
  5  8  1  0  0  0  0
  8  9  1  0  0  0  0
  8 10  1  0  0  0  0
  8 11  1  0  0  0  0
 11 12  1  0  0  0  0
 11 13  1  0  0  0  0
 11 14  1  0  0  0  0
 14 15  1  0  0  0  0
 14 16  1  0  0  0  0
 14 17  1  0  0  0  0
M  END
> <VConfSearch Rank>
360

> <Conf_Id>
43

> <Delta U+W>
0.642

> <U+W>
-15.222

> <U>
45.697

> <W>
-60.919

> <W(PB)>
-62.631

> <W(SA)>
1.712

> <Valence>
1.262

> <Coulomb>
44.179

> <VdW>
0.255

> <VdW6>
-3.552

> <VdW12>
3.807

> <Bond>
0.125

> <Angle>
0.616

> <Pdih>
0.521

> <Idih>
0.000

> <Tether>
0.000

$$$$
VeraChem MOL file


 17 16  0  0  0  0  0  0  0  0999 V2000     
   17.4101   19.3020   21.8172 N   0  3  0  0  0  0  0  0  0  0  0  0
   17.1953   19.3378   20.8160 H   0  0  0  0  0  0  0  0  0  0  0  0
   17.3968   20.2666   22.1623 H   0  0  0  0  0  0  0  0  0  0  0  0
   16.6302   18.8146   22.2702 H   0  0  0  0  0  0  0  0  0  0  0  0
   18.7357   18.6196   22.0897 C   0  0  0  0  0  0  0  0  0  0  0  0
   18.6672   17.5911   21.7250 H   0  0  0  0  0  0  0  0  0  0  0  0
   18.8837   18.5898   23.1726 H   0  0  0  0  0  0  0  0  0  0  0  0
   19.9302   19.3263   21.4234 C   0  0  0  0  0  0  0  0  0  0  0  0
   19.7707   19.3681   20.3377 H   0  0  0  0  0  0  0  0  0  0  0  0
   19.9867   20.3633   21.7805 H   0  0  0  0  0  0  0  0  0  0  0  0
   21.2593   18.5999   21.7256 C   0  0  0  0  0  0  0  0  0  0  0  0
   21.2022   17.5608   21.3715 H   0  0  0  0  0  0  0  0  0  0  0  0
   21.4179   18.5549   22.8125 H   0  0  0  0  0  0  0  0  0  0  0  0
   22.4621   19.3032   21.0604 C   0  0  0  0  0  0  0  0  0  0  0  0
   23.3958   18.7721   21.2870 H   0  0  0  0  0  0  0  0  0  0  0  0
   22.5660   20.3348   21.4213 H   0  0  0  0  0  0  0  0  0  0  0  0
   22.3486   19.3329   19.9689 H   0  0  0  0  0  0  0  0  0  0  0  0
  1  2  1  0  0  0  0
  1  3  1  0  0  0  0
  1  4  1  0  0  0  0
  1  5  1  0  0  0  0
  5  6  1  0  0  0  0
  5  7  1  0  0  0  0
  5  8  1  0  0  0  0
  8  9  1  0  0  0  0
  8 10  1  0  0  0  0
  8 11  1  0  0  0  0
 11 12  1  0  0  0  0
 11 13  1  0  0  0  0
 11 14  1  0  0  0  0
 14 15  1  0  0  0  0
 14 16  1  0  0  0  0
 14 17  1  0  0  0  0
M  END
> <VConfSearch Rank>
361

> <Conf_Id>
7

> <Delta U+W>
0.000

> <U+W>
-15.865

> <U>
44.664

> <W>
-60.529

> <W(PB)>
-62.309

> <W(SA)>
1.780

> <Valence>
0.872

> <Coulomb>
43.648

> <VdW>
0.144

> <VdW6>
-2.370

> <VdW12>
2.515

> <Bond>
0.080

> <Angle>
0.376

> <Pdih>
0.416

> <Idih>
0.000

> <Tether>
0.000

$$$$
VeraChem MOL file


 17 16  0  0  0  0  0  0  0  0999 V2000     
   19.1368   21.3732   21.7458 N   0  3  0  0  0  0  0  0  0  0  0  0
   18.1175   21.3726   21.6418 H   0  0  0  0  0  0  0  0  0  0  0  0
   19.5292   21.7067   20.8601 H   0  0  0  0  0  0  0  0  0  0  0  0
   19.3619   22.0790   22.4542 H   0  0  0  0  0  0  0  0  0  0  0  0
   19.6697   20.0054   22.1234 C   0  0  0  0  0  0  0  0  0  0  0  0
   19.2347   19.7276   23.0873 H   0  0  0  0  0  0  0  0  0  0  0  0
   20.7525   20.0894   22.2473 H   0  0  0  0  0  0  0  0  0  0  0  0
   19.3487   18.9195   21.0786 C   0  0  0  0  0  0  0  0  0  0  0  0
   18.2615   18.8710   20.9324 H   0  0  0  0  0  0  0  0  0  0  0  0
   19.7842   19.1994   20.1102 H   0  0  0  0  0  0  0  0  0  0  0  0
   19.8634   17.5214   21.4940 C   0  0  0  0  0  0  0  0  0  0  0  0
   19.5333   16.7837   20.7492 H   0  0  0  0  0  0  0  0  0  0  0  0
   19.4027   17.2253   22.4470 H   0  0  0  0  0  0  0  0  0  0  0  0
   21.4029   17.4570   21.6194 C   0  0  0  0  0  0  0  0  0  0  0  0
   21.8885   17.7544   20.6808 H   0  0  0  0  0  0  0  0  0  0  0  0
   21.7275   16.4351   21.8549 H   0  0  0  0  0  0  0  0  0  0  0  0
   21.7704   18.1130   22.4185 H   0  0  0  0  0  0  0  0  0  0  0  0
  1  2  1  0  0  0  0
  1  3  1  0  0  0  0
  1  4  1  0  0  0  0
  1  5  1  0  0  0  0
  5  6  1  0  0  0  0
  5  7  1  0  0  0  0
  5  8  1  0  0  0  0
  8  9  1  0  0  0  0
  8 10  1  0  0  0  0
  8 11  1  0  0  0  0
 11 12  1  0  0  0  0
 11 13  1  0  0  0  0
 11 14  1  0  0  0  0
 14 15  1  0  0  0  0
 14 16  1  0  0  0  0
 14 17  1  0  0  0  0
M  END
> <VConfSearch Rank>
362

> <Conf_Id>
36

> <Delta U+W>
0.275

> <U+W>
-15.590

> <U>
45.174

> <W>
-60.765

> <W(PB)>
-62.518

> <W(SA)>
1.754

> <Valence>
1.161

> <Coulomb>
43.789

> <VdW>
0.224

> <VdW6>
-2.897

> <VdW12>
3.121

> <Bond>
0.100

> <Angle>
0.500

> <Pdih>
0.561

> <Idih>
0.000

> <Tether>
0.000

$$$$
VeraChem MOL file


 17 16  0  0  0  0  0  0  0  0999 V2000     
   18.2253   18.8307   22.3056 N   0  3  0  0  0  0  0  0  0  0  0  0
   18.8256   19.3959   22.9114 H   0  0  0  0  0  0  0  0  0  0  0  0
   18.1741   17.8953   22.7201 H   0  0  0  0  0  0  0  0  0  0  0  0
   17.2826   19.2302   22.3561 H   0  0  0  0  0  0  0  0  0  0  0  0
   18.7444   18.7882   20.8812 C   0  0  0  0  0  0  0  0  0  0  0  0
   18.7127   19.8003   20.4688 H   0  0  0  0  0  0  0  0  0  0  0  0
   18.0514   18.1675   20.3067 H   0  0  0  0  0  0  0  0  0  0  0  0
   20.1692   18.2120   20.7421 C   0  0  0  0  0  0  0  0  0  0  0  0
   20.2735   17.3137   21.3650 H   0  0  0  0  0  0  0  0  0  0  0  0
   20.2943   17.8750   19.7045 H   0  0  0  0  0  0  0  0  0  0  0  0
   21.3038   19.2203   21.0558 C   0  0  0  0  0  0  0  0  0  0  0  0
   21.2257   20.0858   20.3828 H   0  0  0  0  0  0  0  0  0  0  0  0
   22.2658   18.7417   20.8246 H   0  0  0  0  0  0  0  0  0  0  0  0
   21.3371   19.7092   22.5217 C   0  0  0  0  0  0  0  0  0  0  0  0
   20.4931   20.3723   22.7439 H   0  0  0  0  0  0  0  0  0  0  0  0
   22.2548   20.2811   22.7113 H   0  0  0  0  0  0  0  0  0  0  0  0
   21.3198   18.8654   23.2237 H   0  0  0  0  0  0  0  0  0  0  0  0
  1  2  1  0  0  0  0
  1  3  1  0  0  0  0
  1  4  1  0  0  0  0
  1  5  1  0  0  0  0
  5  6  1  0  0  0  0
  5  7  1  0  0  0  0
  5  8  1  0  0  0  0
  8  9  1  0  0  0  0
  8 10  1  0  0  0  0
  8 11  1  0  0  0  0
 11 12  1  0  0  0  0
 11 13  1  0  0  0  0
 11 14  1  0  0  0  0
 14 15  1  0  0  0  0
 14 16  1  0  0  0  0
 14 17  1  0  0  0  0
M  END
> <VConfSearch Rank>
363

> <Conf_Id>
19

> <Delta U+W>
2.662

> <U+W>
-13.203

> <U>
47.423

> <W>
-60.626

> <W(PB)>
-62.328

> <W(SA)>
1.702

> <Valence>
2.414

> <Coulomb>
44.831

> <VdW>
0.178

> <VdW6>
-3.743

> <VdW12>
3.921

> <Bond>
0.138

> <Angle>
0.941

> <Pdih>
1.335

> <Idih>
0.000

> <Tether>
0.000

$$$$
VeraChem MOL file


 17 16  0  0  0  0  0  0  0  0999 V2000     
   19.3256   17.5467   20.6771 N   0  3  0  0  0  0  0  0  0  0  0  0
   19.0876   16.5513   20.7337 H   0  0  0  0  0  0  0  0  0  0  0  0
   19.4021   17.7778   19.6820 H   0  0  0  0  0  0  0  0  0  0  0  0
   18.5277   18.0695   21.0469 H   0  0  0  0  0  0  0  0  0  0  0  0
   20.6035   17.8649   21.4293 C   0  0  0  0  0  0  0  0  0  0  0  0
   21.3998   17.2707   20.9726 H   0  0  0  0  0  0  0  0  0  0  0  0
   20.4886   17.5360   22.4656 H   0  0  0  0  0  0  0  0  0  0  0  0
   21.0054   19.3545   21.3956 C   0  0  0  0  0  0  0  0  0  0  0  0
   22.0797   19.4166   21.6144 H   0  0  0  0  0  0  0  0  0  0  0  0
   20.8813   19.7542   20.3805 H   0  0  0  0  0  0  0  0  0  0  0  0
   20.2581   20.2452   22.4208 C   0  0  0  0  0  0  0  0  0  0  0  0
   20.6926   21.2541   22.3842 H   0  0  0  0  0  0  0  0  0  0  0  0
   20.4422   19.8719   23.4381 H   0  0  0  0  0  0  0  0  0  0  0  0
   18.7353   20.3561   22.1807 C   0  0  0  0  0  0  0  0  0  0  0  0
   18.5149   20.6361   21.1424 H   0  0  0  0  0  0  0  0  0  0  0  0
   18.3025   21.1264   22.8322 H   0  0  0  0  0  0  0  0  0  0  0  0
   18.2222   19.4150   22.4104 H   0  0  0  0  0  0  0  0  0  0  0  0
  1  2  1  0  0  0  0
  1  3  1  0  0  0  0
  1  4  1  0  0  0  0
  1  5  1  0  0  0  0
  5  6  1  0  0  0  0
  5  7  1  0  0  0  0
  5  8  1  0  0  0  0
  8  9  1  0  0  0  0
  8 10  1  0  0  0  0
  8 11  1  0  0  0  0
 11 12  1  0  0  0  0
 11 13  1  0  0  0  0
 11 14  1  0  0  0  0
 14 15  1  0  0  0  0
 14 16  1  0  0  0  0
 14 17  1  0  0  0  0
M  END
> <VConfSearch Rank>
364

> <Conf_Id>
44

> <Delta U+W>
2.712

> <U+W>
-13.153

> <U>
47.423

> <W>
-60.576

> <W(PB)>
-62.262

> <W(SA)>
1.687

> <Valence>
2.414

> <Coulomb>
44.831

> <VdW>
0.178

> <VdW6>
-3.743

> <VdW12>
3.922

> <Bond>
0.138

> <Angle>
0.941

> <Pdih>
1.335

> <Idih>
0.000

> <Tether>
0.000

$$$$
VeraChem MOL file


 17 16  0  0  0  0  0  0  0  0999 V2000     
   20.0952   17.0754   21.3540 N   0  3  0  0  0  0  0  0  0  0  0  0
   20.2348   17.5071   20.4361 H   0  0  0  0  0  0  0  0  0  0  0  0
   19.1803   16.6149   21.3362 H   0  0  0  0  0  0  0  0  0  0  0  0
   20.7988   16.3359   21.4470 H   0  0  0  0  0  0  0  0  0  0  0  0
   20.1947   18.0928   22.4743 C   0  0  0  0  0  0  0  0  0  0  0  0
   21.1997   18.5222   22.4545 H   0  0  0  0  0  0  0  0  0  0  0  0
   20.0740   17.5588   23.4207 H   0  0  0  0  0  0  0  0  0  0  0  0
   19.1454   19.2203   22.3866 C   0  0  0  0  0  0  0  0  0  0  0  0
   18.1402   18.7826   22.4482 H   0  0  0  0  0  0  0  0  0  0  0  0
   19.2512   19.8678   23.2671 H   0  0  0  0  0  0  0  0  0  0  0  0
   19.2529   20.0827   21.1044 C   0  0  0  0  0  0  0  0  0  0  0  0
   18.4614   20.8450   21.1233 H   0  0  0  0  0  0  0  0  0  0  0  0
   19.0580   19.4656   20.2168 H   0  0  0  0  0  0  0  0  0  0  0  0
   20.6227   20.7846   20.9599 C   0  0  0  0  0  0  0  0  0  0  0  0
   20.8403   21.4094   21.8358 H   0  0  0  0  0  0  0  0  0  0  0  0
   20.6310   21.4343   20.0751 H   0  0  0  0  0  0  0  0  0  0  0  0
   21.4381   20.0594   20.8454 H   0  0  0  0  0  0  0  0  0  0  0  0
  1  2  1  0  0  0  0
  1  3  1  0  0  0  0
  1  4  1  0  0  0  0
  1  5  1  0  0  0  0
  5  6  1  0  0  0  0
  5  7  1  0  0  0  0
  5  8  1  0  0  0  0
  8  9  1  0  0  0  0
  8 10  1  0  0  0  0
  8 11  1  0  0  0  0
 11 12  1  0  0  0  0
 11 13  1  0  0  0  0
 11 14  1  0  0  0  0
 14 15  1  0  0  0  0
 14 16  1  0  0  0  0
 14 17  1  0  0  0  0
M  END
> <VConfSearch Rank>
365

> <Conf_Id>
1

> <Delta U+W>
0.685

> <U+W>
-15.179

> <U>
45.697

> <W>
-60.876

> <W(PB)>
-62.586

> <W(SA)>
1.710

> <Valence>
1.263

> <Coulomb>
44.179

> <VdW>
0.255

> <VdW6>
-3.552

> <VdW12>
3.807

> <Bond>
0.125

> <Angle>
0.616

> <Pdih>
0.521

> <Idih>
0.000

> <Tether>
0.000

$$$$
VeraChem MOL file


 17 16  0  0  0  0  0  0  0  0999 V2000     
   18.8779   17.8382   20.4045 N   0  3  0  0  0  0  0  0  0  0  0  0
   18.2457   18.3724   19.8009 H   0  0  0  0  0  0  0  0  0  0  0  0
   18.4446   17.7919   21.3311 H   0  0  0  0  0  0  0  0  0  0  0  0
   18.9022   16.8815   20.0374 H   0  0  0  0  0  0  0  0  0  0  0  0
   20.2618   18.4557   20.4617 C   0  0  0  0  0  0  0  0  0  0  0  0
   20.6762   18.4383   19.4500 H   0  0  0  0  0  0  0  0  0  0  0  0
   20.8897   17.8234   21.0948 H   0  0  0  0  0  0  0  0  0  0  0  0
   20.2764   19.9033   20.9947 C   0  0  0  0  0  0  0  0  0  0  0  0
   21.3036   20.2875   20.9397 H   0  0  0  0  0  0  0  0  0  0  0  0
   19.6765   20.5383   20.3294 H   0  0  0  0  0  0  0  0  0  0  0  0
   19.7567   20.0451   22.4471 C   0  0  0  0  0  0  0  0  0  0  0  0
   18.6998   19.7505   22.5004 H   0  0  0  0  0  0  0  0  0  0  0  0
   19.7905   21.1058   22.7330 H   0  0  0  0  0  0  0  0  0  0  0  0
   20.5782   19.2237   23.4670 C   0  0  0  0  0  0  0  0  0  0  0  0
   20.2169   19.4050   24.4876 H   0  0  0  0  0  0  0  0  0  0  0  0
   21.6397   19.5012   23.4336 H   0  0  0  0  0  0  0  0  0  0  0  0
   20.4996   18.1463   23.2749 H   0  0  0  0  0  0  0  0  0  0  0  0
  1  2  1  0  0  0  0
  1  3  1  0  0  0  0
  1  4  1  0  0  0  0
  1  5  1  0  0  0  0
  5  6  1  0  0  0  0
  5  7  1  0  0  0  0
  5  8  1  0  0  0  0
  8  9  1  0  0  0  0
  8 10  1  0  0  0  0
  8 11  1  0  0  0  0
 11 12  1  0  0  0  0
 11 13  1  0  0  0  0
 11 14  1  0  0  0  0
 14 15  1  0  0  0  0
 14 16  1  0  0  0  0
 14 17  1  0  0  0  0
M  END
> <VConfSearch Rank>
366

> <Conf_Id>
43

> <Delta U+W>
0.642

> <U+W>
-15.222

> <U>
45.697

> <W>
-60.919

> <W(PB)>
-62.631

> <W(SA)>
1.712

> <Valence>
1.262

> <Coulomb>
44.179

> <VdW>
0.255

> <VdW6>
-3.552

> <VdW12>
3.807

> <Bond>
0.125

> <Angle>
0.616

> <Pdih>
0.521

> <Idih>
0.000

> <Tether>
0.000

$$$$
VeraChem MOL file


 17 16  0  0  0  0  0  0  0  0999 V2000     
   21.6786   20.1463   20.0390 N   0  3  0  0  0  0  0  0  0  0  0  0
   22.4333   19.4683   20.1821 H   0  0  0  0  0  0  0  0  0  0  0  0
   21.8920   20.9613   20.6221 H   0  0  0  0  0  0  0  0  0  0  0  0
   21.7394   20.4558   19.0636 H   0  0  0  0  0  0  0  0  0  0  0  0
   20.3188   19.5586   20.3601 C   0  0  0  0  0  0  0  0  0  0  0  0
   20.1461   18.7176   19.6831 H   0  0  0  0  0  0  0  0  0  0  0  0
   19.5640   20.3230   20.1562 H   0  0  0  0  0  0  0  0  0  0  0  0
   20.1926   19.0830   21.8189 C   0  0  0  0  0  0  0  0  0  0  0  0
   20.9619   18.3268   22.0245 H   0  0  0  0  0  0  0  0  0  0  0  0
   20.3817   19.9267   22.4959 H   0  0  0  0  0  0  0  0  0  0  0  0
   18.7942   18.4920   22.1035 C   0  0  0  0  0  0  0  0  0  0  0  0
   18.6030   17.6494   21.4238 H   0  0  0  0  0  0  0  0  0  0  0  0
   18.0235   19.2474   21.8948 H   0  0  0  0  0  0  0  0  0  0  0  0
   18.6602   18.0126   23.5650 C   0  0  0  0  0  0  0  0  0  0  0  0
   17.6607   17.5966   23.7466 H   0  0  0  0  0  0  0  0  0  0  0  0
   18.8122   18.8416   24.2685 H   0  0  0  0  0  0  0  0  0  0  0  0
   19.3964   17.2310   23.7939 H   0  0  0  0  0  0  0  0  0  0  0  0
  1  2  1  0  0  0  0
  1  3  1  0  0  0  0
  1  4  1  0  0  0  0
  1  5  1  0  0  0  0
  5  6  1  0  0  0  0
  5  7  1  0  0  0  0
  5  8  1  0  0  0  0
  8  9  1  0  0  0  0
  8 10  1  0  0  0  0
  8 11  1  0  0  0  0
 11 12  1  0  0  0  0
 11 13  1  0  0  0  0
 11 14  1  0  0  0  0
 14 15  1  0  0  0  0
 14 16  1  0  0  0  0
 14 17  1  0  0  0  0
M  END
> <VConfSearch Rank>
367

> <Conf_Id>
7

> <Delta U+W>
0.000

> <U+W>
-15.865

> <U>
44.664

> <W>
-60.529

> <W(PB)>
-62.309

> <W(SA)>
1.780

> <Valence>
0.872

> <Coulomb>
43.648

> <VdW>
0.144

> <VdW6>
-2.370

> <VdW12>
2.515

> <Bond>
0.080

> <Angle>
0.376

> <Pdih>
0.416

> <Idih>
0.000

> <Tether>
0.000

$$$$
VeraChem MOL file


 17 16  0  0  0  0  0  0  0  0999 V2000     
   21.6199   18.1259   20.1970 N   0  3  0  0  0  0  0  0  0  0  0  0
   21.4388   17.1213   20.1095 H   0  0  0  0  0  0  0  0  0  0  0  0
   22.4162   18.2337   20.8325 H   0  0  0  0  0  0  0  0  0  0  0  0
   21.9295   18.4524   19.2759 H   0  0  0  0  0  0  0  0  0  0  0  0
   20.3997   18.8827   20.6824 C   0  0  0  0  0  0  0  0  0  0  0  0
   19.6034   18.7487   19.9452 H   0  0  0  0  0  0  0  0  0  0  0  0
   20.6563   19.9446   20.7208 H   0  0  0  0  0  0  0  0  0  0  0  0
   19.9075   18.4167   22.0661 C   0  0  0  0  0  0  0  0  0  0  0  0
   19.6906   17.3409   22.0273 H   0  0  0  0  0  0  0  0  0  0  0  0
   20.7077   18.5498   22.8062 H   0  0  0  0  0  0  0  0  0  0  0  0
   18.6393   19.1691   22.5326 C   0  0  0  0  0  0  0  0  0  0  0  0
   18.2964   18.7359   23.4827 H   0  0  0  0  0  0  0  0  0  0  0  0
   17.8270   19.0095   21.8095 H   0  0  0  0  0  0  0  0  0  0  0  0
   18.8727   20.6852   22.7250 C   0  0  0  0  0  0  0  0  0  0  0  0
   19.6849   20.8723   23.4395 H   0  0  0  0  0  0  0  0  0  0  0  0
   17.9668   21.1677   23.1142 H   0  0  0  0  0  0  0  0  0  0  0  0
   19.1288   21.1773   21.7783 H   0  0  0  0  0  0  0  0  0  0  0  0
  1  2  1  0  0  0  0
  1  3  1  0  0  0  0
  1  4  1  0  0  0  0
  1  5  1  0  0  0  0
  5  6  1  0  0  0  0
  5  7  1  0  0  0  0
  5  8  1  0  0  0  0
  8  9  1  0  0  0  0
  8 10  1  0  0  0  0
  8 11  1  0  0  0  0
 11 12  1  0  0  0  0
 11 13  1  0  0  0  0
 11 14  1  0  0  0  0
 14 15  1  0  0  0  0
 14 16  1  0  0  0  0
 14 17  1  0  0  0  0
M  END
> <VConfSearch Rank>
368

> <Conf_Id>
36

> <Delta U+W>
0.275

> <U+W>
-15.590

> <U>
45.174

> <W>
-60.765

> <W(PB)>
-62.518

> <W(SA)>
1.754

> <Valence>
1.161

> <Coulomb>
43.789

> <VdW>
0.224

> <VdW6>
-2.897

> <VdW12>
3.121

> <Bond>
0.100

> <Angle>
0.500

> <Pdih>
0.561

> <Idih>
0.000

> <Tether>
0.000

$$$$
VeraChem MOL file


 17 16  0  0  0  0  0  0  0  0999 V2000     
   20.7534   17.4478   20.9528 N   0  3  0  0  0  0  0  0  0  0  0  0
   20.2626   17.2661   21.8320 H   0  0  0  0  0  0  0  0  0  0  0  0
   21.7489   17.5388   21.1767 H   0  0  0  0  0  0  0  0  0  0  0  0
   20.6547   16.6088   20.3722 H   0  0  0  0  0  0  0  0  0  0  0  0
   20.2176   18.6830   20.2548 C   0  0  0  0  0  0  0  0  0  0  0  0
   19.1748   18.5030   19.9802 H   0  0  0  0  0  0  0  0  0  0  0  0
   20.7935   18.8046   19.3332 H   0  0  0  0  0  0  0  0  0  0  0  0
   20.3224   19.9780   21.0876 C   0  0  0  0  0  0  0  0  0  0  0  0
   21.3063   20.0348   21.5716 H   0  0  0  0  0  0  0  0  0  0  0  0
   20.2791   20.8274   20.3929 H   0  0  0  0  0  0  0  0  0  0  0  0
   19.1948   20.1614   22.1352 C   0  0  0  0  0  0  0  0  0  0  0  0
   18.2185   20.1662   21.6304 H   0  0  0  0  0  0  0  0  0  0  0  0
   19.3052   21.1549   22.5922 H   0  0  0  0  0  0  0  0  0  0  0  0
   19.1882   19.1007   23.2594 C   0  0  0  0  0  0  0  0  0  0  0  0
   18.8749   18.1193   22.8847 H   0  0  0  0  0  0  0  0  0  0  0  0
   18.4792   19.3859   24.0475 H   0  0  0  0  0  0  0  0  0  0  0  0
   20.1790   19.0040   23.7220 H   0  0  0  0  0  0  0  0  0  0  0  0
  1  2  1  0  0  0  0
  1  3  1  0  0  0  0
  1  4  1  0  0  0  0
  1  5  1  0  0  0  0
  5  6  1  0  0  0  0
  5  7  1  0  0  0  0
  5  8  1  0  0  0  0
  8  9  1  0  0  0  0
  8 10  1  0  0  0  0
  8 11  1  0  0  0  0
 11 12  1  0  0  0  0
 11 13  1  0  0  0  0
 11 14  1  0  0  0  0
 14 15  1  0  0  0  0
 14 16  1  0  0  0  0
 14 17  1  0  0  0  0
M  END
> <VConfSearch Rank>
369

> <Conf_Id>
19

> <Delta U+W>
2.662

> <U+W>
-13.203

> <U>
47.423

> <W>
-60.626

> <W(PB)>
-62.328

> <W(SA)>
1.702

> <Valence>
2.414

> <Coulomb>
44.831

> <VdW>
0.178

> <VdW6>
-3.743

> <VdW12>
3.921

> <Bond>
0.138

> <Angle>
0.941

> <Pdih>
1.335

> <Idih>
0.000

> <Tether>
0.000

$$$$
VeraChem MOL file


 17 16  0  0  0  0  0  0  0  0999 V2000     
   20.4072   17.3827   22.1996 N   0  3  0  0  0  0  0  0  0  0  0  0
   21.1919   16.7518   22.3921 H   0  0  0  0  0  0  0  0  0  0  0  0
   19.5537   16.8179   22.2458 H   0  0  0  0  0  0  0  0  0  0  0  0
   20.3649   18.0555   22.9693 H   0  0  0  0  0  0  0  0  0  0  0  0
   20.5543   18.0728   20.8571 C   0  0  0  0  0  0  0  0  0  0  0  0
   20.5893   17.2882   20.0964 H   0  0  0  0  0  0  0  0  0  0  0  0
   21.5108   18.6021   20.8408 H   0  0  0  0  0  0  0  0  0  0  0  0
   19.4100   19.0512   20.5180 C   0  0  0  0  0  0  0  0  0  0  0  0
   19.4006   19.1909   19.4288 H   0  0  0  0  0  0  0  0  0  0  0  0
   18.4420   18.5994   20.7720 H   0  0  0  0  0  0  0  0  0  0  0  0
   19.5425   20.4482   21.1765 C   0  0  0  0  0  0  0  0  0  0  0  0
   18.7409   21.0916   20.7872 H   0  0  0  0  0  0  0  0  0  0  0  0
   20.4865   20.9161   20.8637 H   0  0  0  0  0  0  0  0  0  0  0  0
   19.4594   20.4376   22.7198 C   0  0  0  0  0  0  0  0  0  0  0  0
   18.5724   19.8923   23.0676 H   0  0  0  0  0  0  0  0  0  0  0  0
   19.3912   21.4637   23.1042 H   0  0  0  0  0  0  0  0  0  0  0  0
   20.3517   19.9850   23.1677 H   0  0  0  0  0  0  0  0  0  0  0  0
  1  2  1  0  0  0  0
  1  3  1  0  0  0  0
  1  4  1  0  0  0  0
  1  5  1  0  0  0  0
  5  6  1  0  0  0  0
  5  7  1  0  0  0  0
  5  8  1  0  0  0  0
  8  9  1  0  0  0  0
  8 10  1  0  0  0  0
  8 11  1  0  0  0  0
 11 12  1  0  0  0  0
 11 13  1  0  0  0  0
 11 14  1  0  0  0  0
 14 15  1  0  0  0  0
 14 16  1  0  0  0  0
 14 17  1  0  0  0  0
M  END
> <VConfSearch Rank>
370

> <Conf_Id>
44

> <Delta U+W>
2.712

> <U+W>
-13.153

> <U>
47.423

> <W>
-60.576

> <W(PB)>
-62.262

> <W(SA)>
1.687

> <Valence>
2.414

> <Coulomb>
44.831

> <VdW>
0.178

> <VdW6>
-3.743

> <VdW12>
3.922

> <Bond>
0.138

> <Angle>
0.941

> <Pdih>
1.335

> <Idih>
0.000

> <Tether>
0.000

$$$$
VeraChem MOL file


 17 16  0  0  0  0  0  0  0  0999 V2000     
   19.6586   17.2396   20.7984 N   0  3  0  0  0  0  0  0  0  0  0  0
   20.0529   17.0990   21.7329 H   0  0  0  0  0  0  0  0  0  0  0  0
   20.3957   17.0187   20.1223 H   0  0  0  0  0  0  0  0  0  0  0  0
   18.9220   16.5374   20.6758 H   0  0  0  0  0  0  0  0  0  0  0  0
   19.1295   18.6493   20.6182 C   0  0  0  0  0  0  0  0  0  0  0  0
   18.3305   18.8078   21.3472 H   0  0  0  0  0  0  0  0  0  0  0  0
   18.6924   18.7156   19.6182 H   0  0  0  0  0  0  0  0  0  0  0  0
   20.2050   19.7435   20.7791 C   0  0  0  0  0  0  0  0  0  0  0  0
   20.9821   19.5998   20.0167 H   0  0  0  0  0  0  0  0  0  0  0  0
   19.7475   20.7194   20.5690 H   0  0  0  0  0  0  0  0  0  0  0  0
   20.8615   19.7803   22.1817 C   0  0  0  0  0  0  0  0  0  0  0  0
   21.6195   20.5760   22.1967 H   0  0  0  0  0  0  0  0  0  0  0  0
   21.4024   18.8430   22.3701 H   0  0  0  0  0  0  0  0  0  0  0  0
   19.8457   20.0328   23.3192 C   0  0  0  0  0  0  0  0  0  0  0  0
   19.2921   20.9663   23.1539 H   0  0  0  0  0  0  0  0  0  0  0  0
   20.3615   20.1162   24.2846 H   0  0  0  0  0  0  0  0  0  0  0  0
   19.1197   19.2142   23.4017 H   0  0  0  0  0  0  0  0  0  0  0  0
  1  2  1  0  0  0  0
  1  3  1  0  0  0  0
  1  4  1  0  0  0  0
  1  5  1  0  0  0  0
  5  6  1  0  0  0  0
  5  7  1  0  0  0  0
  5  8  1  0  0  0  0
  8  9  1  0  0  0  0
  8 10  1  0  0  0  0
  8 11  1  0  0  0  0
 11 12  1  0  0  0  0
 11 13  1  0  0  0  0
 11 14  1  0  0  0  0
 14 15  1  0  0  0  0
 14 16  1  0  0  0  0
 14 17  1  0  0  0  0
M  END
> <VConfSearch Rank>
371

> <Conf_Id>
1

> <Delta U+W>
0.685

> <U+W>
-15.179

> <U>
45.697

> <W>
-60.876

> <W(PB)>
-62.586

> <W(SA)>
1.710

> <Valence>
1.263

> <Coulomb>
44.179

> <VdW>
0.255

> <VdW6>
-3.552

> <VdW12>
3.807

> <Bond>
0.125

> <Angle>
0.616

> <Pdih>
0.521

> <Idih>
0.000

> <Tether>
0.000

$$$$
VeraChem MOL file


 17 16  0  0  0  0  0  0  0  0999 V2000     
   21.1217   18.2167   20.2378 N   0  3  0  0  0  0  0  0  0  0  0  0
   20.6841   17.4069   19.7884 H   0  0  0  0  0  0  0  0  0  0  0  0
   21.4570   17.9093   21.1552 H   0  0  0  0  0  0  0  0  0  0  0  0
   21.9489   18.4550   19.6813 H   0  0  0  0  0  0  0  0  0  0  0  0
   20.1634   19.3865   20.3530 C   0  0  0  0  0  0  0  0  0  0  0  0
   19.8778   19.6838   19.3403 H   0  0  0  0  0  0  0  0  0  0  0  0
   20.7001   20.2211   20.8114 H   0  0  0  0  0  0  0  0  0  0  0  0
   18.8933   19.0728   21.1706 C   0  0  0  0  0  0  0  0  0  0  0  0
   18.2339   19.9505   21.1456 H   0  0  0  0  0  0  0  0  0  0  0  0
   18.3403   18.2609   20.6799 H   0  0  0  0  0  0  0  0  0  0  0  0
   19.1722   18.6871   22.6447 C   0  0  0  0  0  0  0  0  0  0  0  0
   19.7552   17.7571   22.6879 H   0  0  0  0  0  0  0  0  0  0  0  0
   18.2159   18.4687   23.1402 H   0  0  0  0  0  0  0  0  0  0  0  0
   19.9042   19.7974   23.4329 C   0  0  0  0  0  0  0  0  0  0  0  0
   20.0221   19.5086   24.4854 H   0  0  0  0  0  0  0  0  0  0  0  0
   19.3397   20.7385   23.4055 H   0  0  0  0  0  0  0  0  0  0  0  0
   20.9061   19.9870   23.0277 H   0  0  0  0  0  0  0  0  0  0  0  0
  1  2  1  0  0  0  0
  1  3  1  0  0  0  0
  1  4  1  0  0  0  0
  1  5  1  0  0  0  0
  5  6  1  0  0  0  0
  5  7  1  0  0  0  0
  5  8  1  0  0  0  0
  8  9  1  0  0  0  0
  8 10  1  0  0  0  0
  8 11  1  0  0  0  0
 11 12  1  0  0  0  0
 11 13  1  0  0  0  0
 11 14  1  0  0  0  0
 14 15  1  0  0  0  0
 14 16  1  0  0  0  0
 14 17  1  0  0  0  0
M  END
> <VConfSearch Rank>
372

> <Conf_Id>
43

> <Delta U+W>
0.642

> <U+W>
-15.222

> <U>
45.697

> <W>
-60.919

> <W(PB)>
-62.631

> <W(SA)>
1.712

> <Valence>
1.262

> <Coulomb>
44.179

> <VdW>
0.255

> <VdW6>
-3.552

> <VdW12>
3.807

> <Bond>
0.125

> <Angle>
0.616

> <Pdih>
0.521

> <Idih>
0.000

> <Tether>
0.000

$$$$
VeraChem MOL file


 17 16  0  0  0  0  0  0  0  0999 V2000     
   21.0071   19.3185   19.2749 N   0  3  0  0  0  0  0  0  0  0  0  0
   20.1890   19.7161   18.8033 H   0  0  0  0  0  0  0  0  0  0  0  0
   21.0394   18.3234   19.0331 H   0  0  0  0  0  0  0  0  0  0  0  0
   21.8334   19.7531   18.8515 H   0  0  0  0  0  0  0  0  0  0  0  0
   20.9608   19.5376   20.7739 C   0  0  0  0  0  0  0  0  0  0  0  0
   20.9594   20.6154   20.9577 H   0  0  0  0  0  0  0  0  0  0  0  0
   21.8739   19.1178   21.2048 H   0  0  0  0  0  0  0  0  0  0  0  0
   19.7310   18.8970   21.4430 C   0  0  0  0  0  0  0  0  0  0  0  0
   18.8162   19.3096   20.9971 H   0  0  0  0  0  0  0  0  0  0  0  0
   19.7275   17.8172   21.2434 H   0  0  0  0  0  0  0  0  0  0  0  0
   19.7224   19.1435   22.9677 C   0  0  0  0  0  0  0  0  0  0  0  0
   19.7293   20.2243   23.1681 H   0  0  0  0  0  0  0  0  0  0  0  0
   20.6395   18.7336   23.4142 H   0  0  0  0  0  0  0  0  0  0  0  0
   18.4916   18.5039   23.6457 C   0  0  0  0  0  0  0  0  0  0  0  0
   18.5041   18.6902   24.7275 H   0  0  0  0  0  0  0  0  0  0  0  0
   18.4757   17.4170   23.4919 H   0  0  0  0  0  0  0  0  0  0  0  0
   17.5583   18.9194   23.2438 H   0  0  0  0  0  0  0  0  0  0  0  0
  1  2  1  0  0  0  0
  1  3  1  0  0  0  0
  1  4  1  0  0  0  0
  1  5  1  0  0  0  0
  5  6  1  0  0  0  0
  5  7  1  0  0  0  0
  5  8  1  0  0  0  0
  8  9  1  0  0  0  0
  8 10  1  0  0  0  0
  8 11  1  0  0  0  0
 11 12  1  0  0  0  0
 11 13  1  0  0  0  0
 11 14  1  0  0  0  0
 14 15  1  0  0  0  0
 14 16  1  0  0  0  0
 14 17  1  0  0  0  0
M  END
> <VConfSearch Rank>
373

> <Conf_Id>
7

> <Delta U+W>
0.000

> <U+W>
-15.865

> <U>
44.664

> <W>
-60.529

> <W(PB)>
-62.309

> <W(SA)>
1.780

> <Valence>
0.872

> <Coulomb>
43.648

> <VdW>
0.144

> <VdW6>
-2.370

> <VdW12>
2.515

> <Bond>
0.080

> <Angle>
0.376

> <Pdih>
0.416

> <Idih>
0.000

> <Tether>
0.000

$$$$
VeraChem MOL file


 17 16  0  0  0  0  0  0  0  0999 V2000     
   19.8078   16.7453   22.1557 N   0  3  0  0  0  0  0  0  0  0  0  0
   19.3349   16.6379   23.0582 H   0  0  0  0  0  0  0  0  0  0  0  0
   20.8068   16.5875   22.3191 H   0  0  0  0  0  0  0  0  0  0  0  0
   19.4809   15.9800   21.5571 H   0  0  0  0  0  0  0  0  0  0  0  0
   19.5416   18.1013   21.5330 C   0  0  0  0  0  0  0  0  0  0  0  0
   18.4656   18.1883   21.3599 H   0  0  0  0  0  0  0  0  0  0  0  0
   20.0483   18.1315   20.5649 H   0  0  0  0  0  0  0  0  0  0  0  0
   20.0216   19.2754   22.4077 C   0  0  0  0  0  0  0  0  0  0  0  0
   19.5372   19.2128   23.3912 H   0  0  0  0  0  0  0  0  0  0  0  0
   21.1020   19.1870   22.5829 H   0  0  0  0  0  0  0  0  0  0  0  0
   19.7091   20.6537   21.7796 C   0  0  0  0  0  0  0  0  0  0  0  0
   20.0024   21.4428   22.4863 H   0  0  0  0  0  0  0  0  0  0  0  0
   18.6245   20.7571   21.6343 H   0  0  0  0  0  0  0  0  0  0  0  0
   20.4374   20.8845   20.4356 C   0  0  0  0  0  0  0  0  0  0  0  0
   21.5240   20.7807   20.5522 H   0  0  0  0  0  0  0  0  0  0  0  0
   20.2363   21.8952   20.0575 H   0  0  0  0  0  0  0  0  0  0  0  0
   20.1052   20.1727   19.6694 H   0  0  0  0  0  0  0  0  0  0  0  0
  1  2  1  0  0  0  0
  1  3  1  0  0  0  0
  1  4  1  0  0  0  0
  1  5  1  0  0  0  0
  5  6  1  0  0  0  0
  5  7  1  0  0  0  0
  5  8  1  0  0  0  0
  8  9  1  0  0  0  0
  8 10  1  0  0  0  0
  8 11  1  0  0  0  0
 11 12  1  0  0  0  0
 11 13  1  0  0  0  0
 11 14  1  0  0  0  0
 14 15  1  0  0  0  0
 14 16  1  0  0  0  0
 14 17  1  0  0  0  0
M  END
> <VConfSearch Rank>
374

> <Conf_Id>
36

> <Delta U+W>
0.275

> <U+W>
-15.590

> <U>
45.174

> <W>
-60.765

> <W(PB)>
-62.518

> <W(SA)>
1.754

> <Valence>
1.161

> <Coulomb>
43.789

> <VdW>
0.224

> <VdW6>
-2.897

> <VdW12>
3.121

> <Bond>
0.100

> <Angle>
0.500

> <Pdih>
0.561

> <Idih>
0.000

> <Tether>
0.000

$$$$
VeraChem MOL file


 17 16  0  0  0  0  0  0  0  0999 V2000     
   20.4244   17.3643   20.8369 N   0  3  0  0  0  0  0  0  0  0  0  0
   20.6564   17.3899   21.8330 H   0  0  0  0  0  0  0  0  0  0  0  0
   21.2912   17.5428   20.3209 H   0  0  0  0  0  0  0  0  0  0  0  0
   20.1400   16.4043   20.6170 H   0  0  0  0  0  0  0  0  0  0  0  0
   19.3428   18.3676   20.4855 C   0  0  0  0  0  0  0  0  0  0  0  0
   18.4253   18.0886   21.0106 H   0  0  0  0  0  0  0  0  0  0  0  0
   19.1585   18.2763   19.4116 H   0  0  0  0  0  0  0  0  0  0  0  0
   19.7059   19.8319   20.8105 C   0  0  0  0  0  0  0  0  0  0  0  0
   20.7372   20.0416   20.4970 H   0  0  0  0  0  0  0  0  0  0  0  0
   19.0668   20.4797   20.1960 H   0  0  0  0  0  0  0  0  0  0  0  0
   19.5019   20.2306   22.2945 C   0  0  0  0  0  0  0  0  0  0  0  0
   18.4513   20.0755   22.5777 H   0  0  0  0  0  0  0  0  0  0  0  0
   19.6865   21.3097   22.3914 H   0  0  0  0  0  0  0  0  0  0  0  0
   20.4191   19.4831   23.2889 C   0  0  0  0  0  0  0  0  0  0  0  0
   20.1339   18.4291   23.3851 H   0  0  0  0  0  0  0  0  0  0  0  0
   20.3411   19.9305   24.2884 H   0  0  0  0  0  0  0  0  0  0  0  0
   21.4711   19.5392   22.9803 H   0  0  0  0  0  0  0  0  0  0  0  0
  1  2  1  0  0  0  0
  1  3  1  0  0  0  0
  1  4  1  0  0  0  0
  1  5  1  0  0  0  0
  5  6  1  0  0  0  0
  5  7  1  0  0  0  0
  5  8  1  0  0  0  0
  8  9  1  0  0  0  0
  8 10  1  0  0  0  0
  8 11  1  0  0  0  0
 11 12  1  0  0  0  0
 11 13  1  0  0  0  0
 11 14  1  0  0  0  0
 14 15  1  0  0  0  0
 14 16  1  0  0  0  0
 14 17  1  0  0  0  0
M  END
> <VConfSearch Rank>
375

> <Conf_Id>
19

> <Delta U+W>
2.662

> <U+W>
-13.203

> <U>
47.423

> <W>
-60.626

> <W(PB)>
-62.328

> <W(SA)>
1.702

> <Valence>
2.414

> <Coulomb>
44.831

> <VdW>
0.178

> <VdW6>
-3.743

> <VdW12>
3.921

> <Bond>
0.138

> <Angle>
0.941

> <Pdih>
1.335

> <Idih>
0.000

> <Tether>
0.000

$$$$
VeraChem MOL file


 17 16  0  0  0  0  0  0  0  0999 V2000     
   18.5580   18.6900   20.3482 N   0  3  0  0  0  0  0  0  0  0  0  0
   17.6017   18.3571   20.1890 H   0  0  0  0  0  0  0  0  0  0  0  0
   19.0173   18.7228   19.4331 H   0  0  0  0  0  0  0  0  0  0  0  0
   18.4901   19.6536   20.6855 H   0  0  0  0  0  0  0  0  0  0  0  0
   19.3087   17.8044   21.3240 C   0  0  0  0  0  0  0  0  0  0  0  0
   19.3369   16.8016   20.8891 H   0  0  0  0  0  0  0  0  0  0  0  0
   18.7393   17.7525   22.2559 H   0  0  0  0  0  0  0  0  0  0  0  0
   20.7517   18.2654   21.6184 C   0  0  0  0  0  0  0  0  0  0  0  0
   21.3088   17.3992   21.9995 H   0  0  0  0  0  0  0  0  0  0  0  0
   21.2506   18.5574   20.6849 H   0  0  0  0  0  0  0  0  0  0  0  0
   20.8620   19.4017   22.6670 C   0  0  0  0  0  0  0  0  0  0  0  0
   21.9266   19.5768   22.8767 H   0  0  0  0  0  0  0  0  0  0  0  0
   20.4155   19.0734   23.6161 H   0  0  0  0  0  0  0  0  0  0  0  0
   20.2200   20.7383   22.2308 C   0  0  0  0  0  0  0  0  0  0  0  0
   20.5758   21.0465   21.2390 H   0  0  0  0  0  0  0  0  0  0  0  0
   20.4802   21.5347   22.9401 H   0  0  0  0  0  0  0  0  0  0  0  0
   19.1261   20.6712   22.2096 H   0  0  0  0  0  0  0  0  0  0  0  0
  1  2  1  0  0  0  0
  1  3  1  0  0  0  0
  1  4  1  0  0  0  0
  1  5  1  0  0  0  0
  5  6  1  0  0  0  0
  5  7  1  0  0  0  0
  5  8  1  0  0  0  0
  8  9  1  0  0  0  0
  8 10  1  0  0  0  0
  8 11  1  0  0  0  0
 11 12  1  0  0  0  0
 11 13  1  0  0  0  0
 11 14  1  0  0  0  0
 14 15  1  0  0  0  0
 14 16  1  0  0  0  0
 14 17  1  0  0  0  0
M  END
> <VConfSearch Rank>
376

> <Conf_Id>
44

> <Delta U+W>
2.712

> <U+W>
-13.153

> <U>
47.423

> <W>
-60.576

> <W(PB)>
-62.262

> <W(SA)>
1.687

> <Valence>
2.414

> <Coulomb>
44.831

> <VdW>
0.178

> <VdW6>
-3.743

> <VdW12>
3.922

> <Bond>
0.138

> <Angle>
0.941

> <Pdih>
1.335

> <Idih>
0.000

> <Tether>
0.000

$$$$
VeraChem MOL file


 17 16  0  0  0  0  0  0  0  0999 V2000     
   18.7315   20.5705   21.1633 N   0  3  0  0  0  0  0  0  0  0  0  0
   19.6428   20.9599   21.4209 H   0  0  0  0  0  0  0  0  0  0  0  0
   18.0860   20.7766   21.9316 H   0  0  0  0  0  0  0  0  0  0  0  0
   18.4011   21.0964   20.3478 H   0  0  0  0  0  0  0  0  0  0  0  0
   18.8161   19.0833   20.8788 C   0  0  0  0  0  0  0  0  0  0  0  0
   19.4944   18.9373   20.0342 H   0  0  0  0  0  0  0  0  0  0  0  0
   17.8214   18.7452   20.5756 H   0  0  0  0  0  0  0  0  0  0  0  0
   19.2955   18.2454   22.0821 C   0  0  0  0  0  0  0  0  0  0  0  0
   18.5860   18.3667   22.9113 H   0  0  0  0  0  0  0  0  0  0  0  0
   19.2635   17.1832   21.8054 H   0  0  0  0  0  0  0  0  0  0  0  0
   20.7219   18.6019   22.5697 C   0  0  0  0  0  0  0  0  0  0  0  0
   20.9694   17.9681   23.4328 H   0  0  0  0  0  0  0  0  0  0  0  0
   20.7478   19.6369   22.9366 H   0  0  0  0  0  0  0  0  0  0  0  0
   21.8005   18.4088   21.4793 C   0  0  0  0  0  0  0  0  0  0  0  0
   21.7952   17.3799   21.0968 H   0  0  0  0  0  0  0  0  0  0  0  0
   22.8000   18.6092   21.8865 H   0  0  0  0  0  0  0  0  0  0  0  0
   21.6456   19.0896   20.6328 H   0  0  0  0  0  0  0  0  0  0  0  0
  1  2  1  0  0  0  0
  1  3  1  0  0  0  0
  1  4  1  0  0  0  0
  1  5  1  0  0  0  0
  5  6  1  0  0  0  0
  5  7  1  0  0  0  0
  5  8  1  0  0  0  0
  8  9  1  0  0  0  0
  8 10  1  0  0  0  0
  8 11  1  0  0  0  0
 11 12  1  0  0  0  0
 11 13  1  0  0  0  0
 11 14  1  0  0  0  0
 14 15  1  0  0  0  0
 14 16  1  0  0  0  0
 14 17  1  0  0  0  0
M  END
> <VConfSearch Rank>
377

> <Conf_Id>
1

> <Delta U+W>
0.685

> <U+W>
-15.179

> <U>
45.697

> <W>
-60.876

> <W(PB)>
-62.586

> <W(SA)>
1.710

> <Valence>
1.263

> <Coulomb>
44.179

> <VdW>
0.255

> <VdW6>
-3.552

> <VdW12>
3.807

> <Bond>
0.125

> <Angle>
0.616

> <Pdih>
0.521

> <Idih>
0.000

> <Tether>
0.000

$$$$
VeraChem MOL file


 17 16  0  0  0  0  0  0  0  0999 V2000     
   19.0274   20.0809   23.0254 N   0  3  0  0  0  0  0  0  0  0  0  0
   19.6600   20.7735   23.4372 H   0  0  0  0  0  0  0  0  0  0  0  0
   19.2699   19.1717   23.4290 H   0  0  0  0  0  0  0  0  0  0  0  0
   18.0828   20.3102   23.3506 H   0  0  0  0  0  0  0  0  0  0  0  0
   19.1143   20.0648   21.5115 C   0  0  0  0  0  0  0  0  0  0  0  0
   18.8076   21.0500   21.1498 H   0  0  0  0  0  0  0  0  0  0  0  0
   18.3969   19.3295   21.1381 H   0  0  0  0  0  0  0  0  0  0  0  0
   20.5223   19.7383   20.9720 C   0  0  0  0  0  0  0  0  0  0  0  0
   20.5046   19.8124   19.8766 H   0  0  0  0  0  0  0  0  0  0  0  0
   21.2278   20.5049   21.3189 H   0  0  0  0  0  0  0  0  0  0  0  0
   21.0439   18.3377   21.3793 C   0  0  0  0  0  0  0  0  0  0  0  0
   21.1548   18.2787   22.4705 H   0  0  0  0  0  0  0  0  0  0  0  0
   22.0524   18.2014   20.9643 H   0  0  0  0  0  0  0  0  0  0  0  0
   20.1377   17.1869   20.8850 C   0  0  0  0  0  0  0  0  0  0  0  0
   20.5784   16.2139   21.1385 H   0  0  0  0  0  0  0  0  0  0  0  0
   20.0123   17.2237   19.7951 H   0  0  0  0  0  0  0  0  0  0  0  0
   19.1429   17.2296   21.3459 H   0  0  0  0  0  0  0  0  0  0  0  0
  1  2  1  0  0  0  0
  1  3  1  0  0  0  0
  1  4  1  0  0  0  0
  1  5  1  0  0  0  0
  5  6  1  0  0  0  0
  5  7  1  0  0  0  0
  5  8  1  0  0  0  0
  8  9  1  0  0  0  0
  8 10  1  0  0  0  0
  8 11  1  0  0  0  0
 11 12  1  0  0  0  0
 11 13  1  0  0  0  0
 11 14  1  0  0  0  0
 14 15  1  0  0  0  0
 14 16  1  0  0  0  0
 14 17  1  0  0  0  0
M  END
> <VConfSearch Rank>
378

> <Conf_Id>
43

> <Delta U+W>
0.642

> <U+W>
-15.222

> <U>
45.697

> <W>
-60.919

> <W(PB)>
-62.631

> <W(SA)>
1.712

> <Valence>
1.262

> <Coulomb>
44.179

> <VdW>
0.255

> <VdW6>
-3.552

> <VdW12>
3.807

> <Bond>
0.125

> <Angle>
0.616

> <Pdih>
0.521

> <Idih>
0.000

> <Tether>
0.000

$$$$
VeraChem MOL file


 17 16  0  0  0  0  0  0  0  0999 V2000     
   17.6456   17.9933   21.9314 N   0  3  0  0  0  0  0  0  0  0  0  0
   17.0898   18.8491   21.8397 H   0  0  0  0  0  0  0  0  0  0  0  0
   17.7318   17.7966   22.9332 H   0  0  0  0  0  0  0  0  0  0  0  0
   17.0885   17.2336   21.5272 H   0  0  0  0  0  0  0  0  0  0  0  0
   18.9981   18.1197   21.2590 C   0  0  0  0  0  0  0  0  0  0  0  0
   18.8300   18.2973   20.1933 H   0  0  0  0  0  0  0  0  0  0  0  0
   19.5203   17.1654   21.3690 H   0  0  0  0  0  0  0  0  0  0  0  0
   19.8621   19.2526   21.8423 C   0  0  0  0  0  0  0  0  0  0  0  0
   19.3279   20.2071   21.7440 H   0  0  0  0  0  0  0  0  0  0  0  0
   20.0160   19.0790   22.9157 H   0  0  0  0  0  0  0  0  0  0  0  0
   21.2294   19.3469   21.1302 C   0  0  0  0  0  0  0  0  0  0  0  0
   21.0760   19.5173   20.0551 H   0  0  0  0  0  0  0  0  0  0  0  0
   21.7633   18.3907   21.2254 H   0  0  0  0  0  0  0  0  0  0  0  0
   22.1017   20.4813   21.7100 C   0  0  0  0  0  0  0  0  0  0  0  0
   23.0677   20.5316   21.1911 H   0  0  0  0  0  0  0  0  0  0  0  0
   22.3014   20.3203   22.7774 H   0  0  0  0  0  0  0  0  0  0  0  0
   21.6087   21.4558   21.5979 H   0  0  0  0  0  0  0  0  0  0  0  0
  1  2  1  0  0  0  0
  1  3  1  0  0  0  0
  1  4  1  0  0  0  0
  1  5  1  0  0  0  0
  5  6  1  0  0  0  0
  5  7  1  0  0  0  0
  5  8  1  0  0  0  0
  8  9  1  0  0  0  0
  8 10  1  0  0  0  0
  8 11  1  0  0  0  0
 11 12  1  0  0  0  0
 11 13  1  0  0  0  0
 11 14  1  0  0  0  0
 14 15  1  0  0  0  0
 14 16  1  0  0  0  0
 14 17  1  0  0  0  0
M  END
> <VConfSearch Rank>
379

> <Conf_Id>
7

> <Delta U+W>
0.000

> <U+W>
-15.865

> <U>
44.664

> <W>
-60.529

> <W(PB)>
-62.309

> <W(SA)>
1.780

> <Valence>
0.872

> <Coulomb>
43.648

> <VdW>
0.144

> <VdW6>
-2.370

> <VdW12>
2.515

> <Bond>
0.080

> <Angle>
0.376

> <Pdih>
0.416

> <Idih>
0.000

> <Tether>
0.000

$$$$
VeraChem MOL file


 17 16  0  0  0  0  0  0  0  0999 V2000     
   18.1640   20.7299   21.4085 N   0  3  0  0  0  0  0  0  0  0  0  0
   18.0411   21.1993   22.3108 H   0  0  0  0  0  0  0  0  0  0  0  0
   17.3816   20.0774   21.2999 H   0  0  0  0  0  0  0  0  0  0  0  0
   18.0547   21.4470   20.6842 H   0  0  0  0  0  0  0  0  0  0  0  0
   19.5047   20.0297   21.3107 C   0  0  0  0  0  0  0  0  0  0  0  0
   20.2886   20.7861   21.4045 H   0  0  0  0  0  0  0  0  0  0  0  0
   19.5778   19.5815   20.3164 H   0  0  0  0  0  0  0  0  0  0  0  0
   19.7021   18.9440   22.3860 C   0  0  0  0  0  0  0  0  0  0  0  0
   19.5870   19.3967   23.3798 H   0  0  0  0  0  0  0  0  0  0  0  0
   18.9138   18.1852   22.2929 H   0  0  0  0  0  0  0  0  0  0  0  0
   21.0887   18.2644   22.3001 C   0  0  0  0  0  0  0  0  0  0  0  0
   21.1947   17.5623   23.1390 H   0  0  0  0  0  0  0  0  0  0  0  0
   21.8789   19.0180   22.4265 H   0  0  0  0  0  0  0  0  0  0  0  0
   21.3065   17.5013   20.9734 C   0  0  0  0  0  0  0  0  0  0  0  0
   20.5256   16.7452   20.8197 H   0  0  0  0  0  0  0  0  0  0  0  0
   22.2753   16.9852   20.9807 H   0  0  0  0  0  0  0  0  0  0  0  0
   21.3003   18.1806   20.1116 H   0  0  0  0  0  0  0  0  0  0  0  0
  1  2  1  0  0  0  0
  1  3  1  0  0  0  0
  1  4  1  0  0  0  0
  1  5  1  0  0  0  0
  5  6  1  0  0  0  0
  5  7  1  0  0  0  0
  5  8  1  0  0  0  0
  8  9  1  0  0  0  0
  8 10  1  0  0  0  0
  8 11  1  0  0  0  0
 11 12  1  0  0  0  0
 11 13  1  0  0  0  0
 11 14  1  0  0  0  0
 14 15  1  0  0  0  0
 14 16  1  0  0  0  0
 14 17  1  0  0  0  0
M  END
> <VConfSearch Rank>
380

> <Conf_Id>
36

> <Delta U+W>
0.275

> <U+W>
-15.590

> <U>
45.174

> <W>
-60.765

> <W(PB)>
-62.518

> <W(SA)>
1.754

> <Valence>
1.161

> <Coulomb>
43.789

> <VdW>
0.224

> <VdW6>
-2.897

> <VdW12>
3.121

> <Bond>
0.100

> <Angle>
0.500

> <Pdih>
0.561

> <Idih>
0.000

> <Tether>
0.000

$$$$
VeraChem MOL file


 17 16  0  0  0  0  0  0  0  0999 V2000     
   21.1223   17.5547   21.5686 N   0  3  0  0  0  0  0  0  0  0  0  0
   21.5730   18.4164   21.2503 H   0  0  0  0  0  0  0  0  0  0  0  0
   20.8863   17.0117   20.7326 H   0  0  0  0  0  0  0  0  0  0  0  0
   21.8272   17.0170   22.0832 H   0  0  0  0  0  0  0  0  0  0  0  0
   19.8994   17.8407   22.4187 C   0  0  0  0  0  0  0  0  0  0  0  0
   20.2198   18.3600   23.3259 H   0  0  0  0  0  0  0  0  0  0  0  0
   19.4812   16.8741   22.7126 H   0  0  0  0  0  0  0  0  0  0  0  0
   18.8078   18.6642   21.7033 C   0  0  0  0  0  0  0  0  0  0  0  0
   18.6602   18.2860   20.6830 H   0  0  0  0  0  0  0  0  0  0  0  0
   17.8593   18.4910   22.2288 H   0  0  0  0  0  0  0  0  0  0  0  0
   19.0674   20.1922   21.6796 C   0  0  0  0  0  0  0  0  0  0  0  0
   19.1503   20.5690   22.7088 H   0  0  0  0  0  0  0  0  0  0  0  0
   18.1868   20.6861   21.2454 H   0  0  0  0  0  0  0  0  0  0  0  0
   20.3165   20.6158   20.8739 C   0  0  0  0  0  0  0  0  0  0  0  0
   21.2421   20.3229   21.3830 H   0  0  0  0  0  0  0  0  0  0  0  0
   20.3433   21.7073   20.7594 H   0  0  0  0  0  0  0  0  0  0  0  0
   20.3103   20.1757   19.8682 H   0  0  0  0  0  0  0  0  0  0  0  0
  1  2  1  0  0  0  0
  1  3  1  0  0  0  0
  1  4  1  0  0  0  0
  1  5  1  0  0  0  0
  5  6  1  0  0  0  0
  5  7  1  0  0  0  0
  5  8  1  0  0  0  0
  8  9  1  0  0  0  0
  8 10  1  0  0  0  0
  8 11  1  0  0  0  0
 11 12  1  0  0  0  0
 11 13  1  0  0  0  0
 11 14  1  0  0  0  0
 14 15  1  0  0  0  0
 14 16  1  0  0  0  0
 14 17  1  0  0  0  0
M  END
> <VConfSearch Rank>
381

> <Conf_Id>
19

> <Delta U+W>
2.662

> <U+W>
-13.203

> <U>
47.423

> <W>
-60.626

> <W(PB)>
-62.328

> <W(SA)>
1.702

> <Valence>
2.414

> <Coulomb>
44.831

> <VdW>
0.178

> <VdW6>
-3.743

> <VdW12>
3.921

> <Bond>
0.138

> <Angle>
0.941

> <Pdih>
1.335

> <Idih>
0.000

> <Tether>
0.000

$$$$
VeraChem MOL file


 17 16  0  0  0  0  0  0  0  0999 V2000     
   18.6612   17.9002   22.3875 N   0  3  0  0  0  0  0  0  0  0  0  0
   18.0019   17.1284   22.2445 H   0  0  0  0  0  0  0  0  0  0  0  0
   18.4978   18.2593   23.3329 H   0  0  0  0  0  0  0  0  0  0  0  0
   19.6024   17.4991   22.3765 H   0  0  0  0  0  0  0  0  0  0  0  0
   18.4990   18.9826   21.3377 C   0  0  0  0  0  0  0  0  0  0  0  0
   17.4743   19.3556   21.4187 H   0  0  0  0  0  0  0  0  0  0  0  0
   18.6163   18.5296   20.3496 H   0  0  0  0  0  0  0  0  0  0  0  0
   19.4782   20.1656   21.4896 C   0  0  0  0  0  0  0  0  0  0  0  0
   19.0483   21.0263   20.9601 H   0  0  0  0  0  0  0  0  0  0  0  0
   19.5460   20.4640   22.5441 H   0  0  0  0  0  0  0  0  0  0  0  0
   20.8926   19.9077   20.9102 C   0  0  0  0  0  0  0  0  0  0  0  0
   21.4688   20.8414   20.9754 H   0  0  0  0  0  0  0  0  0  0  0  0
   20.8160   19.6722   19.8393 H   0  0  0  0  0  0  0  0  0  0  0  0
   21.6832   18.7903   21.6280 C   0  0  0  0  0  0  0  0  0  0  0  0
   21.6970   18.9467   22.7145 H   0  0  0  0  0  0  0  0  0  0  0  0
   22.7244   18.7774   21.2803 H   0  0  0  0  0  0  0  0  0  0  0  0
   21.2616   17.8005   21.4179 H   0  0  0  0  0  0  0  0  0  0  0  0
  1  2  1  0  0  0  0
  1  3  1  0  0  0  0
  1  4  1  0  0  0  0
  1  5  1  0  0  0  0
  5  6  1  0  0  0  0
  5  7  1  0  0  0  0
  5  8  1  0  0  0  0
  8  9  1  0  0  0  0
  8 10  1  0  0  0  0
  8 11  1  0  0  0  0
 11 12  1  0  0  0  0
 11 13  1  0  0  0  0
 11 14  1  0  0  0  0
 14 15  1  0  0  0  0
 14 16  1  0  0  0  0
 14 17  1  0  0  0  0
M  END
> <VConfSearch Rank>
382

> <Conf_Id>
44

> <Delta U+W>
2.712

> <U+W>
-13.153

> <U>
47.423

> <W>
-60.576

> <W(PB)>
-62.262

> <W(SA)>
1.687

> <Valence>
2.414

> <Coulomb>
44.831

> <VdW>
0.178

> <VdW6>
-3.743

> <VdW12>
3.922

> <Bond>
0.138

> <Angle>
0.941

> <Pdih>
1.335

> <Idih>
0.000

> <Tether>
0.000

$$$$
VeraChem MOL file


 17 16  0  0  0  0  0  0  0  0999 V2000     
   19.8455   17.1180   22.1003 N   0  3  0  0  0  0  0  0  0  0  0  0
   18.8819   17.4642   22.0935 H   0  0  0  0  0  0  0  0  0  0  0  0
   20.1089   16.9746   23.0798 H   0  0  0  0  0  0  0  0  0  0  0  0
   19.8346   16.1940   21.6567 H   0  0  0  0  0  0  0  0  0  0  0  0
   20.7901   18.0715   21.3942 C   0  0  0  0  0  0  0  0  0  0  0  0
   20.4710   18.1559   20.3522 H   0  0  0  0  0  0  0  0  0  0  0  0
   21.7871   17.6228   21.4070 H   0  0  0  0  0  0  0  0  0  0  0  0
   20.8529   19.4737   22.0343 C   0  0  0  0  0  0  0  0  0  0  0  0
   21.2131   19.3824   23.0676 H   0  0  0  0  0  0  0  0  0  0  0  0
   21.6044   20.0702   21.5002 H   0  0  0  0  0  0  0  0  0  0  0  0
   19.5017   20.2311   22.0260 C   0  0  0  0  0  0  0  0  0  0  0  0
   19.6401   21.2070   22.5122 H   0  0  0  0  0  0  0  0  0  0  0  0
   18.7627   19.6918   22.6341 H   0  0  0  0  0  0  0  0  0  0  0  0
   18.9413   20.4543   20.6026 C   0  0  0  0  0  0  0  0  0  0  0  0
   19.6625   20.9934   19.9747 H   0  0  0  0  0  0  0  0  0  0  0  0
   18.0199   21.0497   20.6405 H   0  0  0  0  0  0  0  0  0  0  0  0
   18.7011   19.5040   20.1095 H   0  0  0  0  0  0  0  0  0  0  0  0
  1  2  1  0  0  0  0
  1  3  1  0  0  0  0
  1  4  1  0  0  0  0
  1  5  1  0  0  0  0
  5  6  1  0  0  0  0
  5  7  1  0  0  0  0
  5  8  1  0  0  0  0
  8  9  1  0  0  0  0
  8 10  1  0  0  0  0
  8 11  1  0  0  0  0
 11 12  1  0  0  0  0
 11 13  1  0  0  0  0
 11 14  1  0  0  0  0
 14 15  1  0  0  0  0
 14 16  1  0  0  0  0
 14 17  1  0  0  0  0
M  END
> <VConfSearch Rank>
383

> <Conf_Id>
1

> <Delta U+W>
0.685

> <U+W>
-15.179

> <U>
45.697

> <W>
-60.876

> <W(PB)>
-62.586

> <W(SA)>
1.710

> <Valence>
1.263

> <Coulomb>
44.179

> <VdW>
0.255

> <VdW6>
-3.552

> <VdW12>
3.807

> <Bond>
0.125

> <Angle>
0.616

> <Pdih>
0.521

> <Idih>
0.000

> <Tether>
0.000

$$$$
VeraChem MOL file


 17 16  0  0  0  0  0  0  0  0999 V2000     
   20.2824   17.8223   23.1355 N   0  3  0  0  0  0  0  0  0  0  0  0
   20.2866   18.3340   24.0229 H   0  0  0  0  0  0  0  0  0  0  0  0
   21.1810   18.0016   22.6785 H   0  0  0  0  0  0  0  0  0  0  0  0
   20.2587   16.8242   23.3675 H   0  0  0  0  0  0  0  0  0  0  0  0
   19.1146   18.2248   22.2557 C   0  0  0  0  0  0  0  0  0  0  0  0
   18.1938   17.9717   22.7883 H   0  0  0  0  0  0  0  0  0  0  0  0
   19.1535   17.6235   21.3438 H   0  0  0  0  0  0  0  0  0  0  0  0
   19.0977   19.7235   21.8903 C   0  0  0  0  0  0  0  0  0  0  0  0
   18.1891   19.9334   21.3105 H   0  0  0  0  0  0  0  0  0  0  0  0
   19.0174   20.3179   22.8101 H   0  0  0  0  0  0  0  0  0  0  0  0
   20.3355   20.1893   21.0838 C   0  0  0  0  0  0  0  0  0  0  0  0
   21.2458   20.0709   21.6872 H   0  0  0  0  0  0  0  0  0  0  0  0
   20.2426   21.2659   20.8835 H   0  0  0  0  0  0  0  0  0  0  0  0
   20.5000   19.4411   19.7411 C   0  0  0  0  0  0  0  0  0  0  0  0
   21.3484   19.8473   19.1753 H   0  0  0  0  0  0  0  0  0  0  0  0
   19.6019   19.5456   19.1185 H   0  0  0  0  0  0  0  0  0  0  0  0
   20.6871   18.3710   19.8952 H   0  0  0  0  0  0  0  0  0  0  0  0
  1  2  1  0  0  0  0
  1  3  1  0  0  0  0
  1  4  1  0  0  0  0
  1  5  1  0  0  0  0
  5  6  1  0  0  0  0
  5  7  1  0  0  0  0
  5  8  1  0  0  0  0
  8  9  1  0  0  0  0
  8 10  1  0  0  0  0
  8 11  1  0  0  0  0
 11 12  1  0  0  0  0
 11 13  1  0  0  0  0
 11 14  1  0  0  0  0
 14 15  1  0  0  0  0
 14 16  1  0  0  0  0
 14 17  1  0  0  0  0
M  END
> <VConfSearch Rank>
384

> <Conf_Id>
43

> <Delta U+W>
0.642

> <U+W>
-15.222

> <U>
45.697

> <W>
-60.919

> <W(PB)>
-62.631

> <W(SA)>
1.712

> <Valence>
1.262

> <Coulomb>
44.179

> <VdW>
0.255

> <VdW6>
-3.552

> <VdW12>
3.807

> <Bond>
0.125

> <Angle>
0.616

> <Pdih>
0.521

> <Idih>
0.000

> <Tether>
0.000

$$$$
VeraChem MOL file


 17 16  0  0  0  0  0  0  0  0999 V2000     
   17.8863   18.6216   23.0548 N   0  3  0  0  0  0  0  0  0  0  0  0
   17.6578   17.6946   22.6830 H   0  0  0  0  0  0  0  0  0  0  0  0
   17.2595   19.2914   22.5986 H   0  0  0  0  0  0  0  0  0  0  0  0
   17.6363   18.6118   24.0490 H   0  0  0  0  0  0  0  0  0  0  0  0
   19.3452   18.9743   22.8439 C   0  0  0  0  0  0  0  0  0  0  0  0
   19.9512   18.2395   23.3809 H   0  0  0  0  0  0  0  0  0  0  0  0
   19.5229   19.9565   23.2901 H   0  0  0  0  0  0  0  0  0  0  0  0
   19.7552   18.9981   21.3602 C   0  0  0  0  0  0  0  0  0  0  0  0
   19.5609   18.0148   20.9116 H   0  0  0  0  0  0  0  0  0  0  0  0
   19.1342   19.7260   20.8212 H   0  0  0  0  0  0  0  0  0  0  0  0
   21.2468   19.3610   21.1900 C   0  0  0  0  0  0  0  0  0  0  0  0
   21.8688   18.6347   21.7321 H   0  0  0  0  0  0  0  0  0  0  0  0
   21.4427   20.3439   21.6417 H   0  0  0  0  0  0  0  0  0  0  0  0
   21.6655   19.3869   19.7041 C   0  0  0  0  0  0  0  0  0  0  0  0
   22.7275   19.6464   19.6048 H   0  0  0  0  0  0  0  0  0  0  0  0
   21.0840   20.1295   19.1423 H   0  0  0  0  0  0  0  0  0  0  0  0
   21.5134   18.4068   19.2334 H   0  0  0  0  0  0  0  0  0  0  0  0
  1  2  1  0  0  0  0
  1  3  1  0  0  0  0
  1  4  1  0  0  0  0
  1  5  1  0  0  0  0
  5  6  1  0  0  0  0
  5  7  1  0  0  0  0
  5  8  1  0  0  0  0
  8  9  1  0  0  0  0
  8 10  1  0  0  0  0
  8 11  1  0  0  0  0
 11 12  1  0  0  0  0
 11 13  1  0  0  0  0
 11 14  1  0  0  0  0
 14 15  1  0  0  0  0
 14 16  1  0  0  0  0
 14 17  1  0  0  0  0
M  END
> <VConfSearch Rank>
385

> <Conf_Id>
7

> <Delta U+W>
0.000

> <U+W>
-15.865

> <U>
44.664

> <W>
-60.529

> <W(PB)>
-62.309

> <W(SA)>
1.780

> <Valence>
0.872

> <Coulomb>
43.648

> <VdW>
0.144

> <VdW6>
-2.370

> <VdW12>
2.515

> <Bond>
0.080

> <Angle>
0.376

> <Pdih>
0.416

> <Idih>
0.000

> <Tether>
0.000

$$$$
VeraChem MOL file


 17 16  0  0  0  0  0  0  0  0999 V2000     
   20.0460   21.4918   21.8931 N   0  3  0  0  0  0  0  0  0  0  0  0
   20.1428   21.9232   20.9689 H   0  0  0  0  0  0  0  0  0  0  0  0
   20.9651   21.5364   22.3436 H   0  0  0  0  0  0  0  0  0  0  0  0
   19.4198   22.0942   22.4370 H   0  0  0  0  0  0  0  0  0  0  0  0
   19.5255   20.0710   21.8048 C   0  0  0  0  0  0  0  0  0  0  0  0
   18.5344   20.1022   21.3441 H   0  0  0  0  0  0  0  0  0  0  0  0
   19.4183   19.6887   22.8232 H   0  0  0  0  0  0  0  0  0  0  0  0
   20.4442   19.1376   20.9932 C   0  0  0  0  0  0  0  0  0  0  0  0
   20.5774   19.5516   19.9849 H   0  0  0  0  0  0  0  0  0  0  0  0
   21.4400   19.1076   21.4550 H   0  0  0  0  0  0  0  0  0  0  0  0
   19.8827   17.7012   20.8774 C   0  0  0  0  0  0  0  0  0  0  0  0
   20.5410   17.1123   20.2232 H   0  0  0  0  0  0  0  0  0  0  0  0
   18.9003   17.7261   20.3851 H   0  0  0  0  0  0  0  0  0  0  0  0
   19.7609   16.9881   22.2436 C   0  0  0  0  0  0  0  0  0  0  0  0
   20.7292   16.9549   22.7597 H   0  0  0  0  0  0  0  0  0  0  0  0
   19.4179   15.9540   22.1088 H   0  0  0  0  0  0  0  0  0  0  0  0
   19.0400   17.4927   22.8992 H   0  0  0  0  0  0  0  0  0  0  0  0
  1  2  1  0  0  0  0
  1  3  1  0  0  0  0
  1  4  1  0  0  0  0
  1  5  1  0  0  0  0
  5  6  1  0  0  0  0
  5  7  1  0  0  0  0
  5  8  1  0  0  0  0
  8  9  1  0  0  0  0
  8 10  1  0  0  0  0
  8 11  1  0  0  0  0
 11 12  1  0  0  0  0
 11 13  1  0  0  0  0
 11 14  1  0  0  0  0
 14 15  1  0  0  0  0
 14 16  1  0  0  0  0
 14 17  1  0  0  0  0
M  END
> <VConfSearch Rank>
386

> <Conf_Id>
36

> <Delta U+W>
0.275

> <U+W>
-15.590

> <U>
45.174

> <W>
-60.765

> <W(PB)>
-62.518

> <W(SA)>
1.754

> <Valence>
1.161

> <Coulomb>
43.789

> <VdW>
0.224

> <VdW6>
-2.897

> <VdW12>
3.121

> <Bond>
0.100

> <Angle>
0.500

> <Pdih>
0.561

> <Idih>
0.000

> <Tether>
0.000

$$$$
VeraChem MOL file


 17 16  0  0  0  0  0  0  0  0999 V2000     
   18.6475   19.1544   22.9284 N   0  3  0  0  0  0  0  0  0  0  0  0
   18.9062   20.0669   22.5449 H   0  0  0  0  0  0  0  0  0  0  0  0
   19.1424   19.0507   23.8194 H   0  0  0  0  0  0  0  0  0  0  0  0
   17.6466   19.1907   23.1469 H   0  0  0  0  0  0  0  0  0  0  0  0
   18.9747   18.0275   21.9676 C   0  0  0  0  0  0  0  0  0  0  0  0
   18.3694   18.1522   21.0658 H   0  0  0  0  0  0  0  0  0  0  0  0
   18.6707   17.0957   22.4523 H   0  0  0  0  0  0  0  0  0  0  0  0
   20.4670   17.9321   21.5861 C   0  0  0  0  0  0  0  0  0  0  0  0
   21.0920   18.0566   22.4803 H   0  0  0  0  0  0  0  0  0  0  0  0
   20.6561   16.9121   21.2261 H   0  0  0  0  0  0  0  0  0  0  0  0
   20.9110   18.9191   20.4763 C   0  0  0  0  0  0  0  0  0  0  0  0
   20.3208   18.7417   19.5663 H   0  0  0  0  0  0  0  0  0  0  0  0
   21.9536   18.6948   20.2108 H   0  0  0  0  0  0  0  0  0  0  0  0
   20.8135   20.4103   20.8709 C   0  0  0  0  0  0  0  0  0  0  0  0
   19.7705   20.7397   20.9442 H   0  0  0  0  0  0  0  0  0  0  0  0
   21.2967   21.0374   20.1105 H   0  0  0  0  0  0  0  0  0  0  0  0
   21.3144   20.6028   21.8286 H   0  0  0  0  0  0  0  0  0  0  0  0
  1  2  1  0  0  0  0
  1  3  1  0  0  0  0
  1  4  1  0  0  0  0
  1  5  1  0  0  0  0
  5  6  1  0  0  0  0
  5  7  1  0  0  0  0
  5  8  1  0  0  0  0
  8  9  1  0  0  0  0
  8 10  1  0  0  0  0
  8 11  1  0  0  0  0
 11 12  1  0  0  0  0
 11 13  1  0  0  0  0
 11 14  1  0  0  0  0
 14 15  1  0  0  0  0
 14 16  1  0  0  0  0
 14 17  1  0  0  0  0
M  END
> <VConfSearch Rank>
387

> <Conf_Id>
19

> <Delta U+W>
2.662

> <U+W>
-13.203

> <U>
47.423

> <W>
-60.626

> <W(PB)>
-62.328

> <W(SA)>
1.702

> <Valence>
2.414

> <Coulomb>
44.831

> <VdW>
0.178

> <VdW6>
-3.743

> <VdW12>
3.921

> <Bond>
0.138

> <Angle>
0.941

> <Pdih>
1.335

> <Idih>
0.000

> <Tether>
0.000

$$$$
VeraChem MOL file


 17 16  0  0  0  0  0  0  0  0999 V2000     
   18.5902   19.3600   22.9046 N   0  3  0  0  0  0  0  0  0  0  0  0
   17.5965   19.5141   23.1036 H   0  0  0  0  0  0  0  0  0  0  0  0
   19.1021   19.5729   23.7660 H   0  0  0  0  0  0  0  0  0  0  0  0
   18.7101   18.3603   22.7225 H   0  0  0  0  0  0  0  0  0  0  0  0
   19.0701   20.2051   21.7403 C   0  0  0  0  0  0  0  0  0  0  0  0
   18.9091   21.2507   22.0164 H   0  0  0  0  0  0  0  0  0  0  0  0
   18.4457   19.9855   20.8701 H   0  0  0  0  0  0  0  0  0  0  0  0
   20.5571   20.0033   21.3804 C   0  0  0  0  0  0  0  0  0  0  0  0
   20.8899   20.8890   20.8230 H   0  0  0  0  0  0  0  0  0  0  0  0
   21.1647   19.9772   22.2948 H   0  0  0  0  0  0  0  0  0  0  0  0
   20.8434   18.7552   20.5070 C   0  0  0  0  0  0  0  0  0  0  0  0
   21.9055   18.7669   20.2243 H   0  0  0  0  0  0  0  0  0  0  0  0
   20.2781   18.8244   19.5669 H   0  0  0  0  0  0  0  0  0  0  0  0
   20.5326   17.4075   21.1968 C   0  0  0  0  0  0  0  0  0  0  0  0
   21.0077   17.3463   22.1846 H   0  0  0  0  0  0  0  0  0  0  0  0
   20.9130   16.5739   20.5922 H   0  0  0  0  0  0  0  0  0  0  0  0
   19.4533   17.2544   21.3129 H   0  0  0  0  0  0  0  0  0  0  0  0
  1  2  1  0  0  0  0
  1  3  1  0  0  0  0
  1  4  1  0  0  0  0
  1  5  1  0  0  0  0
  5  6  1  0  0  0  0
  5  7  1  0  0  0  0
  5  8  1  0  0  0  0
  8  9  1  0  0  0  0
  8 10  1  0  0  0  0
  8 11  1  0  0  0  0
 11 12  1  0  0  0  0
 11 13  1  0  0  0  0
 11 14  1  0  0  0  0
 14 15  1  0  0  0  0
 14 16  1  0  0  0  0
 14 17  1  0  0  0  0
M  END
> <VConfSearch Rank>
388

> <Conf_Id>
44

> <Delta U+W>
2.712

> <U+W>
-13.153

> <U>
47.423

> <W>
-60.576

> <W(PB)>
-62.262

> <W(SA)>
1.687

> <Valence>
2.414

> <Coulomb>
44.831

> <VdW>
0.178

> <VdW6>
-3.743

> <VdW12>
3.922

> <Bond>
0.138

> <Angle>
0.941

> <Pdih>
1.335

> <Idih>
0.000

> <Tether>
0.000

$$$$
VeraChem MOL file


 17 16  0  0  0  0  0  0  0  0999 V2000     
   21.2426   19.3542   23.0461 N   0  3  0  0  0  0  0  0  0  0  0  0
   21.7407   19.4490   22.1566 H   0  0  0  0  0  0  0  0  0  0  0  0
   21.5497   18.4752   23.4731 H   0  0  0  0  0  0  0  0  0  0  0  0
   21.5703   20.1111   23.6547 H   0  0  0  0  0  0  0  0  0  0  0  0
   19.7387   19.3953   22.8550 C   0  0  0  0  0  0  0  0  0  0  0  0
   19.4774   20.3659   22.4257 H   0  0  0  0  0  0  0  0  0  0  0  0
   19.2755   19.3273   23.8432 H   0  0  0  0  0  0  0  0  0  0  0  0
   19.1940   18.2655   21.9568 C   0  0  0  0  0  0  0  0  0  0  0  0
   19.4258   17.2958   22.4170 H   0  0  0  0  0  0  0  0  0  0  0  0
   18.0985   18.3364   21.9287 H   0  0  0  0  0  0  0  0  0  0  0  0
   19.7433   18.2917   20.5087 C   0  0  0  0  0  0  0  0  0  0  0  0
   19.3136   17.4471   19.9520 H   0  0  0  0  0  0  0  0  0  0  0  0
   20.8298   18.1297   20.5140 H   0  0  0  0  0  0  0  0  0  0  0  0
   19.4164   19.6045   19.7607 C   0  0  0  0  0  0  0  0  0  0  0  0
   18.3343   19.7884   19.7410 H   0  0  0  0  0  0  0  0  0  0  0  0
   19.7660   19.5529   18.7215 H   0  0  0  0  0  0  0  0  0  0  0  0
   19.9021   20.4689   20.2307 H   0  0  0  0  0  0  0  0  0  0  0  0
  1  2  1  0  0  0  0
  1  3  1  0  0  0  0
  1  4  1  0  0  0  0
  1  5  1  0  0  0  0
  5  6  1  0  0  0  0
  5  7  1  0  0  0  0
  5  8  1  0  0  0  0
  8  9  1  0  0  0  0
  8 10  1  0  0  0  0
  8 11  1  0  0  0  0
 11 12  1  0  0  0  0
 11 13  1  0  0  0  0
 11 14  1  0  0  0  0
 14 15  1  0  0  0  0
 14 16  1  0  0  0  0
 14 17  1  0  0  0  0
M  END
> <VConfSearch Rank>
389

> <Conf_Id>
1

> <Delta U+W>
0.685

> <U+W>
-15.179

> <U>
45.697

> <W>
-60.876

> <W(PB)>
-62.586

> <W(SA)>
1.710

> <Valence>
1.263

> <Coulomb>
44.179

> <VdW>
0.255

> <VdW6>
-3.552

> <VdW12>
3.807

> <Bond>
0.125

> <Angle>
0.616

> <Pdih>
0.521

> <Idih>
0.000

> <Tether>
0.000

$$$$
VeraChem MOL file


 17 16  0  0  0  0  0  0  0  0999 V2000     
   18.8152   19.2014   19.9614 N   0  3  0  0  0  0  0  0  0  0  0  0
   17.8176   19.2577   20.1875 H   0  0  0  0  0  0  0  0  0  0  0  0
   19.0880   18.2175   20.0383 H   0  0  0  0  0  0  0  0  0  0  0  0
   18.9118   19.4624   18.9748 H   0  0  0  0  0  0  0  0  0  0  0  0
   19.6509   20.0885   20.8639 C   0  0  0  0  0  0  0  0  0  0  0  0
   19.3324   21.1220   20.7026 H   0  0  0  0  0  0  0  0  0  0  0  0
   20.6947   20.0040   20.5508 H   0  0  0  0  0  0  0  0  0  0  0  0
   19.5277   19.7442   22.3627 C   0  0  0  0  0  0  0  0  0  0  0  0
   20.1116   20.4735   22.9397 H   0  0  0  0  0  0  0  0  0  0  0  0
   18.4834   19.8714   22.6771 H   0  0  0  0  0  0  0  0  0  0  0  0
   20.0020   18.3138   22.7215 C   0  0  0  0  0  0  0  0  0  0  0  0
   19.3670   17.5692   22.2225 H   0  0  0  0  0  0  0  0  0  0  0  0
   19.8640   18.1556   23.8003 H   0  0  0  0  0  0  0  0  0  0  0  0
   21.4838   18.0592   22.3621 C   0  0  0  0  0  0  0  0  0  0  0  0
   21.7938   17.0593   22.6925 H   0  0  0  0  0  0  0  0  0  0  0  0
   22.1397   18.7914   22.8506 H   0  0  0  0  0  0  0  0  0  0  0  0
   21.6525   18.1169   21.2794 H   0  0  0  0  0  0  0  0  0  0  0  0
  1  2  1  0  0  0  0
  1  3  1  0  0  0  0
  1  4  1  0  0  0  0
  1  5  1  0  0  0  0
  5  6  1  0  0  0  0
  5  7  1  0  0  0  0
  5  8  1  0  0  0  0
  8  9  1  0  0  0  0
  8 10  1  0  0  0  0
  8 11  1  0  0  0  0
 11 12  1  0  0  0  0
 11 13  1  0  0  0  0
 11 14  1  0  0  0  0
 14 15  1  0  0  0  0
 14 16  1  0  0  0  0
 14 17  1  0  0  0  0
M  END
> <VConfSearch Rank>
390

> <Conf_Id>
43

> <Delta U+W>
0.642

> <U+W>
-15.222

> <U>
45.697

> <W>
-60.919

> <W(PB)>
-62.631

> <W(SA)>
1.712

> <Valence>
1.262

> <Coulomb>
44.179

> <VdW>
0.255

> <VdW6>
-3.552

> <VdW12>
3.807

> <Bond>
0.125

> <Angle>
0.616

> <Pdih>
0.521

> <Idih>
0.000

> <Tether>
0.000

$$$$
VeraChem MOL file


 17 16  0  0  0  0  0  0  0  0999 V2000     
   18.1892   19.1682   19.7441 N   0  3  0  0  0  0  0  0  0  0  0  0
   18.4143   20.1070   19.4011 H   0  0  0  0  0  0  0  0  0  0  0  0
   17.3667   19.2580   20.3482 H   0  0  0  0  0  0  0  0  0  0  0  0
   17.8999   18.6168   18.9297 H   0  0  0  0  0  0  0  0  0  0  0  0
   19.3592   18.5325   20.4683 C   0  0  0  0  0  0  0  0  0  0  0  0
   20.1858   18.4405   19.7585 H   0  0  0  0  0  0  0  0  0  0  0  0
   19.0593   17.5274   20.7770 H   0  0  0  0  0  0  0  0  0  0  0  0
   19.8202   19.3357   21.6982 C   0  0  0  0  0  0  0  0  0  0  0  0
   20.1059   20.3492   21.3865 H   0  0  0  0  0  0  0  0  0  0  0  0
   18.9833   19.4392   22.4016 H   0  0  0  0  0  0  0  0  0  0  0  0
   21.0122   18.6545   22.4058 C   0  0  0  0  0  0  0  0  0  0  0  0
   21.8492   18.5476   21.7012 H   0  0  0  0  0  0  0  0  0  0  0  0
   20.7280   17.6387   22.7151 H   0  0  0  0  0  0  0  0  0  0  0  0
   21.4803   19.4546   23.6406 C   0  0  0  0  0  0  0  0  0  0  0  0
   22.3270   18.9545   24.1286 H   0  0  0  0  0  0  0  0  0  0  0  0
   20.6740   19.5486   24.3796 H   0  0  0  0  0  0  0  0  0  0  0  0
   21.8040   20.4647   23.3577 H   0  0  0  0  0  0  0  0  0  0  0  0
  1  2  1  0  0  0  0
  1  3  1  0  0  0  0
  1  4  1  0  0  0  0
  1  5  1  0  0  0  0
  5  6  1  0  0  0  0
  5  7  1  0  0  0  0
  5  8  1  0  0  0  0
  8  9  1  0  0  0  0
  8 10  1  0  0  0  0
  8 11  1  0  0  0  0
 11 12  1  0  0  0  0
 11 13  1  0  0  0  0
 11 14  1  0  0  0  0
 14 15  1  0  0  0  0
 14 16  1  0  0  0  0
 14 17  1  0  0  0  0
M  END
> <VConfSearch Rank>
391

> <Conf_Id>
7

> <Delta U+W>
0.000

> <U+W>
-15.865

> <U>
44.664

> <W>
-60.529

> <W(PB)>
-62.309

> <W(SA)>
1.780

> <Valence>
0.872

> <Coulomb>
43.648

> <VdW>
0.144

> <VdW6>
-2.370

> <VdW12>
2.515

> <Bond>
0.080

> <Angle>
0.376

> <Pdih>
0.416

> <Idih>
0.000

> <Tether>
0.000

$$$$
VeraChem MOL file


 17 16  0  0  0  0  0  0  0  0999 V2000     
   18.3974   20.8902   21.1063 N   0  3  0  0  0  0  0  0  0  0  0  0
   17.5101   20.7125   21.5867 H   0  0  0  0  0  0  0  0  0  0  0  0
   18.2523   20.6710   20.1161 H   0  0  0  0  0  0  0  0  0  0  0  0
   18.5688   21.8992   21.1644 H   0  0  0  0  0  0  0  0  0  0  0  0
   19.5370   20.0894   21.7040 C   0  0  0  0  0  0  0  0  0  0  0  0
   19.6539   20.3948   22.7473 H   0  0  0  0  0  0  0  0  0  0  0  0
   20.4510   20.3525   21.1653 H   0  0  0  0  0  0  0  0  0  0  0  0
   19.3116   18.5669   21.6326 C   0  0  0  0  0  0  0  0  0  0  0  0
   18.3710   18.3182   22.1418 H   0  0  0  0  0  0  0  0  0  0  0  0
   19.1926   18.2605   20.5848 H   0  0  0  0  0  0  0  0  0  0  0  0
   20.4627   17.7625   22.2806 C   0  0  0  0  0  0  0  0  0  0  0  0
   20.2030   16.6946   22.2682 H   0  0  0  0  0  0  0  0  0  0  0  0
   20.5614   18.0440   23.3386 H   0  0  0  0  0  0  0  0  0  0  0  0
   21.8172   17.9602   21.5622 C   0  0  0  0  0  0  0  0  0  0  0  0
   21.7442   17.6913   20.5004 H   0  0  0  0  0  0  0  0  0  0  0  0
   22.5897   17.3258   22.0158 H   0  0  0  0  0  0  0  0  0  0  0  0
   22.1617   18.9999   21.6297 H   0  0  0  0  0  0  0  0  0  0  0  0
  1  2  1  0  0  0  0
  1  3  1  0  0  0  0
  1  4  1  0  0  0  0
  1  5  1  0  0  0  0
  5  6  1  0  0  0  0
  5  7  1  0  0  0  0
  5  8  1  0  0  0  0
  8  9  1  0  0  0  0
  8 10  1  0  0  0  0
  8 11  1  0  0  0  0
 11 12  1  0  0  0  0
 11 13  1  0  0  0  0
 11 14  1  0  0  0  0
 14 15  1  0  0  0  0
 14 16  1  0  0  0  0
 14 17  1  0  0  0  0
M  END
> <VConfSearch Rank>
392

> <Conf_Id>
36

> <Delta U+W>
0.275

> <U+W>
-15.590

> <U>
45.174

> <W>
-60.765

> <W(PB)>
-62.518

> <W(SA)>
1.754

> <Valence>
1.161

> <Coulomb>
43.789

> <VdW>
0.224

> <VdW6>
-2.897

> <VdW12>
3.121

> <Bond>
0.100

> <Angle>
0.500

> <Pdih>
0.561

> <Idih>
0.000

> <Tether>
0.000

$$$$
VeraChem MOL file


 17 16  0  0  0  0  0  0  0  0999 V2000     
   20.2813   19.7996   19.9651 N   0  3  0  0  0  0  0  0  0  0  0  0
   21.1414   19.6736   20.5047 H   0  0  0  0  0  0  0  0  0  0  0  0
   20.0000   20.7790   20.0709 H   0  0  0  0  0  0  0  0  0  0  0  0
   20.5211   19.6642   18.9777 H   0  0  0  0  0  0  0  0  0  0  0  0
   19.1900   18.8480   20.4163 C   0  0  0  0  0  0  0  0  0  0  0  0
   19.5170   17.8239   20.2176 H   0  0  0  0  0  0  0  0  0  0  0  0
   18.3132   19.0493   19.7948 H   0  0  0  0  0  0  0  0  0  0  0  0
   18.7970   18.9919   21.9017 C   0  0  0  0  0  0  0  0  0  0  0  0
   18.7084   20.0541   22.1656 H   0  0  0  0  0  0  0  0  0  0  0  0
   17.7923   18.5661   22.0251 H   0  0  0  0  0  0  0  0  0  0  0  0
   19.7460   18.2680   22.8907 C   0  0  0  0  0  0  0  0  0  0  0  0
   19.7768   17.1949   22.6550 H   0  0  0  0  0  0  0  0  0  0  0  0
   19.3181   18.3452   23.9001 H   0  0  0  0  0  0  0  0  0  0  0  0
   21.1855   18.8298   22.9221 C   0  0  0  0  0  0  0  0  0  0  0  0
   21.7310   18.5906   22.0019 H   0  0  0  0  0  0  0  0  0  0  0  0
   21.7485   18.3877   23.7545 H   0  0  0  0  0  0  0  0  0  0  0  0
   21.1855   19.9187   23.0616 H   0  0  0  0  0  0  0  0  0  0  0  0
  1  2  1  0  0  0  0
  1  3  1  0  0  0  0
  1  4  1  0  0  0  0
  1  5  1  0  0  0  0
  5  6  1  0  0  0  0
  5  7  1  0  0  0  0
  5  8  1  0  0  0  0
  8  9  1  0  0  0  0
  8 10  1  0  0  0  0
  8 11  1  0  0  0  0
 11 12  1  0  0  0  0
 11 13  1  0  0  0  0
 11 14  1  0  0  0  0
 14 15  1  0  0  0  0
 14 16  1  0  0  0  0
 14 17  1  0  0  0  0
M  END
> <VConfSearch Rank>
393

> <Conf_Id>
19

> <Delta U+W>
2.662

> <U+W>
-13.203

> <U>
47.423

> <W>
-60.626

> <W(PB)>
-62.328

> <W(SA)>
1.702

> <Valence>
2.414

> <Coulomb>
44.831

> <VdW>
0.178

> <VdW6>
-3.743

> <VdW12>
3.921

> <Bond>
0.138

> <Angle>
0.941

> <Pdih>
1.335

> <Idih>
0.000

> <Tether>
0.000

$$$$
VeraChem MOL file


 17 16  0  0  0  0  0  0  0  0999 V2000     
   19.0183   17.8921   20.4412 N   0  3  0  0  0  0  0  0  0  0  0  0
   18.4031   17.7950   19.6269 H   0  0  0  0  0  0  0  0  0  0  0  0
   19.1007   16.9624   20.8636 H   0  0  0  0  0  0  0  0  0  0  0  0
   19.9452   18.1466   20.0906 H   0  0  0  0  0  0  0  0  0  0  0  0
   18.4902   18.9150   21.4285 C   0  0  0  0  0  0  0  0  0  0  0  0
   17.5051   18.5681   21.7522 H   0  0  0  0  0  0  0  0  0  0  0  0
   18.3585   19.8667   20.9068 H   0  0  0  0  0  0  0  0  0  0  0  0
   19.3843   19.1191   22.6697 C   0  0  0  0  0  0  0  0  0  0  0  0
   18.7619   19.5547   23.4627 H   0  0  0  0  0  0  0  0  0  0  0  0
   19.7231   18.1472   23.0525 H   0  0  0  0  0  0  0  0  0  0  0  0
   20.5944   20.0606   22.4424 C   0  0  0  0  0  0  0  0  0  0  0  0
   21.0965   20.2180   23.4073 H   0  0  0  0  0  0  0  0  0  0  0  0
   20.2381   21.0493   22.1205 H   0  0  0  0  0  0  0  0  0  0  0  0
   21.6335   19.5321   21.4275 C   0  0  0  0  0  0  0  0  0  0  0  0
   21.9398   18.5058   21.6684 H   0  0  0  0  0  0  0  0  0  0  0  0
   22.5336   20.1603   21.4424 H   0  0  0  0  0  0  0  0  0  0  0  0
   21.2429   19.5540   20.4034 H   0  0  0  0  0  0  0  0  0  0  0  0
  1  2  1  0  0  0  0
  1  3  1  0  0  0  0
  1  4  1  0  0  0  0
  1  5  1  0  0  0  0
  5  6  1  0  0  0  0
  5  7  1  0  0  0  0
  5  8  1  0  0  0  0
  8  9  1  0  0  0  0
  8 10  1  0  0  0  0
  8 11  1  0  0  0  0
 11 12  1  0  0  0  0
 11 13  1  0  0  0  0
 11 14  1  0  0  0  0
 14 15  1  0  0  0  0
 14 16  1  0  0  0  0
 14 17  1  0  0  0  0
M  END
> <VConfSearch Rank>
394

> <Conf_Id>
44

> <Delta U+W>
2.712

> <U+W>
-13.153

> <U>
47.423

> <W>
-60.576

> <W(PB)>
-62.262

> <W(SA)>
1.687

> <Valence>
2.414

> <Coulomb>
44.831

> <VdW>
0.178

> <VdW6>
-3.743

> <VdW12>
3.922

> <Bond>
0.138

> <Angle>
0.941

> <Pdih>
1.335

> <Idih>
0.000

> <Tether>
0.000

$$$$
VeraChem MOL file


 17 16  0  0  0  0  0  0  0  0999 V2000     
   19.1678   17.4047   20.7555 N   0  3  0  0  0  0  0  0  0  0  0  0
   20.1000   17.5480   20.3569 H   0  0  0  0  0  0  0  0  0  0  0  0
   18.4874   17.6370   20.0257 H   0  0  0  0  0  0  0  0  0  0  0  0
   19.0731   16.4013   20.9421 H   0  0  0  0  0  0  0  0  0  0  0  0
   18.9589   18.2336   22.0082 C   0  0  0  0  0  0  0  0  0  0  0  0
   19.6945   17.9161   22.7518 H   0  0  0  0  0  0  0  0  0  0  0  0
   17.9636   18.0032   22.3977 H   0  0  0  0  0  0  0  0  0  0  0  0
   19.0771   19.7541   21.7757 C   0  0  0  0  0  0  0  0  0  0  0  0
   18.3081   20.0698   21.0583 H   0  0  0  0  0  0  0  0  0  0  0  0
   18.8485   20.2720   22.7166 H   0  0  0  0  0  0  0  0  0  0  0  0
   20.4692   20.2077   21.2699 C   0  0  0  0  0  0  0  0  0  0  0  0
   20.4537   21.2964   21.1201 H   0  0  0  0  0  0  0  0  0  0  0  0
   20.6741   19.7691   20.2838 H   0  0  0  0  0  0  0  0  0  0  0  0
   21.6138   19.8515   22.2461 C   0  0  0  0  0  0  0  0  0  0  0  0
   21.4323   20.2802   23.2402 H   0  0  0  0  0  0  0  0  0  0  0  0
   22.5696   20.2482   21.8800 H   0  0  0  0  0  0  0  0  0  0  0  0
   21.7270   18.7657   22.3569 H   0  0  0  0  0  0  0  0  0  0  0  0
  1  2  1  0  0  0  0
  1  3  1  0  0  0  0
  1  4  1  0  0  0  0
  1  5  1  0  0  0  0
  5  6  1  0  0  0  0
  5  7  1  0  0  0  0
  5  8  1  0  0  0  0
  8  9  1  0  0  0  0
  8 10  1  0  0  0  0
  8 11  1  0  0  0  0
 11 12  1  0  0  0  0
 11 13  1  0  0  0  0
 11 14  1  0  0  0  0
 14 15  1  0  0  0  0
 14 16  1  0  0  0  0
 14 17  1  0  0  0  0
M  END
> <VConfSearch Rank>
395

> <Conf_Id>
1

> <Delta U+W>
0.685

> <U+W>
-15.179

> <U>
45.697

> <W>
-60.876

> <W(PB)>
-62.586

> <W(SA)>
1.710

> <Valence>
1.263

> <Coulomb>
44.179

> <VdW>
0.255

> <VdW6>
-3.552

> <VdW12>
3.807

> <Bond>
0.125

> <Angle>
0.616

> <Pdih>
0.521

> <Idih>
0.000

> <Tether>
0.000

$$$$
VeraChem MOL file


 17 16  0  0  0  0  0  0  0  0999 V2000     
   21.3573   19.9941   20.6165 N   0  3  0  0  0  0  0  0  0  0  0  0
   22.2099   20.0757   21.1785 H   0  0  0  0  0  0  0  0  0  0  0  0
   20.6998   20.7001   20.9596 H   0  0  0  0  0  0  0  0  0  0  0  0
   21.6065   20.2581   19.6579 H   0  0  0  0  0  0  0  0  0  0  0  0
   20.7679   18.5984   20.6820 C   0  0  0  0  0  0  0  0  0  0  0  0
   21.5054   17.9057   20.2677 H   0  0  0  0  0  0  0  0  0  0  0  0
   19.8831   18.5731   20.0407 H   0  0  0  0  0  0  0  0  0  0  0  0
   20.3896   18.1485   22.1084 C   0  0  0  0  0  0  0  0  0  0  0  0
   20.0346   17.1102   22.0666 H   0  0  0  0  0  0  0  0  0  0  0  0
   21.2919   18.1380   22.7342 H   0  0  0  0  0  0  0  0  0  0  0  0
   19.3079   19.0300   22.7809 C   0  0  0  0  0  0  0  0  0  0  0  0
   19.6838   20.0536   22.9137 H   0  0  0  0  0  0  0  0  0  0  0  0
   19.1155   18.6442   23.7919 H   0  0  0  0  0  0  0  0  0  0  0  0
   17.9776   19.0619   21.9941 C   0  0  0  0  0  0  0  0  0  0  0  0
   17.2219   19.6427   22.5386 H   0  0  0  0  0  0  0  0  0  0  0  0
   17.5805   18.0488   21.8492 H   0  0  0  0  0  0  0  0  0  0  0  0
   18.1029   19.5250   21.0073 H   0  0  0  0  0  0  0  0  0  0  0  0
  1  2  1  0  0  0  0
  1  3  1  0  0  0  0
  1  4  1  0  0  0  0
  1  5  1  0  0  0  0
  5  6  1  0  0  0  0
  5  7  1  0  0  0  0
  5  8  1  0  0  0  0
  8  9  1  0  0  0  0
  8 10  1  0  0  0  0
  8 11  1  0  0  0  0
 11 12  1  0  0  0  0
 11 13  1  0  0  0  0
 11 14  1  0  0  0  0
 14 15  1  0  0  0  0
 14 16  1  0  0  0  0
 14 17  1  0  0  0  0
M  END
> <VConfSearch Rank>
396

> <Conf_Id>
43

> <Delta U+W>
0.642

> <U+W>
-15.222

> <U>
45.697

> <W>
-60.919

> <W(PB)>
-62.631

> <W(SA)>
1.712

> <Valence>
1.262

> <Coulomb>
44.179

> <VdW>
0.255

> <VdW6>
-3.552

> <VdW12>
3.807

> <Bond>
0.125

> <Angle>
0.616

> <Pdih>
0.521

> <Idih>
0.000

> <Tether>
0.000

$$$$
VeraChem MOL file


 17 16  0  0  0  0  0  0  0  0999 V2000     
   20.3438   20.7045   19.6694 N   0  3  0  0  0  0  0  0  0  0  0  0
   21.1757   20.2535   19.2766 H   0  0  0  0  0  0  0  0  0  0  0  0
   20.6686   21.4968   20.2320 H   0  0  0  0  0  0  0  0  0  0  0  0
   19.8192   21.0965   18.8807 H   0  0  0  0  0  0  0  0  0  0  0  0
   19.5036   19.7384   20.4806 C   0  0  0  0  0  0  0  0  0  0  0  0
   19.1681   18.9401   19.8131 H   0  0  0  0  0  0  0  0  0  0  0  0
   18.6227   20.2770   20.8404 H   0  0  0  0  0  0  0  0  0  0  0  0
   20.2615   19.1301   21.6747 C   0  0  0  0  0  0  0  0  0  0  0  0
   21.1538   18.6033   21.3110 H   0  0  0  0  0  0  0  0  0  0  0  0
   20.6102   19.9355   22.3348 H   0  0  0  0  0  0  0  0  0  0  0  0
   19.3709   18.1531   22.4732 C   0  0  0  0  0  0  0  0  0  0  0  0
   19.0188   17.3484   21.8122 H   0  0  0  0  0  0  0  0  0  0  0  0
   18.4759   18.6791   22.8348 H   0  0  0  0  0  0  0  0  0  0  0  0
   20.1245   17.5388   23.6726 C   0  0  0  0  0  0  0  0  0  0  0  0
   19.4751   16.8483   24.2263 H   0  0  0  0  0  0  0  0  0  0  0  0
   20.4593   18.3176   24.3701 H   0  0  0  0  0  0  0  0  0  0  0  0
   21.0066   16.9765   23.3394 H   0  0  0  0  0  0  0  0  0  0  0  0
  1  2  1  0  0  0  0
  1  3  1  0  0  0  0
  1  4  1  0  0  0  0
  1  5  1  0  0  0  0
  5  6  1  0  0  0  0
  5  7  1  0  0  0  0
  5  8  1  0  0  0  0
  8  9  1  0  0  0  0
  8 10  1  0  0  0  0
  8 11  1  0  0  0  0
 11 12  1  0  0  0  0
 11 13  1  0  0  0  0
 11 14  1  0  0  0  0
 14 15  1  0  0  0  0
 14 16  1  0  0  0  0
 14 17  1  0  0  0  0
M  END
> <VConfSearch Rank>
397

> <Conf_Id>
7

> <Delta U+W>
0.000

> <U+W>
-15.865

> <U>
44.664

> <W>
-60.529

> <W(PB)>
-62.309

> <W(SA)>
1.780

> <Valence>
0.872

> <Coulomb>
43.648

> <VdW>
0.144

> <VdW6>
-2.370

> <VdW12>
2.515

> <Bond>
0.080

> <Angle>
0.376

> <Pdih>
0.416

> <Idih>
0.000

> <Tether>
0.000

$$$$
VeraChem MOL file


 17 16  0  0  0  0  0  0  0  0999 V2000     
   19.5677   19.6678   23.9377 N   0  3  0  0  0  0  0  0  0  0  0  0
   20.4780   19.8001   24.3889 H   0  0  0  0  0  0  0  0  0  0  0  0
   19.2059   18.7618   24.2506 H   0  0  0  0  0  0  0  0  0  0  0  0
   18.9414   20.3845   24.3184 H   0  0  0  0  0  0  0  0  0  0  0  0
   19.6654   19.7491   22.4274 C   0  0  0  0  0  0  0  0  0  0  0  0
   20.0274   20.7470   22.1654 H   0  0  0  0  0  0  0  0  0  0  0  0
   18.6584   19.6313   22.0189 H   0  0  0  0  0  0  0  0  0  0  0  0
   20.5998   18.6842   21.8216 C   0  0  0  0  0  0  0  0  0  0  0  0
   21.5980   18.7856   22.2680 H   0  0  0  0  0  0  0  0  0  0  0  0
   20.2372   17.6820   22.0862 H   0  0  0  0  0  0  0  0  0  0  0  0
   20.7217   18.8026   20.2844 C   0  0  0  0  0  0  0  0  0  0  0  0
   21.4601   18.0709   19.9275 H   0  0  0  0  0  0  0  0  0  0  0  0
   21.1161   19.7937   20.0194 H   0  0  0  0  0  0  0  0  0  0  0  0
   19.3813   18.5644   19.5519 C   0  0  0  0  0  0  0  0  0  0  0  0
   18.9621   17.5817   19.8046 H   0  0  0  0  0  0  0  0  0  0  0  0
   19.5259   18.5968   18.4642 H   0  0  0  0  0  0  0  0  0  0  0  0
   18.6390   19.3303   19.8097 H   0  0  0  0  0  0  0  0  0  0  0  0
  1  2  1  0  0  0  0
  1  3  1  0  0  0  0
  1  4  1  0  0  0  0
  1  5  1  0  0  0  0
  5  6  1  0  0  0  0
  5  7  1  0  0  0  0
  5  8  1  0  0  0  0
  8  9  1  0  0  0  0
  8 10  1  0  0  0  0
  8 11  1  0  0  0  0
 11 12  1  0  0  0  0
 11 13  1  0  0  0  0
 11 14  1  0  0  0  0
 14 15  1  0  0  0  0
 14 16  1  0  0  0  0
 14 17  1  0  0  0  0
M  END
> <VConfSearch Rank>
398

> <Conf_Id>
36

> <Delta U+W>
0.275

> <U+W>
-15.590

> <U>
45.174

> <W>
-60.765

> <W(PB)>
-62.518

> <W(SA)>
1.754

> <Valence>
1.161

> <Coulomb>
43.789

> <VdW>
0.224

> <VdW6>
-2.897

> <VdW12>
3.121

> <Bond>
0.100

> <Angle>
0.500

> <Pdih>
0.561

> <Idih>
0.000

> <Tether>
0.000

$$$$
VeraChem MOL file


 17 16  0  0  0  0  0  0  0  0999 V2000     
   20.3218   19.3318   23.3874 N   0  3  0  0  0  0  0  0  0  0  0  0
   21.1632   19.3924   22.8085 H   0  0  0  0  0  0  0  0  0  0  0  0
   20.3418   18.4198   23.8535 H   0  0  0  0  0  0  0  0  0  0  0  0
   20.4076   20.0425   24.1211 H   0  0  0  0  0  0  0  0  0  0  0  0
   19.0601   19.5176   22.5667 C   0  0  0  0  0  0  0  0  0  0  0  0
   19.0612   20.5286   22.1505 H   0  0  0  0  0  0  0  0  0  0  0  0
   18.2153   19.4370   23.2562 H   0  0  0  0  0  0  0  0  0  0  0  0
   18.8834   18.4860   21.4325 C   0  0  0  0  0  0  0  0  0  0  0  0
   19.1272   17.4799   21.7985 H   0  0  0  0  0  0  0  0  0  0  0  0
   17.8182   18.4598   21.1666 H   0  0  0  0  0  0  0  0  0  0  0  0
   19.6880   18.8014   20.1457 C   0  0  0  0  0  0  0  0  0  0  0  0
   19.3889   19.7839   19.7543 H   0  0  0  0  0  0  0  0  0  0  0  0
   19.4088   18.0694   19.3749 H   0  0  0  0  0  0  0  0  0  0  0  0
   21.2226   18.7645   20.3265 C   0  0  0  0  0  0  0  0  0  0  0  0
   21.5775   19.6107   20.9263 H   0  0  0  0  0  0  0  0  0  0  0  0
   21.7223   18.8289   19.3512 H   0  0  0  0  0  0  0  0  0  0  0  0
   21.5453   17.8306   20.8048 H   0  0  0  0  0  0  0  0  0  0  0  0
  1  2  1  0  0  0  0
  1  3  1  0  0  0  0
  1  4  1  0  0  0  0
  1  5  1  0  0  0  0
  5  6  1  0  0  0  0
  5  7  1  0  0  0  0
  5  8  1  0  0  0  0
  8  9  1  0  0  0  0
  8 10  1  0  0  0  0
  8 11  1  0  0  0  0
 11 12  1  0  0  0  0
 11 13  1  0  0  0  0
 11 14  1  0  0  0  0
 14 15  1  0  0  0  0
 14 16  1  0  0  0  0
 14 17  1  0  0  0  0
M  END
> <VConfSearch Rank>
399

> <Conf_Id>
19

> <Delta U+W>
2.662

> <U+W>
-13.203

> <U>
47.423

> <W>
-60.626

> <W(PB)>
-62.328

> <W(SA)>
1.702

> <Valence>
2.414

> <Coulomb>
44.831

> <VdW>
0.178

> <VdW6>
-3.743

> <VdW12>
3.921

> <Bond>
0.138

> <Angle>
0.941

> <Pdih>
1.335

> <Idih>
0.000

> <Tether>
0.000

$$$$
VeraChem MOL file


 17 16  0  0  0  0  0  0  0  0999 V2000     
   20.8163   18.6045   23.1400 N   0  3  0  0  0  0  0  0  0  0  0  0
   21.7338   18.5264   23.5905 H   0  0  0  0  0  0  0  0  0  0  0  0
   20.1456   18.1230   23.7466 H   0  0  0  0  0  0  0  0  0  0  0  0
   20.5636   19.5960   23.1395 H   0  0  0  0  0  0  0  0  0  0  0  0
   20.8250   18.0257   21.7383 C   0  0  0  0  0  0  0  0  0  0  0  0
   21.1005   16.9715   21.8293 H   0  0  0  0  0  0  0  0  0  0  0  0
   21.6031   18.5293   21.1585 H   0  0  0  0  0  0  0  0  0  0  0  0
   19.4736   18.1302   21.0004 C   0  0  0  0  0  0  0  0  0  0  0  0
   19.4701   17.3785   20.1999 H   0  0  0  0  0  0  0  0  0  0  0  0
   18.6540   17.8537   21.6767 H   0  0  0  0  0  0  0  0  0  0  0  0
   19.1981   19.5131   20.3566 C   0  0  0  0  0  0  0  0  0  0  0  0
   18.2688   19.4445   19.7737 H   0  0  0  0  0  0  0  0  0  0  0  0
   19.9926   19.7496   19.6349 H   0  0  0  0  0  0  0  0  0  0  0  0
   19.0598   20.6730   21.3687 C   0  0  0  0  0  0  0  0  0  0  0  0
   18.3396   20.4277   22.1601 H   0  0  0  0  0  0  0  0  0  0  0  0
   18.7022   21.5791   20.8625 H   0  0  0  0  0  0  0  0  0  0  0  0
   20.0226   20.9212   21.8304 H   0  0  0  0  0  0  0  0  0  0  0  0
  1  2  1  0  0  0  0
  1  3  1  0  0  0  0
  1  4  1  0  0  0  0
  1  5  1  0  0  0  0
  5  6  1  0  0  0  0
  5  7  1  0  0  0  0
  5  8  1  0  0  0  0
  8  9  1  0  0  0  0
  8 10  1  0  0  0  0
  8 11  1  0  0  0  0
 11 12  1  0  0  0  0
 11 13  1  0  0  0  0
 11 14  1  0  0  0  0
 14 15  1  0  0  0  0
 14 16  1  0  0  0  0
 14 17  1  0  0  0  0
M  END
> <VConfSearch Rank>
400

> <Conf_Id>
44

> <Delta U+W>
2.712

> <U+W>
-13.153

> <U>
47.423

> <W>
-60.576

> <W(PB)>
-62.262

> <W(SA)>
1.687

> <Valence>
2.414

> <Coulomb>
44.831

> <VdW>
0.178

> <VdW6>
-3.743

> <VdW12>
3.922

> <Bond>
0.138

> <Angle>
0.941

> <Pdih>
1.335

> <Idih>
0.000

> <Tether>
0.000

$$$$
VeraChem MOL file


 17 16  0  0  0  0  0  0  0  0999 V2000     
   21.1836   20.1047   20.4993 N   0  3  0  0  0  0  0  0  0  0  0  0
   20.2952   20.0738   19.9912 H   0  0  0  0  0  0  0  0  0  0  0  0
   21.8421   19.5037   19.9948 H   0  0  0  0  0  0  0  0  0  0  0  0
   21.5381   21.0635   20.4241 H   0  0  0  0  0  0  0  0  0  0  0  0
   21.0194   19.6759   21.9446 C   0  0  0  0  0  0  0  0  0  0  0  0
   20.3310   20.3729   22.4294 H   0  0  0  0  0  0  0  0  0  0  0  0
   21.9936   19.7691   22.4323 H   0  0  0  0  0  0  0  0  0  0  0  0
   20.5011   18.2324   22.1109 C   0  0  0  0  0  0  0  0  0  0  0  0
   21.2192   17.5370   21.6566 H   0  0  0  0  0  0  0  0  0  0  0  0
   20.4758   17.9895   23.1815 H   0  0  0  0  0  0  0  0  0  0  0  0
   19.0974   17.9929   21.5011 C   0  0  0  0  0  0  0  0  0  0  0  0
   18.8201   16.9405   21.6541 H   0  0  0  0  0  0  0  0  0  0  0  0
   19.1277   18.1432   20.4133 H   0  0  0  0  0  0  0  0  0  0  0  0
   18.0059   18.8951   22.1211 C   0  0  0  0  0  0  0  0  0  0  0  0
   17.9553   18.7619   23.2096 H   0  0  0  0  0  0  0  0  0  0  0  0
   17.0200   18.6463   21.7074 H   0  0  0  0  0  0  0  0  0  0  0  0
   18.1933   19.9562   21.9142 H   0  0  0  0  0  0  0  0  0  0  0  0
  1  2  1  0  0  0  0
  1  3  1  0  0  0  0
  1  4  1  0  0  0  0
  1  5  1  0  0  0  0
  5  6  1  0  0  0  0
  5  7  1  0  0  0  0
  5  8  1  0  0  0  0
  8  9  1  0  0  0  0
  8 10  1  0  0  0  0
  8 11  1  0  0  0  0
 11 12  1  0  0  0  0
 11 13  1  0  0  0  0
 11 14  1  0  0  0  0
 14 15  1  0  0  0  0
 14 16  1  0  0  0  0
 14 17  1  0  0  0  0
M  END
> <VConfSearch Rank>
401

> <Conf_Id>
1

> <Delta U+W>
0.685

> <U+W>
-15.179

> <U>
45.697

> <W>
-60.876

> <W(PB)>
-62.586

> <W(SA)>
1.710

> <Valence>
1.263

> <Coulomb>
44.179

> <VdW>
0.255

> <VdW6>
-3.552

> <VdW12>
3.807

> <Bond>
0.125

> <Angle>
0.616

> <Pdih>
0.521

> <Idih>
0.000

> <Tether>
0.000

$$$$
VeraChem MOL file


 17 16  0  0  0  0  0  0  0  0999 V2000     
   21.0160   17.3711   21.5288 N   0  3  0  0  0  0  0  0  0  0  0  0
   20.8353   16.7678   22.3367 H   0  0  0  0  0  0  0  0  0  0  0  0
   21.6335   18.1240   21.8453 H   0  0  0  0  0  0  0  0  0  0  0  0
   21.5471   16.8125   20.8531 H   0  0  0  0  0  0  0  0  0  0  0  0
   19.7327   17.9120   20.9284 C   0  0  0  0  0  0  0  0  0  0  0  0
   19.1429   17.0597   20.5801 H   0  0  0  0  0  0  0  0  0  0  0  0
   19.9947   18.5196   20.0584 H   0  0  0  0  0  0  0  0  0  0  0  0
   18.8892   18.7488   21.9124 C   0  0  0  0  0  0  0  0  0  0  0  0
   17.9557   19.0417   21.4138 H   0  0  0  0  0  0  0  0  0  0  0  0
   18.5967   18.1186   22.7627 H   0  0  0  0  0  0  0  0  0  0  0  0
   19.6067   20.0179   22.4359 C   0  0  0  0  0  0  0  0  0  0  0  0
   20.4954   19.7366   23.0170 H   0  0  0  0  0  0  0  0  0  0  0  0
   18.9387   20.5384   23.1366 H   0  0  0  0  0  0  0  0  0  0  0  0
   20.0101   20.9945   21.3075 C   0  0  0  0  0  0  0  0  0  0  0  0
   20.4546   21.9059   21.7277 H   0  0  0  0  0  0  0  0  0  0  0  0
   19.1371   21.2917   20.7121 H   0  0  0  0  0  0  0  0  0  0  0  0
   20.7495   20.5472   20.6314 H   0  0  0  0  0  0  0  0  0  0  0  0
  1  2  1  0  0  0  0
  1  3  1  0  0  0  0
  1  4  1  0  0  0  0
  1  5  1  0  0  0  0
  5  6  1  0  0  0  0
  5  7  1  0  0  0  0
  5  8  1  0  0  0  0
  8  9  1  0  0  0  0
  8 10  1  0  0  0  0
  8 11  1  0  0  0  0
 11 12  1  0  0  0  0
 11 13  1  0  0  0  0
 11 14  1  0  0  0  0
 14 15  1  0  0  0  0
 14 16  1  0  0  0  0
 14 17  1  0  0  0  0
M  END
> <VConfSearch Rank>
402

> <Conf_Id>
43

> <Delta U+W>
0.642

> <U+W>
-15.222

> <U>
45.697

> <W>
-60.919

> <W(PB)>
-62.631

> <W(SA)>
1.712

> <Valence>
1.262

> <Coulomb>
44.179

> <VdW>
0.255

> <VdW6>
-3.552

> <VdW12>
3.807

> <Bond>
0.125

> <Angle>
0.616

> <Pdih>
0.521

> <Idih>
0.000

> <Tether>
0.000

$$$$
VeraChem MOL file


 17 16  0  0  0  0  0  0  0  0999 V2000     
   22.2440   19.5824   22.6431 N   0  3  0  0  0  0  0  0  0  0  0  0
   22.0186   20.5169   22.9975 H   0  0  0  0  0  0  0  0  0  0  0  0
   22.7618   19.7094   21.7682 H   0  0  0  0  0  0  0  0  0  0  0  0
   22.8944   19.1602   23.3136 H   0  0  0  0  0  0  0  0  0  0  0  0
   21.0032   18.7334   22.4505 C   0  0  0  0  0  0  0  0  0  0  0  0
   20.5209   18.6148   23.4246 H   0  0  0  0  0  0  0  0  0  0  0  0
   21.3201   17.7465   22.1027 H   0  0  0  0  0  0  0  0  0  0  0  0
   20.0034   19.3388   21.4484 C   0  0  0  0  0  0  0  0  0  0  0  0
   19.6994   20.3362   21.7930 H   0  0  0  0  0  0  0  0  0  0  0  0
   20.4958   19.4707   20.4756 H   0  0  0  0  0  0  0  0  0  0  0  0
   18.7556   18.4440   21.2818 C   0  0  0  0  0  0  0  0  0  0  0  0
   18.2642   18.3089   22.2558 H   0  0  0  0  0  0  0  0  0  0  0  0
   19.0596   17.4445   20.9400 H   0  0  0  0  0  0  0  0  0  0  0  0
   17.7481   19.0450   20.2780 C   0  0  0  0  0  0  0  0  0  0  0  0
   16.8696   18.3949   20.1740 H   0  0  0  0  0  0  0  0  0  0  0  0
   18.2007   19.1600   19.2844 H   0  0  0  0  0  0  0  0  0  0  0  0
   17.3991   20.0312   20.6106 H   0  0  0  0  0  0  0  0  0  0  0  0
  1  2  1  0  0  0  0
  1  3  1  0  0  0  0
  1  4  1  0  0  0  0
  1  5  1  0  0  0  0
  5  6  1  0  0  0  0
  5  7  1  0  0  0  0
  5  8  1  0  0  0  0
  8  9  1  0  0  0  0
  8 10  1  0  0  0  0
  8 11  1  0  0  0  0
 11 12  1  0  0  0  0
 11 13  1  0  0  0  0
 11 14  1  0  0  0  0
 14 15  1  0  0  0  0
 14 16  1  0  0  0  0
 14 17  1  0  0  0  0
M  END
> <VConfSearch Rank>
403

> <Conf_Id>
7

> <Delta U+W>
0.000

> <U+W>
-15.865

> <U>
44.664

> <W>
-60.529

> <W(PB)>
-62.309

> <W(SA)>
1.780

> <Valence>
0.872

> <Coulomb>
43.648

> <VdW>
0.144

> <VdW6>
-2.370

> <VdW12>
2.515

> <Bond>
0.080

> <Angle>
0.376

> <Pdih>
0.416

> <Idih>
0.000

> <Tether>
0.000

$$$$
VeraChem MOL file


 17 16  0  0  0  0  0  0  0  0999 V2000     
   19.2826   16.9681   22.5595 N   0  3  0  0  0  0  0  0  0  0  0  0
   18.4502   16.6307   22.0666 H   0  0  0  0  0  0  0  0  0  0  0  0
   18.9729   17.3076   23.4752 H   0  0  0  0  0  0  0  0  0  0  0  0
   19.8766   16.1506   22.7319 H   0  0  0  0  0  0  0  0  0  0  0  0
   20.0123   18.0395   21.7740 C   0  0  0  0  0  0  0  0  0  0  0  0
   20.3384   17.6012   20.8269 H   0  0  0  0  0  0  0  0  0  0  0  0
   20.9005   18.3267   22.3428 H   0  0  0  0  0  0  0  0  0  0  0  0
   19.1473   19.2842   21.4974 C   0  0  0  0  0  0  0  0  0  0  0  0
   18.2389   18.9791   20.9610 H   0  0  0  0  0  0  0  0  0  0  0  0
   18.8184   19.7235   22.4486 H   0  0  0  0  0  0  0  0  0  0  0  0
   19.8900   20.3530   20.6619 C   0  0  0  0  0  0  0  0  0  0  0  0
   19.1953   21.1733   20.4330 H   0  0  0  0  0  0  0  0  0  0  0  0
   20.1908   19.9244   19.6954 H   0  0  0  0  0  0  0  0  0  0  0  0
   21.1303   20.9291   21.3828 C   0  0  0  0  0  0  0  0  0  0  0  0
   20.8577   21.3589   22.3555 H   0  0  0  0  0  0  0  0  0  0  0  0
   21.5895   21.7250   20.7822 H   0  0  0  0  0  0  0  0  0  0  0  0
   21.8937   20.1589   21.5502 H   0  0  0  0  0  0  0  0  0  0  0  0
  1  2  1  0  0  0  0
  1  3  1  0  0  0  0
  1  4  1  0  0  0  0
  1  5  1  0  0  0  0
  5  6  1  0  0  0  0
  5  7  1  0  0  0  0
  5  8  1  0  0  0  0
  8  9  1  0  0  0  0
  8 10  1  0  0  0  0
  8 11  1  0  0  0  0
 11 12  1  0  0  0  0
 11 13  1  0  0  0  0
 11 14  1  0  0  0  0
 14 15  1  0  0  0  0
 14 16  1  0  0  0  0
 14 17  1  0  0  0  0
M  END
> <VConfSearch Rank>
404

> <Conf_Id>
36

> <Delta U+W>
0.275

> <U+W>
-15.590

> <U>
45.174

> <W>
-60.765

> <W(PB)>
-62.518

> <W(SA)>
1.754

> <Valence>
1.161

> <Coulomb>
43.789

> <VdW>
0.224

> <VdW6>
-2.897

> <VdW12>
3.121

> <Bond>
0.100

> <Angle>
0.500

> <Pdih>
0.561

> <Idih>
0.000

> <Tether>
0.000

$$$$
VeraChem MOL file


 17 16  0  0  0  0  0  0  0  0999 V2000     
   20.5110   19.2566   19.8537 N   0  3  0  0  0  0  0  0  0  0  0  0
   19.5578   18.8858   19.8793 H   0  0  0  0  0  0  0  0  0  0  0  0
   21.1335   18.4726   19.6359 H   0  0  0  0  0  0  0  0  0  0  0  0
   20.5620   19.9055   19.0618 H   0  0  0  0  0  0  0  0  0  0  0  0
   20.8879   19.9294   21.1596 C   0  0  0  0  0  0  0  0  0  0  0  0
   20.2369   20.7955   21.3055 H   0  0  0  0  0  0  0  0  0  0  0  0
   21.9132   20.2924   21.0480 H   0  0  0  0  0  0  0  0  0  0  0  0
   20.8130   19.0059   22.3938 C   0  0  0  0  0  0  0  0  0  0  0  0
   21.2575   18.0295   22.1598 H   0  0  0  0  0  0  0  0  0  0  0  0
   21.4442   19.4438   23.1785 H   0  0  0  0  0  0  0  0  0  0  0  0
   19.3876   18.8241   22.9749 C   0  0  0  0  0  0  0  0  0  0  0  0
   18.9786   19.8025   23.2637 H   0  0  0  0  0  0  0  0  0  0  0  0
   19.4643   18.2409   23.9034 H   0  0  0  0  0  0  0  0  0  0  0  0
   18.3969   18.1113   22.0265 C   0  0  0  0  0  0  0  0  0  0  0  0
   18.1234   18.7487   21.1776 H   0  0  0  0  0  0  0  0  0  0  0  0
   17.4683   17.8681   22.5592 H   0  0  0  0  0  0  0  0  0  0  0  0
   18.8170   17.1720   21.6440 H   0  0  0  0  0  0  0  0  0  0  0  0
  1  2  1  0  0  0  0
  1  3  1  0  0  0  0
  1  4  1  0  0  0  0
  1  5  1  0  0  0  0
  5  6  1  0  0  0  0
  5  7  1  0  0  0  0
  5  8  1  0  0  0  0
  8  9  1  0  0  0  0
  8 10  1  0  0  0  0
  8 11  1  0  0  0  0
 11 12  1  0  0  0  0
 11 13  1  0  0  0  0
 11 14  1  0  0  0  0
 14 15  1  0  0  0  0
 14 16  1  0  0  0  0
 14 17  1  0  0  0  0
M  END
> <VConfSearch Rank>
405

> <Conf_Id>
19

> <Delta U+W>
2.662

> <U+W>
-13.203

> <U>
47.423

> <W>
-60.626

> <W(PB)>
-62.328

> <W(SA)>
1.702

> <Valence>
2.414

> <Coulomb>
44.831

> <VdW>
0.178

> <VdW6>
-3.743

> <VdW12>
3.921

> <Bond>
0.138

> <Angle>
0.941

> <Pdih>
1.335

> <Idih>
0.000

> <Tether>
0.000

$$$$
VeraChem MOL file


 17 16  0  0  0  0  0  0  0  0999 V2000     
   18.2418   19.9387   21.5938 N   0  3  0  0  0  0  0  0  0  0  0  0
   17.2471   19.8924   21.8372 H   0  0  0  0  0  0  0  0  0  0  0  0
   18.3628   20.7604   20.9940 H   0  0  0  0  0  0  0  0  0  0  0  0
   18.7564   20.1195   22.4594 H   0  0  0  0  0  0  0  0  0  0  0  0
   18.7156   18.6692   20.9126 C   0  0  0  0  0  0  0  0  0  0  0  0
   18.1202   18.5531   20.0029 H   0  0  0  0  0  0  0  0  0  0  0  0
   18.4999   17.8212   21.5681 H   0  0  0  0  0  0  0  0  0  0  0  0
   20.2124   18.6716   20.5370 C   0  0  0  0  0  0  0  0  0  0  0  0
   20.3602   17.9247   19.7457 H   0  0  0  0  0  0  0  0  0  0  0  0
   20.4870   19.6380   20.0940 H   0  0  0  0  0  0  0  0  0  0  0  0
   21.1690   18.3231   21.7059 C   0  0  0  0  0  0  0  0  0  0  0  0
   22.1905   18.2499   21.3069 H   0  0  0  0  0  0  0  0  0  0  0  0
   20.9243   17.3263   22.0990 H   0  0  0  0  0  0  0  0  0  0  0  0
   21.1646   19.3482   22.8625 C   0  0  0  0  0  0  0  0  0  0  0  0
   21.3124   20.3702   22.4899 H   0  0  0  0  0  0  0  0  0  0  0  0
   21.9775   19.1301   23.5673 H   0  0  0  0  0  0  0  0  0  0  0  0
   20.2277   19.3102   23.4303 H   0  0  0  0  0  0  0  0  0  0  0  0
  1  2  1  0  0  0  0
  1  3  1  0  0  0  0
  1  4  1  0  0  0  0
  1  5  1  0  0  0  0
  5  6  1  0  0  0  0
  5  7  1  0  0  0  0
  5  8  1  0  0  0  0
  8  9  1  0  0  0  0
  8 10  1  0  0  0  0
  8 11  1  0  0  0  0
 11 12  1  0  0  0  0
 11 13  1  0  0  0  0
 11 14  1  0  0  0  0
 14 15  1  0  0  0  0
 14 16  1  0  0  0  0
 14 17  1  0  0  0  0
M  END
> <VConfSearch Rank>
406

> <Conf_Id>
44

> <Delta U+W>
2.712

> <U+W>
-13.153

> <U>
47.423

> <W>
-60.576

> <W(PB)>
-62.262

> <W(SA)>
1.687

> <Valence>
2.414

> <Coulomb>
44.831

> <VdW>
0.178

> <VdW6>
-3.743

> <VdW12>
3.922

> <Bond>
0.138

> <Angle>
0.941

> <Pdih>
1.335

> <Idih>
0.000

> <Tether>
0.000

$$$$
VeraChem MOL file


 17 16  0  0  0  0  0  0  0  0999 V2000     
   18.8554   17.4501   21.0593 N   0  3  0  0  0  0  0  0  0  0  0  0
   18.2902   18.2770   20.8467 H   0  0  0  0  0  0  0  0  0  0  0  0
   18.4277   16.9910   21.8690 H   0  0  0  0  0  0  0  0  0  0  0  0
   18.7564   16.8081   20.2664 H   0  0  0  0  0  0  0  0  0  0  0  0
   20.3059   17.8116   21.3146 C   0  0  0  0  0  0  0  0  0  0  0  0
   20.7071   18.2679   20.4060 H   0  0  0  0  0  0  0  0  0  0  0  0
   20.8535   16.8828   21.4963 H   0  0  0  0  0  0  0  0  0  0  0  0
   20.5089   18.7661   22.5094 C   0  0  0  0  0  0  0  0  0  0  0  0
   20.1400   18.2826   23.4237 H   0  0  0  0  0  0  0  0  0  0  0  0
   21.5861   18.9191   22.6578 H   0  0  0  0  0  0  0  0  0  0  0  0
   19.8176   20.1421   22.3410 C   0  0  0  0  0  0  0  0  0  0  0  0
   20.0041   20.7443   23.2413 H   0  0  0  0  0  0  0  0  0  0  0  0
   18.7283   20.0129   22.2831 H   0  0  0  0  0  0  0  0  0  0  0  0
   20.3158   20.9224   21.1029 C   0  0  0  0  0  0  0  0  0  0  0  0
   21.4036   21.0656   21.1381 H   0  0  0  0  0  0  0  0  0  0  0  0
   19.8489   21.9150   21.0599 H   0  0  0  0  0  0  0  0  0  0  0  0
   20.0691   20.4001   20.1700 H   0  0  0  0  0  0  0  0  0  0  0  0
  1  2  1  0  0  0  0
  1  3  1  0  0  0  0
  1  4  1  0  0  0  0
  1  5  1  0  0  0  0
  5  6  1  0  0  0  0
  5  7  1  0  0  0  0
  5  8  1  0  0  0  0
  8  9  1  0  0  0  0
  8 10  1  0  0  0  0
  8 11  1  0  0  0  0
 11 12  1  0  0  0  0
 11 13  1  0  0  0  0
 11 14  1  0  0  0  0
 14 15  1  0  0  0  0
 14 16  1  0  0  0  0
 14 17  1  0  0  0  0
M  END
> <VConfSearch Rank>
407

> <Conf_Id>
1

> <Delta U+W>
0.685

> <U+W>
-15.179

> <U>
45.697

> <W>
-60.876

> <W(PB)>
-62.586

> <W(SA)>
1.710

> <Valence>
1.263

> <Coulomb>
44.179

> <VdW>
0.255

> <VdW6>
-3.552

> <VdW12>
3.807

> <Bond>
0.125

> <Angle>
0.616

> <Pdih>
0.521

> <Idih>
0.000

> <Tether>
0.000

$$$$
VeraChem MOL file


 17 16  0  0  0  0  0  0  0  0999 V2000     
   18.2097   18.0300   21.5649 N   0  3  0  0  0  0  0  0  0  0  0  0
   17.6393   18.2898   20.7546 H   0  0  0  0  0  0  0  0  0  0  0  0
   18.1090   18.7769   22.2580 H   0  0  0  0  0  0  0  0  0  0  0  0
   17.7870   17.1880   21.9687 H   0  0  0  0  0  0  0  0  0  0  0  0
   19.6612   17.8065   21.1866 C   0  0  0  0  0  0  0  0  0  0  0  0
   19.6962   16.9756   20.4768 H   0  0  0  0  0  0  0  0  0  0  0  0
   20.2039   17.5051   22.0863 H   0  0  0  0  0  0  0  0  0  0  0  0
   20.3389   19.0426   20.5599 C   0  0  0  0  0  0  0  0  0  0  0  0
   21.3596   18.7697   20.2609 H   0  0  0  0  0  0  0  0  0  0  0  0
   19.8115   19.3127   19.6354 H   0  0  0  0  0  0  0  0  0  0  0  0
   20.3950   20.2739   21.4981 C   0  0  0  0  0  0  0  0  0  0  0  0
   19.3780   20.6162   21.7331 H   0  0  0  0  0  0  0  0  0  0  0  0
   20.8783   21.1039   20.9640 H   0  0  0  0  0  0  0  0  0  0  0  0
   21.1686   20.0018   22.8086 C   0  0  0  0  0  0  0  0  0  0  0  0
   21.2393   20.9167   23.4110 H   0  0  0  0  0  0  0  0  0  0  0  0
   22.1903   19.6588   22.5997 H   0  0  0  0  0  0  0  0  0  0  0  0
   20.6701   19.2401   23.4212 H   0  0  0  0  0  0  0  0  0  0  0  0
  1  2  1  0  0  0  0
  1  3  1  0  0  0  0
  1  4  1  0  0  0  0
  1  5  1  0  0  0  0
  5  6  1  0  0  0  0
  5  7  1  0  0  0  0
  5  8  1  0  0  0  0
  8  9  1  0  0  0  0
  8 10  1  0  0  0  0
  8 11  1  0  0  0  0
 11 12  1  0  0  0  0
 11 13  1  0  0  0  0
 11 14  1  0  0  0  0
 14 15  1  0  0  0  0
 14 16  1  0  0  0  0
 14 17  1  0  0  0  0
M  END
> <VConfSearch Rank>
408

> <Conf_Id>
43

> <Delta U+W>
0.642

> <U+W>
-15.222

> <U>
45.697

> <W>
-60.919

> <W(PB)>
-62.631

> <W(SA)>
1.712

> <Valence>
1.262

> <Coulomb>
44.179

> <VdW>
0.255

> <VdW6>
-3.552

> <VdW12>
3.807

> <Bond>
0.125

> <Angle>
0.616

> <Pdih>
0.521

> <Idih>
0.000

> <Tether>
0.000

$$$$
VeraChem MOL file


 17 16  0  0  0  0  0  0  0  0999 V2000     
   21.1235   21.2264   20.8698 N   0  3  0  0  0  0  0  0  0  0  0  0
   21.1310   21.6889   21.7840 H   0  0  0  0  0  0  0  0  0  0  0  0
   20.3434   21.6242   20.3379 H   0  0  0  0  0  0  0  0  0  0  0  0
   21.9839   21.5076   20.3886 H   0  0  0  0  0  0  0  0  0  0  0  0
   21.0151   19.7199   20.9963 C   0  0  0  0  0  0  0  0  0  0  0  0
   21.8911   19.3633   21.5449 H   0  0  0  0  0  0  0  0  0  0  0  0
   21.0443   19.2937   19.9899 H   0  0  0  0  0  0  0  0  0  0  0  0
   19.7329   19.2622   21.7151 C   0  0  0  0  0  0  0  0  0  0  0  0
   19.6994   19.7046   22.7197 H   0  0  0  0  0  0  0  0  0  0  0  0
   18.8555   19.6351   21.1700 H   0  0  0  0  0  0  0  0  0  0  0  0
   19.6620   17.7230   21.8228 C   0  0  0  0  0  0  0  0  0  0  0  0
   20.5416   17.3489   22.3655 H   0  0  0  0  0  0  0  0  0  0  0  0
   19.6987   17.2795   20.8177 H   0  0  0  0  0  0  0  0  0  0  0  0
   18.3783   17.2564   22.5428 C   0  0  0  0  0  0  0  0  0  0  0  0
   18.3471   16.1611   22.6090 H   0  0  0  0  0  0  0  0  0  0  0  0
   17.4806   17.5864   22.0040 H   0  0  0  0  0  0  0  0  0  0  0  0
   18.3302   17.6565   23.5640 H   0  0  0  0  0  0  0  0  0  0  0  0
  1  2  1  0  0  0  0
  1  3  1  0  0  0  0
  1  4  1  0  0  0  0
  1  5  1  0  0  0  0
  5  6  1  0  0  0  0
  5  7  1  0  0  0  0
  5  8  1  0  0  0  0
  8  9  1  0  0  0  0
  8 10  1  0  0  0  0
  8 11  1  0  0  0  0
 11 12  1  0  0  0  0
 11 13  1  0  0  0  0
 11 14  1  0  0  0  0
 14 15  1  0  0  0  0
 14 16  1  0  0  0  0
 14 17  1  0  0  0  0
M  END
> <VConfSearch Rank>
409

> <Conf_Id>
7

> <Delta U+W>
0.000

> <U+W>
-15.865

> <U>
44.664

> <W>
-60.529

> <W(PB)>
-62.309

> <W(SA)>
1.780

> <Valence>
0.872

> <Coulomb>
43.648

> <VdW>
0.144

> <VdW6>
-2.370

> <VdW12>
2.515

> <Bond>
0.080

> <Angle>
0.376

> <Pdih>
0.416

> <Idih>
0.000

> <Tether>
0.000

$$$$
VeraChem MOL file


 17 16  0  0  0  0  0  0  0  0999 V2000     
   21.1478   19.1675   19.5380 N   0  3  0  0  0  0  0  0  0  0  0  0
   21.7080   20.0250   19.5147 H   0  0  0  0  0  0  0  0  0  0  0  0
   20.3491   19.3131   18.9131 H   0  0  0  0  0  0  0  0  0  0  0  0
   21.7208   18.4279   19.1192 H   0  0  0  0  0  0  0  0  0  0  0  0
   20.7104   18.8131   20.9453 C   0  0  0  0  0  0  0  0  0  0  0  0
   21.6083   18.6432   21.5455 H   0  0  0  0  0  0  0  0  0  0  0  0
   20.1482   17.8769   20.8964 H   0  0  0  0  0  0  0  0  0  0  0  0
   19.8459   19.9046   21.6050 C   0  0  0  0  0  0  0  0  0  0  0  0
   20.4044   20.8501   21.6128 H   0  0  0  0  0  0  0  0  0  0  0  0
   18.9449   20.0765   21.0012 H   0  0  0  0  0  0  0  0  0  0  0  0
   19.4390   19.5486   23.0540 C   0  0  0  0  0  0  0  0  0  0  0  0
   18.8961   20.3983   23.4913 H   0  0  0  0  0  0  0  0  0  0  0  0
   20.3400   19.4088   23.6679 H   0  0  0  0  0  0  0  0  0  0  0  0
   18.5516   18.2856   23.1393 C   0  0  0  0  0  0  0  0  0  0  0  0
   17.6460   18.3970   22.5288 H   0  0  0  0  0  0  0  0  0  0  0  0
   18.2367   18.1058   24.1754 H   0  0  0  0  0  0  0  0  0  0  0  0
   19.0880   17.3917   22.7970 H   0  0  0  0  0  0  0  0  0  0  0  0
  1  2  1  0  0  0  0
  1  3  1  0  0  0  0
  1  4  1  0  0  0  0
  1  5  1  0  0  0  0
  5  6  1  0  0  0  0
  5  7  1  0  0  0  0
  5  8  1  0  0  0  0
  8  9  1  0  0  0  0
  8 10  1  0  0  0  0
  8 11  1  0  0  0  0
 11 12  1  0  0  0  0
 11 13  1  0  0  0  0
 11 14  1  0  0  0  0
 14 15  1  0  0  0  0
 14 16  1  0  0  0  0
 14 17  1  0  0  0  0
M  END
> <VConfSearch Rank>
410

> <Conf_Id>
36

> <Delta U+W>
0.275

> <U+W>
-15.590

> <U>
45.174

> <W>
-60.765

> <W(PB)>
-62.518

> <W(SA)>
1.754

> <Valence>
1.161

> <Coulomb>
43.789

> <VdW>
0.224

> <VdW6>
-2.897

> <VdW12>
3.121

> <Bond>
0.100

> <Angle>
0.500

> <Pdih>
0.561

> <Idih>
0.000

> <Tether>
0.000

$$$$
VeraChem MOL file


 17 16  0  0  0  0  0  0  0  0999 V2000     
   21.0604   20.0178   22.6665 N   0  3  0  0  0  0  0  0  0  0  0  0
   20.9734   20.4135   21.7270 H   0  0  0  0  0  0  0  0  0  0  0  0
   21.9544   19.5187   22.7016 H   0  0  0  0  0  0  0  0  0  0  0  0
   21.1331   20.8040   23.3203 H   0  0  0  0  0  0  0  0  0  0  0  0
   19.8941   19.1092   23.0041 C   0  0  0  0  0  0  0  0  0  0  0  0
   18.9793   19.7078   23.0183 H   0  0  0  0  0  0  0  0  0  0  0  0
   20.0658   18.7308   24.0155 H   0  0  0  0  0  0  0  0  0  0  0  0
   19.7216   17.9144   22.0428 C   0  0  0  0  0  0  0  0  0  0  0  0
   20.6978   17.4579   21.8322 H   0  0  0  0  0  0  0  0  0  0  0  0
   19.1363   17.1460   22.5652 H   0  0  0  0  0  0  0  0  0  0  0  0
   18.9887   18.2543   20.7199 C   0  0  0  0  0  0  0  0  0  0  0  0
   17.9884   18.6514   20.9431 H   0  0  0  0  0  0  0  0  0  0  0  0
   18.8275   17.3201   20.1637 H   0  0  0  0  0  0  0  0  0  0  0  0
   19.7448   19.2463   19.8071 C   0  0  0  0  0  0  0  0  0  0  0  0
   19.7504   20.2578   20.2297 H   0  0  0  0  0  0  0  0  0  0  0  0
   19.2556   19.3096   18.8264 H   0  0  0  0  0  0  0  0  0  0  0  0
   20.7815   18.9252   19.6419 H   0  0  0  0  0  0  0  0  0  0  0  0
  1  2  1  0  0  0  0
  1  3  1  0  0  0  0
  1  4  1  0  0  0  0
  1  5  1  0  0  0  0
  5  6  1  0  0  0  0
  5  7  1  0  0  0  0
  5  8  1  0  0  0  0
  8  9  1  0  0  0  0
  8 10  1  0  0  0  0
  8 11  1  0  0  0  0
 11 12  1  0  0  0  0
 11 13  1  0  0  0  0
 11 14  1  0  0  0  0
 14 15  1  0  0  0  0
 14 16  1  0  0  0  0
 14 17  1  0  0  0  0
M  END
> <VConfSearch Rank>
411

> <Conf_Id>
19

> <Delta U+W>
2.662

> <U+W>
-13.203

> <U>
47.423

> <W>
-60.626

> <W(PB)>
-62.328

> <W(SA)>
1.702

> <Valence>
2.414

> <Coulomb>
44.831

> <VdW>
0.178

> <VdW6>
-3.743

> <VdW12>
3.921

> <Bond>
0.138

> <Angle>
0.941

> <Pdih>
1.335

> <Idih>
0.000

> <Tether>
0.000

$$$$
VeraChem MOL file


 17 16  0  0  0  0  0  0  0  0999 V2000     
   19.8692   20.0269   20.0120 N   0  3  0  0  0  0  0  0  0  0  0  0
   19.6245   20.9087   19.5500 H   0  0  0  0  0  0  0  0  0  0  0  0
   20.0943   19.3560   19.2712 H   0  0  0  0  0  0  0  0  0  0  0  0
   20.7296   20.1915   20.5406 H   0  0  0  0  0  0  0  0  0  0  0  0
   18.7485   19.5272   20.9034 C   0  0  0  0  0  0  0  0  0  0  0  0
   17.8745   19.3763   20.2640 H   0  0  0  0  0  0  0  0  0  0  0  0
   18.5058   20.3086   21.6285 H   0  0  0  0  0  0  0  0  0  0  0  0
   19.0649   18.2095   21.6417 C   0  0  0  0  0  0  0  0  0  0  0  0
   18.1103   17.7503   21.9311 H   0  0  0  0  0  0  0  0  0  0  0  0
   19.5444   17.4997   20.9546 H   0  0  0  0  0  0  0  0  0  0  0  0
   19.9196   18.3802   22.9235 C   0  0  0  0  0  0  0  0  0  0  0  0
   19.9944   17.4035   23.4221 H   0  0  0  0  0  0  0  0  0  0  0  0
   19.3989   19.0425   23.6294 H   0  0  0  0  0  0  0  0  0  0  0  0
   21.3477   18.9154   22.6728 C   0  0  0  0  0  0  0  0  0  0  0  0
   21.8628   18.3301   21.8999 H   0  0  0  0  0  0  0  0  0  0  0  0
   21.9448   18.8516   23.5918 H   0  0  0  0  0  0  0  0  0  0  0  0
   21.3351   19.9688   22.3699 H   0  0  0  0  0  0  0  0  0  0  0  0
  1  2  1  0  0  0  0
  1  3  1  0  0  0  0
  1  4  1  0  0  0  0
  1  5  1  0  0  0  0
  5  6  1  0  0  0  0
  5  7  1  0  0  0  0
  5  8  1  0  0  0  0
  8  9  1  0  0  0  0
  8 10  1  0  0  0  0
  8 11  1  0  0  0  0
 11 12  1  0  0  0  0
 11 13  1  0  0  0  0
 11 14  1  0  0  0  0
 14 15  1  0  0  0  0
 14 16  1  0  0  0  0
 14 17  1  0  0  0  0
M  END
> <VConfSearch Rank>
412

> <Conf_Id>
44

> <Delta U+W>
2.712

> <U+W>
-13.153

> <U>
47.423

> <W>
-60.576

> <W(PB)>
-62.262

> <W(SA)>
1.687

> <Valence>
2.414

> <Coulomb>
44.831

> <VdW>
0.178

> <VdW6>
-3.743

> <VdW12>
3.922

> <Bond>
0.138

> <Angle>
0.941

> <Pdih>
1.335

> <Idih>
0.000

> <Tether>
0.000

$$$$
VeraChem MOL file


 17 16  0  0  0  0  0  0  0  0999 V2000     
   21.7922   19.0303   22.2595 N   0  3  0  0  0  0  0  0  0  0  0  0
   21.3003   19.7765   22.7592 H   0  0  0  0  0  0  0  0  0  0  0  0
   22.4277   19.4797   21.5935 H   0  0  0  0  0  0  0  0  0  0  0  0
   22.3767   18.5445   22.9472 H   0  0  0  0  0  0  0  0  0  0  0  0
   20.8273   18.0845   21.5708 C   0  0  0  0  0  0  0  0  0  0  0  0
   20.2021   17.6196   22.3375 H   0  0  0  0  0  0  0  0  0  0  0  0
   21.4167   17.2975   21.0926 H   0  0  0  0  0  0  0  0  0  0  0  0
   19.9338   18.7668   20.5143 C   0  0  0  0  0  0  0  0  0  0  0  0
   20.5689   19.1953   19.7276 H   0  0  0  0  0  0  0  0  0  0  0  0
   19.3186   17.9993   20.0261 H   0  0  0  0  0  0  0  0  0  0  0  0
   19.0107   19.8706   21.0878 C   0  0  0  0  0  0  0  0  0  0  0  0
   18.4268   20.3064   20.2650 H   0  0  0  0  0  0  0  0  0  0  0  0
   19.6140   20.6914   21.4990 H   0  0  0  0  0  0  0  0  0  0  0  0
   18.0393   19.3457   22.1698 C   0  0  0  0  0  0  0  0  0  0  0  0
   17.4234   18.5240   21.7820 H   0  0  0  0  0  0  0  0  0  0  0  0
   17.3624   20.1445   22.4996 H   0  0  0  0  0  0  0  0  0  0  0  0
   18.5778   18.9823   23.0541 H   0  0  0  0  0  0  0  0  0  0  0  0
  1  2  1  0  0  0  0
  1  3  1  0  0  0  0
  1  4  1  0  0  0  0
  1  5  1  0  0  0  0
  5  6  1  0  0  0  0
  5  7  1  0  0  0  0
  5  8  1  0  0  0  0
  8  9  1  0  0  0  0
  8 10  1  0  0  0  0
  8 11  1  0  0  0  0
 11 12  1  0  0  0  0
 11 13  1  0  0  0  0
 11 14  1  0  0  0  0
 14 15  1  0  0  0  0
 14 16  1  0  0  0  0
 14 17  1  0  0  0  0
M  END
> <VConfSearch Rank>
413

> <Conf_Id>
1

> <Delta U+W>
0.685

> <U+W>
-15.179

> <U>
45.697

> <W>
-60.876

> <W(PB)>
-62.586

> <W(SA)>
1.710

> <Valence>
1.263

> <Coulomb>
44.179

> <VdW>
0.255

> <VdW6>
-3.552

> <VdW12>
3.807

> <Bond>
0.125

> <Angle>
0.616

> <Pdih>
0.521

> <Idih>
0.000

> <Tether>
0.000

$$$$
VeraChem MOL file


 17 16  0  0  0  0  0  0  0  0999 V2000     
   20.3840   18.6067   19.7135 N   0  3  0  0  0  0  0  0  0  0  0  0
   19.9413   19.2624   19.0627 H   0  0  0  0  0  0  0  0  0  0  0  0
   19.6653   17.9386   20.0058 H   0  0  0  0  0  0  0  0  0  0  0  0
   21.0814   18.0805   19.1774 H   0  0  0  0  0  0  0  0  0  0  0  0
   21.0045   19.3192   20.8998 C   0  0  0  0  0  0  0  0  0  0  0  0
   21.7839   19.9844   20.5183 H   0  0  0  0  0  0  0  0  0  0  0  0
   21.4821   18.5685   21.5347 H   0  0  0  0  0  0  0  0  0  0  0  0
   19.9959   20.1385   21.7314 C   0  0  0  0  0  0  0  0  0  0  0  0
   20.5417   20.6671   22.5241 H   0  0  0  0  0  0  0  0  0  0  0  0
   19.5518   20.9157   21.0955 H   0  0  0  0  0  0  0  0  0  0  0  0
   18.8681   19.2893   22.3688 C   0  0  0  0  0  0  0  0  0  0  0  0
   18.2546   18.8261   21.5841 H   0  0  0  0  0  0  0  0  0  0  0  0
   18.1949   19.9561   22.9258 H   0  0  0  0  0  0  0  0  0  0  0  0
   19.3992   18.1980   23.3263 C   0  0  0  0  0  0  0  0  0  0  0  0
   18.5662   17.6660   23.8037 H   0  0  0  0  0  0  0  0  0  0  0  0
   20.0156   18.6369   24.1217 H   0  0  0  0  0  0  0  0  0  0  0  0
   20.0054   17.4541   22.7944 H   0  0  0  0  0  0  0  0  0  0  0  0
  1  2  1  0  0  0  0
  1  3  1  0  0  0  0
  1  4  1  0  0  0  0
  1  5  1  0  0  0  0
  5  6  1  0  0  0  0
  5  7  1  0  0  0  0
  5  8  1  0  0  0  0
  8  9  1  0  0  0  0
  8 10  1  0  0  0  0
  8 11  1  0  0  0  0
 11 12  1  0  0  0  0
 11 13  1  0  0  0  0
 11 14  1  0  0  0  0
 14 15  1  0  0  0  0
 14 16  1  0  0  0  0
 14 17  1  0  0  0  0
M  END
> <VConfSearch Rank>
414

> <Conf_Id>
43

> <Delta U+W>
0.642

> <U+W>
-15.222

> <U>
45.697

> <W>
-60.919

> <W(PB)>
-62.631

> <W(SA)>
1.712

> <Valence>
1.262

> <Coulomb>
44.179

> <VdW>
0.255

> <VdW6>
-3.552

> <VdW12>
3.807

> <Bond>
0.125

> <Angle>
0.616

> <Pdih>
0.521

> <Idih>
0.000

> <Tether>
0.000

$$$$
VeraChem MOL file


 17 16  0  0  0  0  0  0  0  0999 V2000     
   17.7544   18.5865   20.3720 N   0  3  0  0  0  0  0  0  0  0  0  0
   18.1271   18.6131   19.4181 H   0  0  0  0  0  0  0  0  0  0  0  0
   17.3076   19.4920   20.5456 H   0  0  0  0  0  0  0  0  0  0  0  0
   17.0094   17.8824   20.3794 H   0  0  0  0  0  0  0  0  0  0  0  0
   18.8307   18.2790   21.3940 C   0  0  0  0  0  0  0  0  0  0  0  0
   19.2395   17.2907   21.1666 H   0  0  0  0  0  0  0  0  0  0  0  0
   18.3583   18.2358   22.3792 H   0  0  0  0  0  0  0  0  0  0  0  0
   19.9668   19.3178   21.4099 C   0  0  0  0  0  0  0  0  0  0  0  0
   20.4285   19.3695   20.4149 H   0  0  0  0  0  0  0  0  0  0  0  0
   19.5504   20.3113   21.6234 H   0  0  0  0  0  0  0  0  0  0  0  0
   21.0406   18.9674   22.4633 C   0  0  0  0  0  0  0  0  0  0  0  0
   21.4554   17.9716   22.2521 H   0  0  0  0  0  0  0  0  0  0  0  0
   20.5784   18.9124   23.4592 H   0  0  0  0  0  0  0  0  0  0  0  0
   22.1836   20.0052   22.4851 C   0  0  0  0  0  0  0  0  0  0  0  0
   22.9354   19.7384   23.2392 H   0  0  0  0  0  0  0  0  0  0  0  0
   21.8042   21.0063   22.7281 H   0  0  0  0  0  0  0  0  0  0  0  0
   22.6881   20.0581   21.5115 H   0  0  0  0  0  0  0  0  0  0  0  0
  1  2  1  0  0  0  0
  1  3  1  0  0  0  0
  1  4  1  0  0  0  0
  1  5  1  0  0  0  0
  5  6  1  0  0  0  0
  5  7  1  0  0  0  0
  5  8  1  0  0  0  0
  8  9  1  0  0  0  0
  8 10  1  0  0  0  0
  8 11  1  0  0  0  0
 11 12  1  0  0  0  0
 11 13  1  0  0  0  0
 11 14  1  0  0  0  0
 14 15  1  0  0  0  0
 14 16  1  0  0  0  0
 14 17  1  0  0  0  0
M  END
> <VConfSearch Rank>
415

> <Conf_Id>
7

> <Delta U+W>
0.000

> <U+W>
-15.865

> <U>
44.664

> <W>
-60.529

> <W(PB)>
-62.309

> <W(SA)>
1.780

> <Valence>
0.872

> <Coulomb>
43.648

> <VdW>
0.144

> <VdW6>
-2.370

> <VdW12>
2.515

> <Bond>
0.080

> <Angle>
0.376

> <Pdih>
0.416

> <Idih>
0.000

> <Tether>
0.000

$$$$
VeraChem MOL file


 17 16  0  0  0  0  0  0  0  0999 V2000     
   19.2177   19.1679   23.9262 N   0  3  0  0  0  0  0  0  0  0  0  0
   18.4716   19.8640   24.0183 H   0  0  0  0  0  0  0  0  0  0  0  0
   20.0669   19.5832   24.3214 H   0  0  0  0  0  0  0  0  0  0  0  0
   18.9641   18.3800   24.5308 H   0  0  0  0  0  0  0  0  0  0  0  0
   19.4148   18.7339   22.4874 C   0  0  0  0  0  0  0  0  0  0  0  0
   18.4843   18.2753   22.1423 H   0  0  0  0  0  0  0  0  0  0  0  0
   20.1991   17.9726   22.4707 H   0  0  0  0  0  0  0  0  0  0  0  0
   19.7979   19.8954   21.5503 C   0  0  0  0  0  0  0  0  0  0  0  0
   19.0236   20.6721   21.6050 H   0  0  0  0  0  0  0  0  0  0  0  0
   20.7316   20.3570   21.8979 H   0  0  0  0  0  0  0  0  0  0  0  0
   19.9576   19.4467   20.0788 C   0  0  0  0  0  0  0  0  0  0  0  0
   20.1501   20.3309   19.4550 H   0  0  0  0  0  0  0  0  0  0  0  0
   19.0132   19.0146   19.7189 H   0  0  0  0  0  0  0  0  0  0  0  0
   21.1040   18.4291   19.8785 C   0  0  0  0  0  0  0  0  0  0  0  0
   22.0593   18.8346   20.2362 H   0  0  0  0  0  0  0  0  0  0  0  0
   21.2211   18.1858   18.8144 H   0  0  0  0  0  0  0  0  0  0  0  0
   20.9083   17.4907   20.4125 H   0  0  0  0  0  0  0  0  0  0  0  0
  1  2  1  0  0  0  0
  1  3  1  0  0  0  0
  1  4  1  0  0  0  0
  1  5  1  0  0  0  0
  5  6  1  0  0  0  0
  5  7  1  0  0  0  0
  5  8  1  0  0  0  0
  8  9  1  0  0  0  0
  8 10  1  0  0  0  0
  8 11  1  0  0  0  0
 11 12  1  0  0  0  0
 11 13  1  0  0  0  0
 11 14  1  0  0  0  0
 14 15  1  0  0  0  0
 14 16  1  0  0  0  0
 14 17  1  0  0  0  0
M  END
> <VConfSearch Rank>
416

> <Conf_Id>
36

> <Delta U+W>
0.275

> <U+W>
-15.590

> <U>
45.174

> <W>
-60.765

> <W(PB)>
-62.518

> <W(SA)>
1.754

> <Valence>
1.161

> <Coulomb>
43.789

> <VdW>
0.224

> <VdW6>
-2.897

> <VdW12>
3.121

> <Bond>
0.100

> <Angle>
0.500

> <Pdih>
0.561

> <Idih>
0.000

> <Tether>
0.000

$$$$
VeraChem MOL file


 17 16  0  0  0  0  0  0  0  0999 V2000     
   21.3064   19.7774   22.5811 N   0  3  0  0  0  0  0  0  0  0  0  0
   21.0482   18.8672   22.9708 H   0  0  0  0  0  0  0  0  0  0  0  0
   20.8607   20.4922   23.1640 H   0  0  0  0  0  0  0  0  0  0  0  0
   22.3187   19.8827   22.7036 H   0  0  0  0  0  0  0  0  0  0  0  0
   20.8982   19.9021   21.1258 C   0  0  0  0  0  0  0  0  0  0  0  0
   21.4540   19.1621   20.5437 H   0  0  0  0  0  0  0  0  0  0  0  0
   21.2069   20.8962   20.7912 H   0  0  0  0  0  0  0  0  0  0  0  0
   19.3848   19.7346   20.8748 C   0  0  0  0  0  0  0  0  0  0  0  0
   18.8149   20.2935   21.6288 H   0  0  0  0  0  0  0  0  0  0  0  0
   19.1511   20.2054   19.9106 H   0  0  0  0  0  0  0  0  0  0  0  0
   18.9020   18.2628   20.8158 C   0  0  0  0  0  0  0  0  0  0  0  0
   19.4350   17.7308   20.0151 H   0  0  0  0  0  0  0  0  0  0  0  0
   17.8409   18.2579   20.5296 H   0  0  0  0  0  0  0  0  0  0  0  0
   19.0575   17.4856   22.1427 C   0  0  0  0  0  0  0  0  0  0  0  0
   20.1105   17.2802   22.3676 H   0  0  0  0  0  0  0  0  0  0  0  0
   18.5469   16.5159   22.0777 H   0  0  0  0  0  0  0  0  0  0  0  0
   18.6166   18.0383   22.9824 H   0  0  0  0  0  0  0  0  0  0  0  0
  1  2  1  0  0  0  0
  1  3  1  0  0  0  0
  1  4  1  0  0  0  0
  1  5  1  0  0  0  0
  5  6  1  0  0  0  0
  5  7  1  0  0  0  0
  5  8  1  0  0  0  0
  8  9  1  0  0  0  0
  8 10  1  0  0  0  0
  8 11  1  0  0  0  0
 11 12  1  0  0  0  0
 11 13  1  0  0  0  0
 11 14  1  0  0  0  0
 14 15  1  0  0  0  0
 14 16  1  0  0  0  0
 14 17  1  0  0  0  0
M  END
> <VConfSearch Rank>
417

> <Conf_Id>
19

> <Delta U+W>
2.662

> <U+W>
-13.203

> <U>
47.423

> <W>
-60.626

> <W(PB)>
-62.328

> <W(SA)>
1.702

> <Valence>
2.414

> <Coulomb>
44.831

> <VdW>
0.178

> <VdW6>
-3.743

> <VdW12>
3.921

> <Bond>
0.138

> <Angle>
0.941

> <Pdih>
1.335

> <Idih>
0.000

> <Tether>
0.000

$$$$
VeraChem MOL file


 17 16  0  0  0  0  0  0  0  0999 V2000     
   21.5169   19.9426   21.5642 N   0  3  0  0  0  0  0  0  0  0  0  0
   22.4501   19.9941   21.1432 H   0  0  0  0  0  0  0  0  0  0  0  0
   21.5274   20.5542   22.3859 H   0  0  0  0  0  0  0  0  0  0  0  0
   20.8603   20.3506   20.8938 H   0  0  0  0  0  0  0  0  0  0  0  0
   21.1390   18.5191   21.9260 C   0  0  0  0  0  0  0  0  0  0  0  0
   21.8846   18.1625   22.6419 H   0  0  0  0  0  0  0  0  0  0  0  0
   21.2109   17.9007   21.0273 H   0  0  0  0  0  0  0  0  0  0  0  0
   19.7344   18.3743   22.5488 C   0  0  0  0  0  0  0  0  0  0  0  0
   19.7110   17.4283   23.1058 H   0  0  0  0  0  0  0  0  0  0  0  0
   19.5698   19.1656   23.2921 H   0  0  0  0  0  0  0  0  0  0  0  0
   18.5748   18.3508   21.5205 C   0  0  0  0  0  0  0  0  0  0  0  0
   17.6398   18.1395   22.0582 H   0  0  0  0  0  0  0  0  0  0  0  0
   18.7182   17.5155   20.8207 H   0  0  0  0  0  0  0  0  0  0  0  0
   18.3991   19.6645   20.7253 C   0  0  0  0  0  0  0  0  0  0  0  0
   18.3480   20.5324   21.3956 H   0  0  0  0  0  0  0  0  0  0  0  0
   17.4674   19.6365   20.1454 H   0  0  0  0  0  0  0  0  0  0  0  0
   19.2176   19.8155   20.0119 H   0  0  0  0  0  0  0  0  0  0  0  0
  1  2  1  0  0  0  0
  1  3  1  0  0  0  0
  1  4  1  0  0  0  0
  1  5  1  0  0  0  0
  5  6  1  0  0  0  0
  5  7  1  0  0  0  0
  5  8  1  0  0  0  0
  8  9  1  0  0  0  0
  8 10  1  0  0  0  0
  8 11  1  0  0  0  0
 11 12  1  0  0  0  0
 11 13  1  0  0  0  0
 11 14  1  0  0  0  0
 14 15  1  0  0  0  0
 14 16  1  0  0  0  0
 14 17  1  0  0  0  0
M  END
> <VConfSearch Rank>
418

> <Conf_Id>
44

> <Delta U+W>
2.712

> <U+W>
-13.153

> <U>
47.423

> <W>
-60.576

> <W(PB)>
-62.262

> <W(SA)>
1.687

> <Valence>
2.414

> <Coulomb>
44.831

> <VdW>
0.178

> <VdW6>
-3.743

> <VdW12>
3.922

> <Bond>
0.138

> <Angle>
0.941

> <Pdih>
1.335

> <Idih>
0.000

> <Tether>
0.000

$$$$
VeraChem MOL file


 17 16  0  0  0  0  0  0  0  0999 V2000     
   21.8299   18.7733   21.1273 N   0  3  0  0  0  0  0  0  0  0  0  0
   21.5336   19.6546   20.6983 H   0  0  0  0  0  0  0  0  0  0  0  0
   21.9394   18.0904   20.3716 H   0  0  0  0  0  0  0  0  0  0  0  0
   22.7623   18.9317   21.5227 H   0  0  0  0  0  0  0  0  0  0  0  0
   20.8443   18.3008   22.1785 C   0  0  0  0  0  0  0  0  0  0  0  0
   20.7979   19.0583   22.9652 H   0  0  0  0  0  0  0  0  0  0  0  0
   21.2411   17.3815   22.6177 H   0  0  0  0  0  0  0  0  0  0  0  0
   19.4277   18.0342   21.6288 C   0  0  0  0  0  0  0  0  0  0  0  0
   19.4791   17.2436   20.8685 H   0  0  0  0  0  0  0  0  0  0  0  0
   18.8048   17.6369   22.4412 H   0  0  0  0  0  0  0  0  0  0  0  0
   18.7406   19.2843   21.0249 C   0  0  0  0  0  0  0  0  0  0  0  0
   17.7491   18.9959   20.6486 H   0  0  0  0  0  0  0  0  0  0  0  0
   19.3043   19.6402   20.1518 H   0  0  0  0  0  0  0  0  0  0  0  0
   18.5759   20.4359   22.0430 C   0  0  0  0  0  0  0  0  0  0  0  0
   18.0137   20.1046   22.9258 H   0  0  0  0  0  0  0  0  0  0  0  0
   18.0277   21.2731   21.5920 H   0  0  0  0  0  0  0  0  0  0  0  0
   19.5472   20.8195   22.3796 H   0  0  0  0  0  0  0  0  0  0  0  0
  1  2  1  0  0  0  0
  1  3  1  0  0  0  0
  1  4  1  0  0  0  0
  1  5  1  0  0  0  0
  5  6  1  0  0  0  0
  5  7  1  0  0  0  0
  5  8  1  0  0  0  0
  8  9  1  0  0  0  0
  8 10  1  0  0  0  0
  8 11  1  0  0  0  0
 11 12  1  0  0  0  0
 11 13  1  0  0  0  0
 11 14  1  0  0  0  0
 14 15  1  0  0  0  0
 14 16  1  0  0  0  0
 14 17  1  0  0  0  0
M  END
> <VConfSearch Rank>
419

> <Conf_Id>
1

> <Delta U+W>
0.685

> <U+W>
-15.179

> <U>
45.697

> <W>
-60.876

> <W(PB)>
-62.586

> <W(SA)>
1.710

> <Valence>
1.263

> <Coulomb>
44.179

> <VdW>
0.255

> <VdW6>
-3.552

> <VdW12>
3.807

> <Bond>
0.125

> <Angle>
0.616

> <Pdih>
0.521

> <Idih>
0.000

> <Tether>
0.000

$$$$
VeraChem MOL file


 17 16  0  0  0  0  0  0  0  0999 V2000     
   19.9639   17.9452   23.2628 N   0  3  0  0  0  0  0  0  0  0  0  0
   19.0669   17.9818   23.7563 H   0  0  0  0  0  0  0  0  0  0  0  0
   20.4555   18.8208   23.4630 H   0  0  0  0  0  0  0  0  0  0  0  0
   20.5092   17.1909   23.6922 H   0  0  0  0  0  0  0  0  0  0  0  0
   19.7815   17.7314   21.7725 C   0  0  0  0  0  0  0  0  0  0  0  0
   19.2868   16.7663   21.6327 H   0  0  0  0  0  0  0  0  0  0  0  0
   20.7721   17.6727   21.3143 H   0  0  0  0  0  0  0  0  0  0  0  0
   18.9533   18.8346   21.0819 C   0  0  0  0  0  0  0  0  0  0  0  0
   18.8195   18.5643   20.0261 H   0  0  0  0  0  0  0  0  0  0  0  0
   17.9472   18.8582   21.5212 H   0  0  0  0  0  0  0  0  0  0  0  0
   19.5859   20.2458   21.1702 C   0  0  0  0  0  0  0  0  0  0  0  0
   19.6422   20.5695   22.2184 H   0  0  0  0  0  0  0  0  0  0  0  0
   18.9226   20.9630   20.6666 H   0  0  0  0  0  0  0  0  0  0  0  0
   20.9891   20.3217   20.5259 C   0  0  0  0  0  0  0  0  0  0  0  0
   21.3701   21.3508   20.5528 H   0  0  0  0  0  0  0  0  0  0  0  0
   20.9588   20.0035   19.4757 H   0  0  0  0  0  0  0  0  0  0  0  0
   21.7115   19.6876   21.0551 H   0  0  0  0  0  0  0  0  0  0  0  0
  1  2  1  0  0  0  0
  1  3  1  0  0  0  0
  1  4  1  0  0  0  0
  1  5  1  0  0  0  0
  5  6  1  0  0  0  0
  5  7  1  0  0  0  0
  5  8  1  0  0  0  0
  8  9  1  0  0  0  0
  8 10  1  0  0  0  0
  8 11  1  0  0  0  0
 11 12  1  0  0  0  0
 11 13  1  0  0  0  0
 11 14  1  0  0  0  0
 14 15  1  0  0  0  0
 14 16  1  0  0  0  0
 14 17  1  0  0  0  0
M  END
> <VConfSearch Rank>
420

> <Conf_Id>
43

> <Delta U+W>
0.642

> <U+W>
-15.222

> <U>
45.697

> <W>
-60.919

> <W(PB)>
-62.631

> <W(SA)>
1.712

> <Valence>
1.262

> <Coulomb>
44.179

> <VdW>
0.255

> <VdW6>
-3.552

> <VdW12>
3.807

> <Bond>
0.125

> <Angle>
0.616

> <Pdih>
0.521

> <Idih>
0.000

> <Tether>
0.000

$$$$
VeraChem MOL file


 17 16  0  0  0  0  0  0  0  0999 V2000     
   19.3683   20.3731   23.7286 N   0  3  0  0  0  0  0  0  0  0  0  0
   20.1960   20.1174   24.2755 H   0  0  0  0  0  0  0  0  0  0  0  0
   18.6008   19.7735   24.0465 H   0  0  0  0  0  0  0  0  0  0  0  0
   19.1234   21.3328   23.9931 H   0  0  0  0  0  0  0  0  0  0  0  0
   19.6102   20.2437   22.2379 C   0  0  0  0  0  0  0  0  0  0  0  0
   20.4164   20.9303   21.9659 H   0  0  0  0  0  0  0  0  0  0  0  0
   18.7010   20.5605   21.7196 H   0  0  0  0  0  0  0  0  0  0  0  0
   19.9806   18.8133   21.8053 C   0  0  0  0  0  0  0  0  0  0  0  0
   20.8851   18.4929   22.3394 H   0  0  0  0  0  0  0  0  0  0  0  0
   19.1755   18.1244   22.0938 H   0  0  0  0  0  0  0  0  0  0  0  0
   20.2183   18.7255   20.2818 C   0  0  0  0  0  0  0  0  0  0  0  0
   21.0219   19.4173   19.9919 H   0  0  0  0  0  0  0  0  0  0  0  0
   19.3144   19.0493   19.7467 H   0  0  0  0  0  0  0  0  0  0  0  0
   20.5905   17.2935   19.8404 C   0  0  0  0  0  0  0  0  0  0  0  0
   20.7551   17.2523   18.7559 H   0  0  0  0  0  0  0  0  0  0  0  0
   19.7900   16.5835   20.0861 H   0  0  0  0  0  0  0  0  0  0  0  0
   21.5109   16.9544   20.3334 H   0  0  0  0  0  0  0  0  0  0  0  0
  1  2  1  0  0  0  0
  1  3  1  0  0  0  0
  1  4  1  0  0  0  0
  1  5  1  0  0  0  0
  5  6  1  0  0  0  0
  5  7  1  0  0  0  0
  5  8  1  0  0  0  0
  8  9  1  0  0  0  0
  8 10  1  0  0  0  0
  8 11  1  0  0  0  0
 11 12  1  0  0  0  0
 11 13  1  0  0  0  0
 11 14  1  0  0  0  0
 14 15  1  0  0  0  0
 14 16  1  0  0  0  0
 14 17  1  0  0  0  0
M  END
> <VConfSearch Rank>
421

> <Conf_Id>
7

> <Delta U+W>
0.000

> <U+W>
-15.865

> <U>
44.664

> <W>
-60.529

> <W(PB)>
-62.309

> <W(SA)>
1.780

> <Valence>
0.872

> <Coulomb>
43.648

> <VdW>
0.144

> <VdW6>
-2.370

> <VdW12>
2.515

> <Bond>
0.080

> <Angle>
0.376

> <Pdih>
0.416

> <Idih>
0.000

> <Tether>
0.000

$$$$
VeraChem MOL file


 17 16  0  0  0  0  0  0  0  0999 V2000     
   21.9887   20.3521   21.6972 N   0  3  0  0  0  0  0  0  0  0  0  0
   22.7738   19.6943   21.7192 H   0  0  0  0  0  0  0  0  0  0  0  0
   21.8867   20.7303   22.6439 H   0  0  0  0  0  0  0  0  0  0  0  0
   22.2725   21.1320   21.0955 H   0  0  0  0  0  0  0  0  0  0  0  0
   20.7127   19.6973   21.2070 C   0  0  0  0  0  0  0  0  0  0  0  0
   20.8839   19.3457   20.1860 H   0  0  0  0  0  0  0  0  0  0  0  0
   19.9318   20.4617   21.1801 H   0  0  0  0  0  0  0  0  0  0  0  0
   20.2570   18.5197   22.0901 C   0  0  0  0  0  0  0  0  0  0  0  0
   21.0637   17.7765   22.1429 H   0  0  0  0  0  0  0  0  0  0  0  0
   20.0867   18.8725   23.1159 H   0  0  0  0  0  0  0  0  0  0  0  0
   18.9763   17.8355   21.5576 C   0  0  0  0  0  0  0  0  0  0  0  0
   18.7529   16.9600   22.1833 H   0  0  0  0  0  0  0  0  0  0  0  0
   19.1557   17.4523   20.5431 H   0  0  0  0  0  0  0  0  0  0  0  0
   17.7486   18.7750   21.5482 C   0  0  0  0  0  0  0  0  0  0  0  0
   17.5511   19.1770   22.5504 H   0  0  0  0  0  0  0  0  0  0  0  0
   16.8515   18.2327   21.2223 H   0  0  0  0  0  0  0  0  0  0  0  0
   17.8920   19.6193   20.8622 H   0  0  0  0  0  0  0  0  0  0  0  0
  1  2  1  0  0  0  0
  1  3  1  0  0  0  0
  1  4  1  0  0  0  0
  1  5  1  0  0  0  0
  5  6  1  0  0  0  0
  5  7  1  0  0  0  0
  5  8  1  0  0  0  0
  8  9  1  0  0  0  0
  8 10  1  0  0  0  0
  8 11  1  0  0  0  0
 11 12  1  0  0  0  0
 11 13  1  0  0  0  0
 11 14  1  0  0  0  0
 14 15  1  0  0  0  0
 14 16  1  0  0  0  0
 14 17  1  0  0  0  0
M  END
> <VConfSearch Rank>
422

> <Conf_Id>
36

> <Delta U+W>
0.275

> <U+W>
-15.590

> <U>
45.174

> <W>
-60.765

> <W(PB)>
-62.518

> <W(SA)>
1.754

> <Valence>
1.161

> <Coulomb>
43.789

> <VdW>
0.224

> <VdW6>
-2.897

> <VdW12>
3.121

> <Bond>
0.100

> <Angle>
0.500

> <Pdih>
0.561

> <Idih>
0.000

> <Tether>
0.000

$$$$
VeraChem MOL file


 17 16  0  0  0  0  0  0  0  0999 V2000     
   21.0517   17.8794   22.5956 N   0  3  0  0  0  0  0  0  0  0  0  0
   20.0882   17.8414   22.9377 H   0  0  0  0  0  0  0  0  0  0  0  0
   21.5720   18.4949   23.2280 H   0  0  0  0  0  0  0  0  0  0  0  0
   21.4480   16.9401   22.7023 H   0  0  0  0  0  0  0  0  0  0  0  0
   21.1197   18.3604   21.1589 C   0  0  0  0  0  0  0  0  0  0  0  0
   20.6082   17.6325   20.5235 H   0  0  0  0  0  0  0  0  0  0  0  0
   22.1756   18.3732   20.8755 H   0  0  0  0  0  0  0  0  0  0  0  0
   20.5210   19.7645   20.9309 C   0  0  0  0  0  0  0  0  0  0  0  0
   20.8473   20.4458   21.7278 H   0  0  0  0  0  0  0  0  0  0  0  0
   20.9470   20.1631   20.0006 H   0  0  0  0  0  0  0  0  0  0  0  0
   18.9769   19.7909   20.7976 C   0  0  0  0  0  0  0  0  0  0  0  0
   18.6676   19.1546   19.9566 H   0  0  0  0  0  0  0  0  0  0  0  0
   18.6698   20.8129   20.5343 H   0  0  0  0  0  0  0  0  0  0  0  0
   18.2179   19.3625   22.0740 C   0  0  0  0  0  0  0  0  0  0  0  0
   18.3251   18.2882   22.2643 H   0  0  0  0  0  0  0  0  0  0  0  0
   17.1445   19.5647   21.9643 H   0  0  0  0  0  0  0  0  0  0  0  0
   18.5726   19.9156   22.9534 H   0  0  0  0  0  0  0  0  0  0  0  0
  1  2  1  0  0  0  0
  1  3  1  0  0  0  0
  1  4  1  0  0  0  0
  1  5  1  0  0  0  0
  5  6  1  0  0  0  0
  5  7  1  0  0  0  0
  5  8  1  0  0  0  0
  8  9  1  0  0  0  0
  8 10  1  0  0  0  0
  8 11  1  0  0  0  0
 11 12  1  0  0  0  0
 11 13  1  0  0  0  0
 11 14  1  0  0  0  0
 14 15  1  0  0  0  0
 14 16  1  0  0  0  0
 14 17  1  0  0  0  0
M  END
> <VConfSearch Rank>
423

> <Conf_Id>
19

> <Delta U+W>
2.662

> <U+W>
-13.203

> <U>
47.423

> <W>
-60.626

> <W(PB)>
-62.328

> <W(SA)>
1.702

> <Valence>
2.414

> <Coulomb>
44.831

> <VdW>
0.178

> <VdW6>
-3.743

> <VdW12>
3.921

> <Bond>
0.138

> <Angle>
0.941

> <Pdih>
1.335

> <Idih>
0.000

> <Tether>
0.000

$$$$
VeraChem MOL file


 17 16  0  0  0  0  0  0  0  0999 V2000     
   21.5872   19.7088   21.9518 N   0  3  0  0  0  0  0  0  0  0  0  0
   22.3287   19.8281   22.6495 H   0  0  0  0  0  0  0  0  0  0  0  0
   21.8427   20.2864   21.1452 H   0  0  0  0  0  0  0  0  0  0  0  0
   21.6158   18.7333   21.6445 H   0  0  0  0  0  0  0  0  0  0  0  0
   20.2260   20.0843   22.5052 C   0  0  0  0  0  0  0  0  0  0  0  0
   20.2815   21.1341   22.8058 H   0  0  0  0  0  0  0  0  0  0  0  0
   20.0373   19.4861   23.4007 H   0  0  0  0  0  0  0  0  0  0  0  0
   19.0640   19.9085   21.5050 C   0  0  0  0  0  0  0  0  0  0  0  0
   18.2320   20.5400   21.8440 H   0  0  0  0  0  0  0  0  0  0  0  0
   19.3545   20.2965   20.5198 H   0  0  0  0  0  0  0  0  0  0  0  0
   18.5388   18.4556   21.3789 C   0  0  0  0  0  0  0  0  0  0  0  0
   17.6529   18.4631   20.7284 H   0  0  0  0  0  0  0  0  0  0  0  0
   18.1923   18.1014   22.3600 H   0  0  0  0  0  0  0  0  0  0  0  0
   19.5643   17.4532   20.8023 C   0  0  0  0  0  0  0  0  0  0  0  0
   20.0012   17.8241   19.8660 H   0  0  0  0  0  0  0  0  0  0  0  0
   19.0775   16.4934   20.5851 H   0  0  0  0  0  0  0  0  0  0  0  0
   20.3726   17.2501   21.5144 H   0  0  0  0  0  0  0  0  0  0  0  0
  1  2  1  0  0  0  0
  1  3  1  0  0  0  0
  1  4  1  0  0  0  0
  1  5  1  0  0  0  0
  5  6  1  0  0  0  0
  5  7  1  0  0  0  0
  5  8  1  0  0  0  0
  8  9  1  0  0  0  0
  8 10  1  0  0  0  0
  8 11  1  0  0  0  0
 11 12  1  0  0  0  0
 11 13  1  0  0  0  0
 11 14  1  0  0  0  0
 14 15  1  0  0  0  0
 14 16  1  0  0  0  0
 14 17  1  0  0  0  0
M  END
> <VConfSearch Rank>
424

> <Conf_Id>
44

> <Delta U+W>
2.712

> <U+W>
-13.153

> <U>
47.423

> <W>
-60.576

> <W(PB)>
-62.262

> <W(SA)>
1.687

> <Valence>
2.414

> <Coulomb>
44.831

> <VdW>
0.178

> <VdW6>
-3.743

> <VdW12>
3.922

> <Bond>
0.138

> <Angle>
0.941

> <Pdih>
1.335

> <Idih>
0.000

> <Tether>
0.000

$$$$
VeraChem MOL file


 17 16  0  0  0  0  0  0  0  0999 V2000     
   19.8901   18.3095   19.7517 N   0  3  0  0  0  0  0  0  0  0  0  0
   19.2409   17.7458   20.3079 H   0  0  0  0  0  0  0  0  0  0  0  0
   20.7122   17.7277   19.5642 H   0  0  0  0  0  0  0  0  0  0  0  0
   19.4370   18.4842   18.8490 H   0  0  0  0  0  0  0  0  0  0  0  0
   20.2594   19.6004   20.4566 C   0  0  0  0  0  0  0  0  0  0  0  0
   19.3455   20.1831   20.5985 H   0  0  0  0  0  0  0  0  0  0  0  0
   20.9203   20.1648   19.7932 H   0  0  0  0  0  0  0  0  0  0  0  0
   20.9585   19.3899   21.8156 C   0  0  0  0  0  0  0  0  0  0  0  0
   21.8952   18.8393   21.6575 H   0  0  0  0  0  0  0  0  0  0  0  0
   21.2446   20.3703   22.2190 H   0  0  0  0  0  0  0  0  0  0  0  0
   20.0928   18.6423   22.8603 C   0  0  0  0  0  0  0  0  0  0  0  0
   20.6754   18.5269   23.7850 H   0  0  0  0  0  0  0  0  0  0  0  0
   19.8745   17.6241   22.5107 H   0  0  0  0  0  0  0  0  0  0  0  0
   18.7715   19.3750   23.1875 C   0  0  0  0  0  0  0  0  0  0  0  0
   18.9636   20.3964   23.5408 H   0  0  0  0  0  0  0  0  0  0  0  0
   18.2230   18.8454   23.9773 H   0  0  0  0  0  0  0  0  0  0  0  0
   18.1143   19.4337   22.3108 H   0  0  0  0  0  0  0  0  0  0  0  0
  1  2  1  0  0  0  0
  1  3  1  0  0  0  0
  1  4  1  0  0  0  0
  1  5  1  0  0  0  0
  5  6  1  0  0  0  0
  5  7  1  0  0  0  0
  5  8  1  0  0  0  0
  8  9  1  0  0  0  0
  8 10  1  0  0  0  0
  8 11  1  0  0  0  0
 11 12  1  0  0  0  0
 11 13  1  0  0  0  0
 11 14  1  0  0  0  0
 14 15  1  0  0  0  0
 14 16  1  0  0  0  0
 14 17  1  0  0  0  0
M  END
> <VConfSearch Rank>
425

> <Conf_Id>
1

> <Delta U+W>
0.685

> <U+W>
-15.179

> <U>
45.697

> <W>
-60.876

> <W(PB)>
-62.586

> <W(SA)>
1.710

> <Valence>
1.263

> <Coulomb>
44.179

> <VdW>
0.255

> <VdW6>
-3.552

> <VdW12>
3.807

> <Bond>
0.125

> <Angle>
0.616

> <Pdih>
0.521

> <Idih>
0.000

> <Tether>
0.000

$$$$
VeraChem MOL file


 17 16  0  0  0  0  0  0  0  0999 V2000     
   18.6814   20.5415   21.9344 N   0  3  0  0  0  0  0  0  0  0  0  0
   19.1593   21.4447   21.8632 H   0  0  0  0  0  0  0  0  0  0  0  0
   18.9226   20.1424   22.8460 H   0  0  0  0  0  0  0  0  0  0  0  0
   17.6754   20.7374   21.9503 H   0  0  0  0  0  0  0  0  0  0  0  0
   19.0569   19.6115   20.7969 C   0  0  0  0  0  0  0  0  0  0  0  0
   18.7381   20.0822   19.8629 H   0  0  0  0  0  0  0  0  0  0  0  0
   18.4925   18.6831   20.9170 H   0  0  0  0  0  0  0  0  0  0  0  0
   20.5654   19.2973   20.7215 C   0  0  0  0  0  0  0  0  0  0  0  0
   20.7506   18.6746   19.8362 H   0  0  0  0  0  0  0  0  0  0  0  0
   21.1203   20.2309   20.5600 H   0  0  0  0  0  0  0  0  0  0  0  0
   21.1226   18.5784   21.9754 C   0  0  0  0  0  0  0  0  0  0  0  0
   21.0279   19.2279   22.8562 H   0  0  0  0  0  0  0  0  0  0  0  0
   22.1999   18.4102   21.8372 H   0  0  0  0  0  0  0  0  0  0  0  0
   20.4340   17.2223   22.2519 C   0  0  0  0  0  0  0  0  0  0  0  0
   20.9033   16.7196   23.1075 H   0  0  0  0  0  0  0  0  0  0  0  0
   20.5162   16.5540   21.3849 H   0  0  0  0  0  0  0  0  0  0  0  0
   19.3697   17.3500   22.4862 H   0  0  0  0  0  0  0  0  0  0  0  0
  1  2  1  0  0  0  0
  1  3  1  0  0  0  0
  1  4  1  0  0  0  0
  1  5  1  0  0  0  0
  5  6  1  0  0  0  0
  5  7  1  0  0  0  0
  5  8  1  0  0  0  0
  8  9  1  0  0  0  0
  8 10  1  0  0  0  0
  8 11  1  0  0  0  0
 11 12  1  0  0  0  0
 11 13  1  0  0  0  0
 11 14  1  0  0  0  0
 14 15  1  0  0  0  0
 14 16  1  0  0  0  0
 14 17  1  0  0  0  0
M  END
> <VConfSearch Rank>
426

> <Conf_Id>
43

> <Delta U+W>
0.642

> <U+W>
-15.222

> <U>
45.697

> <W>
-60.919

> <W(PB)>
-62.631

> <W(SA)>
1.712

> <Valence>
1.262

> <Coulomb>
44.179

> <VdW>
0.255

> <VdW6>
-3.552

> <VdW12>
3.807

> <Bond>
0.125

> <Angle>
0.616

> <Pdih>
0.521

> <Idih>
0.000

> <Tether>
0.000

$$$$
VeraChem MOL file


 17 16  0  0  0  0  0  0  0  0999 V2000     
   19.6829   21.2772   22.8681 N   0  3  0  0  0  0  0  0  0  0  0  0
   19.0675   21.7406   22.1927 H   0  0  0  0  0  0  0  0  0  0  0  0
   20.6287   21.6378   22.7100 H   0  0  0  0  0  0  0  0  0  0  0  0
   19.3956   21.5972   23.7987 H   0  0  0  0  0  0  0  0  0  0  0  0
   19.6233   19.7674   22.7481 C   0  0  0  0  0  0  0  0  0  0  0  0
   18.5977   19.4522   22.9585 H   0  0  0  0  0  0  0  0  0  0  0  0
   20.2765   19.3417   23.5147 H   0  0  0  0  0  0  0  0  0  0  0  0
   20.0489   19.2518   21.3613 C   0  0  0  0  0  0  0  0  0  0  0  0
   19.4007   19.6933   20.5926 H   0  0  0  0  0  0  0  0  0  0  0  0
   21.0738   19.5831   21.1471 H   0  0  0  0  0  0  0  0  0  0  0  0
   19.9738   17.7111   21.2817 C   0  0  0  0  0  0  0  0  0  0  0  0
   18.9489   17.3787   21.4993 H   0  0  0  0  0  0  0  0  0  0  0  0
   20.6199   17.2686   22.0530 H   0  0  0  0  0  0  0  0  0  0  0  0
   20.3993   17.1866   19.8932 C   0  0  0  0  0  0  0  0  0  0  0  0
   20.3389   16.0911   19.8573 H   0  0  0  0  0  0  0  0  0  0  0  0
   21.4332   17.4742   19.6618 H   0  0  0  0  0  0  0  0  0  0  0  0
   19.7489   17.5852   19.1037 H   0  0  0  0  0  0  0  0  0  0  0  0
  1  2  1  0  0  0  0
  1  3  1  0  0  0  0
  1  4  1  0  0  0  0
  1  5  1  0  0  0  0
  5  6  1  0  0  0  0
  5  7  1  0  0  0  0
  5  8  1  0  0  0  0
  8  9  1  0  0  0  0
  8 10  1  0  0  0  0
  8 11  1  0  0  0  0
 11 12  1  0  0  0  0
 11 13  1  0  0  0  0
 11 14  1  0  0  0  0
 14 15  1  0  0  0  0
 14 16  1  0  0  0  0
 14 17  1  0  0  0  0
M  END
> <VConfSearch Rank>
427

> <Conf_Id>
7

> <Delta U+W>
0.000

> <U+W>
-15.865

> <U>
44.664

> <W>
-60.529

> <W(PB)>
-62.309

> <W(SA)>
1.780

> <Valence>
0.872

> <Coulomb>
43.648

> <VdW>
0.144

> <VdW6>
-2.370

> <VdW12>
2.515

> <Bond>
0.080

> <Angle>
0.376

> <Pdih>
0.416

> <Idih>
0.000

> <Tether>
0.000

$$$$
VeraChem MOL file


 17 16  0  0  0  0  0  0  0  0999 V2000     
   18.1562   19.9167   20.2015 N   0  3  0  0  0  0  0  0  0  0  0  0
   17.5231   20.4914   20.7660 H   0  0  0  0  0  0  0  0  0  0  0  0
   17.6839   19.0227   20.0363 H   0  0  0  0  0  0  0  0  0  0  0  0
   18.2429   20.3789   19.2906 H   0  0  0  0  0  0  0  0  0  0  0  0
   19.5037   19.7319   20.8704 C   0  0  0  0  0  0  0  0  0  0  0  0
   19.9610   20.7181   20.9875 H   0  0  0  0  0  0  0  0  0  0  0  0
   20.1326   19.1395   20.2007 H   0  0  0  0  0  0  0  0  0  0  0  0
   19.4096   19.0389   22.2433 C   0  0  0  0  0  0  0  0  0  0  0  0
   18.7440   19.6205   22.8950 H   0  0  0  0  0  0  0  0  0  0  0  0
   18.9487   18.0491   22.1260 H   0  0  0  0  0  0  0  0  0  0  0  0
   20.7862   18.8916   22.9327 C   0  0  0  0  0  0  0  0  0  0  0  0
   20.6396   18.4660   23.9354 H   0  0  0  0  0  0  0  0  0  0  0  0
   21.2342   19.8843   23.0811 H   0  0  0  0  0  0  0  0  0  0  0  0
   21.7649   17.9933   22.1420 C   0  0  0  0  0  0  0  0  0  0  0  0
   21.3381   16.9957   21.9747 H   0  0  0  0  0  0  0  0  0  0  0  0
   22.7042   17.8669   22.6958 H   0  0  0  0  0  0  0  0  0  0  0  0
   22.0127   18.4284   21.1656 H   0  0  0  0  0  0  0  0  0  0  0  0
  1  2  1  0  0  0  0
  1  3  1  0  0  0  0
  1  4  1  0  0  0  0
  1  5  1  0  0  0  0
  5  6  1  0  0  0  0
  5  7  1  0  0  0  0
  5  8  1  0  0  0  0
  8  9  1  0  0  0  0
  8 10  1  0  0  0  0
  8 11  1  0  0  0  0
 11 12  1  0  0  0  0
 11 13  1  0  0  0  0
 11 14  1  0  0  0  0
 14 15  1  0  0  0  0
 14 16  1  0  0  0  0
 14 17  1  0  0  0  0
M  END
> <VConfSearch Rank>
428

> <Conf_Id>
36

> <Delta U+W>
0.275

> <U+W>
-15.590

> <U>
45.174

> <W>
-60.765

> <W(PB)>
-62.518

> <W(SA)>
1.754

> <Valence>
1.161

> <Coulomb>
43.789

> <VdW>
0.224

> <VdW6>
-2.897

> <VdW12>
3.121

> <Bond>
0.100

> <Angle>
0.500

> <Pdih>
0.561

> <Idih>
0.000

> <Tether>
0.000

$$$$
VeraChem MOL file


 17 16  0  0  0  0  0  0  0  0999 V2000     
   21.4060   19.0486   22.7405 N   0  3  0  0  0  0  0  0  0  0  0  0
   20.9486   19.9615   22.6746 H   0  0  0  0  0  0  0  0  0  0  0  0
   22.2324   19.0813   22.1359 H   0  0  0  0  0  0  0  0  0  0  0  0
   21.7455   18.9491   23.7027 H   0  0  0  0  0  0  0  0  0  0  0  0
   20.4688   17.9208   22.3535 C   0  0  0  0  0  0  0  0  0  0  0  0
   19.6444   17.8916   23.0709 H   0  0  0  0  0  0  0  0  0  0  0  0
   21.0330   16.9891   22.4491 H   0  0  0  0  0  0  0  0  0  0  0  0
   19.9094   18.0249   20.9190 C   0  0  0  0  0  0  0  0  0  0  0  0
   20.7115   18.3023   20.2222 H   0  0  0  0  0  0  0  0  0  0  0  0
   19.5796   17.0227   20.6147 H   0  0  0  0  0  0  0  0  0  0  0  0
   18.7056   18.9894   20.7669 C   0  0  0  0  0  0  0  0  0  0  0  0
   17.8860   18.6639   21.4230 H   0  0  0  0  0  0  0  0  0  0  0  0
   18.3235   18.9066   19.7397 H   0  0  0  0  0  0  0  0  0  0  0  0
   19.0350   20.4724   21.0514 C   0  0  0  0  0  0  0  0  0  0  0  0
   19.2214   20.6458   22.1177 H   0  0  0  0  0  0  0  0  0  0  0  0
   18.1902   21.1118   20.7639 H   0  0  0  0  0  0  0  0  0  0  0  0
   19.9121   20.8027   20.4797 H   0  0  0  0  0  0  0  0  0  0  0  0
  1  2  1  0  0  0  0
  1  3  1  0  0  0  0
  1  4  1  0  0  0  0
  1  5  1  0  0  0  0
  5  6  1  0  0  0  0
  5  7  1  0  0  0  0
  5  8  1  0  0  0  0
  8  9  1  0  0  0  0
  8 10  1  0  0  0  0
  8 11  1  0  0  0  0
 11 12  1  0  0  0  0
 11 13  1  0  0  0  0
 11 14  1  0  0  0  0
 14 15  1  0  0  0  0
 14 16  1  0  0  0  0
 14 17  1  0  0  0  0
M  END
> <VConfSearch Rank>
429

> <Conf_Id>
19

> <Delta U+W>
2.662

> <U+W>
-13.203

> <U>
47.423

> <W>
-60.626

> <W(PB)>
-62.328

> <W(SA)>
1.702

> <Valence>
2.414

> <Coulomb>
44.831

> <VdW>
0.178

> <VdW6>
-3.743

> <VdW12>
3.921

> <Bond>
0.138

> <Angle>
0.941

> <Pdih>
1.335

> <Idih>
0.000

> <Tether>
0.000

$$$$
VeraChem MOL file


 17 16  0  0  0  0  0  0  0  0999 V2000     
   21.2497   19.1557   22.8541 N   0  3  0  0  0  0  0  0  0  0  0  0
   22.0741   18.6968   23.2547 H   0  0  0  0  0  0  0  0  0  0  0  0
   21.0102   19.9329   23.4771 H   0  0  0  0  0  0  0  0  0  0  0  0
   21.5356   19.5636   21.9603 H   0  0  0  0  0  0  0  0  0  0  0  0
   20.0921   18.1904   22.6868 C   0  0  0  0  0  0  0  0  0  0  0  0
   19.8506   17.8052   23.6812 H   0  0  0  0  0  0  0  0  0  0  0  0
   20.4253   17.3506   22.0711 H   0  0  0  0  0  0  0  0  0  0  0  0
   18.8251   18.8198   22.0701 C   0  0  0  0  0  0  0  0  0  0  0  0
   17.9707   18.1847   22.3394 H   0  0  0  0  0  0  0  0  0  0  0  0
   18.6299   19.7978   22.5295 H   0  0  0  0  0  0  0  0  0  0  0  0
   18.8568   18.9462   20.5256 C   0  0  0  0  0  0  0  0  0  0  0  0
   17.8742   19.3041   20.1874 H   0  0  0  0  0  0  0  0  0  0  0  0
   18.9893   17.9521   20.0760 H   0  0  0  0  0  0  0  0  0  0  0  0
   19.9423   19.9046   19.9850 C   0  0  0  0  0  0  0  0  0  0  0  0
   19.8970   20.8808   20.4851 H   0  0  0  0  0  0  0  0  0  0  0  0
   19.7988   20.0743   18.9099 H   0  0  0  0  0  0  0  0  0  0  0  0
   20.9477   19.4872   20.1134 H   0  0  0  0  0  0  0  0  0  0  0  0
  1  2  1  0  0  0  0
  1  3  1  0  0  0  0
  1  4  1  0  0  0  0
  1  5  1  0  0  0  0
  5  6  1  0  0  0  0
  5  7  1  0  0  0  0
  5  8  1  0  0  0  0
  8  9  1  0  0  0  0
  8 10  1  0  0  0  0
  8 11  1  0  0  0  0
 11 12  1  0  0  0  0
 11 13  1  0  0  0  0
 11 14  1  0  0  0  0
 14 15  1  0  0  0  0
 14 16  1  0  0  0  0
 14 17  1  0  0  0  0
M  END
> <VConfSearch Rank>
430

> <Conf_Id>
44

> <Delta U+W>
2.712

> <U+W>
-13.153

> <U>
47.423

> <W>
-60.576

> <W(PB)>
-62.262

> <W(SA)>
1.687

> <Valence>
2.414

> <Coulomb>
44.831

> <VdW>
0.178

> <VdW6>
-3.743

> <VdW12>
3.922

> <Bond>
0.138

> <Angle>
0.941

> <Pdih>
1.335

> <Idih>
0.000

> <Tether>
0.000

$$$$
VeraChem MOL file


 17 16  0  0  0  0  0  0  0  0999 V2000     
   19.0215   20.7344   22.1143 N   0  3  0  0  0  0  0  0  0  0  0  0
   19.5853   20.4368   22.9155 H   0  0  0  0  0  0  0  0  0  0  0  0
   18.0393   20.5803   22.3611 H   0  0  0  0  0  0  0  0  0  0  0  0
   19.1489   21.7470   22.0184 H   0  0  0  0  0  0  0  0  0  0  0  0
   19.4095   19.9948   20.8485 C   0  0  0  0  0  0  0  0  0  0  0  0
   20.4549   20.2253   20.6276 H   0  0  0  0  0  0  0  0  0  0  0  0
   18.7972   20.3877   20.0323 H   0  0  0  0  0  0  0  0  0  0  0  0
   19.2215   18.4662   20.9379 C   0  0  0  0  0  0  0  0  0  0  0  0
   18.1617   18.2435   21.1195 H   0  0  0  0  0  0  0  0  0  0  0  0
   19.4637   18.0249   19.9621 H   0  0  0  0  0  0  0  0  0  0  0  0
   20.0839   17.7883   22.0316 C   0  0  0  0  0  0  0  0  0  0  0  0
   19.8733   16.7096   22.0302 H   0  0  0  0  0  0  0  0  0  0  0  0
   19.7892   18.1531   23.0250 H   0  0  0  0  0  0  0  0  0  0  0  0
   21.6009   18.0040   21.8267 C   0  0  0  0  0  0  0  0  0  0  0  0
   21.9206   17.6456   20.8396 H   0  0  0  0  0  0  0  0  0  0  0  0
   22.1739   17.4536   22.5842 H   0  0  0  0  0  0  0  0  0  0  0  0
   21.8733   19.0635   21.9111 H   0  0  0  0  0  0  0  0  0  0  0  0
  1  2  1  0  0  0  0
  1  3  1  0  0  0  0
  1  4  1  0  0  0  0
  1  5  1  0  0  0  0
  5  6  1  0  0  0  0
  5  7  1  0  0  0  0
  5  8  1  0  0  0  0
  8  9  1  0  0  0  0
  8 10  1  0  0  0  0
  8 11  1  0  0  0  0
 11 12  1  0  0  0  0
 11 13  1  0  0  0  0
 11 14  1  0  0  0  0
 14 15  1  0  0  0  0
 14 16  1  0  0  0  0
 14 17  1  0  0  0  0
M  END
> <VConfSearch Rank>
431

> <Conf_Id>
1

> <Delta U+W>
0.685

> <U+W>
-15.179

> <U>
45.697

> <W>
-60.876

> <W(PB)>
-62.586

> <W(SA)>
1.710

> <Valence>
1.263

> <Coulomb>
44.179

> <VdW>
0.255

> <VdW6>
-3.552

> <VdW12>
3.807

> <Bond>
0.125

> <Angle>
0.616

> <Pdih>
0.521

> <Idih>
0.000

> <Tether>
0.000

$$$$
VeraChem MOL file


 17 16  0  0  0  0  0  0  0  0999 V2000     
   20.7482   19.5174   19.8582 N   0  3  0  0  0  0  0  0  0  0  0  0
   21.7472   19.7205   19.9581 H   0  0  0  0  0  0  0  0  0  0  0  0
   20.2372   20.3401   20.1907 H   0  0  0  0  0  0  0  0  0  0  0  0
   20.5603   19.4341   18.8540 H   0  0  0  0  0  0  0  0  0  0  0  0
   20.3474   18.2644   20.6128 C   0  0  0  0  0  0  0  0  0  0  0  0
   20.9007   17.4253   20.1825 H   0  0  0  0  0  0  0  0  0  0  0  0
   19.2821   18.0905   20.4404 H   0  0  0  0  0  0  0  0  0  0  0  0
   20.6243   18.3351   22.1288 C   0  0  0  0  0  0  0  0  0  0  0  0
   20.3648   17.3676   22.5787 H   0  0  0  0  0  0  0  0  0  0  0  0
   21.7018   18.4690   22.2925 H   0  0  0  0  0  0  0  0  0  0  0  0
   19.8497   19.4604   22.8590 C   0  0  0  0  0  0  0  0  0  0  0  0
   20.1667   20.4425   22.4827 H   0  0  0  0  0  0  0  0  0  0  0  0
   20.1200   19.4423   23.9241 H   0  0  0  0  0  0  0  0  0  0  0  0
   18.3156   19.3230   22.7278 C   0  0  0  0  0  0  0  0  0  0  0  0
   17.8079   20.1009   23.3128 H   0  0  0  0  0  0  0  0  0  0  0  0
   17.9735   18.3483   23.0991 H   0  0  0  0  0  0  0  0  0  0  0  0
   17.9884   19.4265   21.6856 H   0  0  0  0  0  0  0  0  0  0  0  0
  1  2  1  0  0  0  0
  1  3  1  0  0  0  0
  1  4  1  0  0  0  0
  1  5  1  0  0  0  0
  5  6  1  0  0  0  0
  5  7  1  0  0  0  0
  5  8  1  0  0  0  0
  8  9  1  0  0  0  0
  8 10  1  0  0  0  0
  8 11  1  0  0  0  0
 11 12  1  0  0  0  0
 11 13  1  0  0  0  0
 11 14  1  0  0  0  0
 14 15  1  0  0  0  0
 14 16  1  0  0  0  0
 14 17  1  0  0  0  0
M  END
> <VConfSearch Rank>
432

> <Conf_Id>
43

> <Delta U+W>
0.642

> <U+W>
-15.222

> <U>
45.697

> <W>
-60.919

> <W(PB)>
-62.631

> <W(SA)>
1.712

> <Valence>
1.262

> <Coulomb>
44.179

> <VdW>
0.255

> <VdW6>
-3.552

> <VdW12>
3.807

> <Bond>
0.125

> <Angle>
0.616

> <Pdih>
0.521

> <Idih>
0.000

> <Tether>
0.000

$$$$
VeraChem MOL file


 17 16  0  0  0  0  0  0  0  0999 V2000     
   19.3212   20.7013   23.4717 N   0  3  0  0  0  0  0  0  0  0  0  0
   19.3447   21.5579   22.9102 H   0  0  0  0  0  0  0  0  0  0  0  0
   20.2031   20.6581   23.9914 H   0  0  0  0  0  0  0  0  0  0  0  0
   18.5749   20.8214   24.1642 H   0  0  0  0  0  0  0  0  0  0  0  0
   19.1043   19.4680   22.6177 C   0  0  0  0  0  0  0  0  0  0  0  0
   18.1362   19.5684   22.1195 H   0  0  0  0  0  0  0  0  0  0  0  0
   19.0592   18.6009   23.2822 H   0  0  0  0  0  0  0  0  0  0  0  0
   20.2082   19.2568   21.5655 C   0  0  0  0  0  0  0  0  0  0  0  0
   20.2609   20.1361   20.9098 H   0  0  0  0  0  0  0  0  0  0  0  0
   21.1807   19.1717   22.0685 H   0  0  0  0  0  0  0  0  0  0  0  0
   19.9492   17.9917   20.7182 C   0  0  0  0  0  0  0  0  0  0  0  0
   18.9743   18.0748   20.2171 H   0  0  0  0  0  0  0  0  0  0  0  0
   19.8931   17.1116   21.3744 H   0  0  0  0  0  0  0  0  0  0  0  0
   21.0526   17.7734   19.6605 C   0  0  0  0  0  0  0  0  0  0  0  0
   20.8503   16.8706   19.0696 H   0  0  0  0  0  0  0  0  0  0  0  0
   22.0356   17.6521   20.1339 H   0  0  0  0  0  0  0  0  0  0  0  0
   21.1097   18.6229   18.9675 H   0  0  0  0  0  0  0  0  0  0  0  0
  1  2  1  0  0  0  0
  1  3  1  0  0  0  0
  1  4  1  0  0  0  0
  1  5  1  0  0  0  0
  5  6  1  0  0  0  0
  5  7  1  0  0  0  0
  5  8  1  0  0  0  0
  8  9  1  0  0  0  0
  8 10  1  0  0  0  0
  8 11  1  0  0  0  0
 11 12  1  0  0  0  0
 11 13  1  0  0  0  0
 11 14  1  0  0  0  0
 14 15  1  0  0  0  0
 14 16  1  0  0  0  0
 14 17  1  0  0  0  0
M  END
> <VConfSearch Rank>
433

> <Conf_Id>
7

> <Delta U+W>
0.000

> <U+W>
-15.865

> <U>
44.664

> <W>
-60.529

> <W(PB)>
-62.309

> <W(SA)>
1.780

> <Valence>
0.872

> <Coulomb>
43.648

> <VdW>
0.144

> <VdW6>
-2.370

> <VdW12>
2.515

> <Bond>
0.080

> <Angle>
0.376

> <Pdih>
0.416

> <Idih>
0.000

> <Tether>
0.000

$$$$
VeraChem MOL file


 17 16  0  0  0  0  0  0  0  0999 V2000     
   22.0593   20.1925   21.9123 N   0  3  0  0  0  0  0  0  0  0  0  0
   22.3855   20.0269   22.8693 H   0  0  0  0  0  0  0  0  0  0  0  0
   21.7254   21.1602   21.8717 H   0  0  0  0  0  0  0  0  0  0  0  0
   22.8832   20.1376   21.3048 H   0  0  0  0  0  0  0  0  0  0  0  0
   20.9871   19.2042   21.4987 C   0  0  0  0  0  0  0  0  0  0  0  0
   21.4198   18.2008   21.5363 H   0  0  0  0  0  0  0  0  0  0  0  0
   20.7123   19.4207   20.4631 H   0  0  0  0  0  0  0  0  0  0  0  0
   19.7329   19.2607   22.3919 C   0  0  0  0  0  0  0  0  0  0  0  0
   20.0257   19.0817   23.4351 H   0  0  0  0  0  0  0  0  0  0  0  0
   19.2994   20.2689   22.3555 H   0  0  0  0  0  0  0  0  0  0  0  0
   18.6630   18.2210   21.9841 C   0  0  0  0  0  0  0  0  0  0  0  0
   17.8349   18.2591   22.7058 H   0  0  0  0  0  0  0  0  0  0  0  0
   19.0855   17.2086   22.0521 H   0  0  0  0  0  0  0  0  0  0  0  0
   18.1035   18.4557   20.5622 C   0  0  0  0  0  0  0  0  0  0  0  0
   17.6801   19.4640   20.4656 H   0  0  0  0  0  0  0  0  0  0  0  0
   17.3062   17.7351   20.3385 H   0  0  0  0  0  0  0  0  0  0  0  0
   18.8815   18.3359   19.7977 H   0  0  0  0  0  0  0  0  0  0  0  0
  1  2  1  0  0  0  0
  1  3  1  0  0  0  0
  1  4  1  0  0  0  0
  1  5  1  0  0  0  0
  5  6  1  0  0  0  0
  5  7  1  0  0  0  0
  5  8  1  0  0  0  0
  8  9  1  0  0  0  0
  8 10  1  0  0  0  0
  8 11  1  0  0  0  0
 11 12  1  0  0  0  0
 11 13  1  0  0  0  0
 11 14  1  0  0  0  0
 14 15  1  0  0  0  0
 14 16  1  0  0  0  0
 14 17  1  0  0  0  0
M  END
> <VConfSearch Rank>
434

> <Conf_Id>
36

> <Delta U+W>
0.275

> <U+W>
-15.590

> <U>
45.174

> <W>
-60.765

> <W(PB)>
-62.518

> <W(SA)>
1.754

> <Valence>
1.161

> <Coulomb>
43.789

> <VdW>
0.224

> <VdW6>
-2.897

> <VdW12>
3.121

> <Bond>
0.100

> <Angle>
0.500

> <Pdih>
0.561

> <Idih>
0.000

> <Tether>
0.000

$$$$
VeraChem MOL file


 17 16  0  0  0  0  0  0  0  0999 V2000     
   18.5014   19.2211   22.7571 N   0  3  0  0  0  0  0  0  0  0  0  0
   18.1962   19.2192   21.7805 H   0  0  0  0  0  0  0  0  0  0  0  0
   18.5376   20.1992   23.0595 H   0  0  0  0  0  0  0  0  0  0  0  0
   17.7635   18.7676   23.3054 H   0  0  0  0  0  0  0  0  0  0  0  0
   19.8393   18.5280   22.9294 C   0  0  0  0  0  0  0  0  0  0  0  0
   19.7237   17.4755   22.6572 H   0  0  0  0  0  0  0  0  0  0  0  0
   20.0898   18.5764   23.9926 H   0  0  0  0  0  0  0  0  0  0  0  0
   20.9887   19.1555   22.1130 C   0  0  0  0  0  0  0  0  0  0  0  0
   20.9514   20.2501   22.1918 H   0  0  0  0  0  0  0  0  0  0  0  0
   21.9354   18.8521   22.5795 H   0  0  0  0  0  0  0  0  0  0  0  0
   21.0307   18.7232   20.6250 C   0  0  0  0  0  0  0  0  0  0  0  0
   21.1318   17.6307   20.5603 H   0  0  0  0  0  0  0  0  0  0  0  0
   21.9399   19.1399   20.1692 H   0  0  0  0  0  0  0  0  0  0  0  0
   19.8102   19.1778   19.7927 C   0  0  0  0  0  0  0  0  0  0  0  0
   18.9043   18.6285   20.0741 H   0  0  0  0  0  0  0  0  0  0  0  0
   19.9846   18.9865   18.7259 H   0  0  0  0  0  0  0  0  0  0  0  0
   19.6245   20.2532   19.9121 H   0  0  0  0  0  0  0  0  0  0  0  0
  1  2  1  0  0  0  0
  1  3  1  0  0  0  0
  1  4  1  0  0  0  0
  1  5  1  0  0  0  0
  5  6  1  0  0  0  0
  5  7  1  0  0  0  0
  5  8  1  0  0  0  0
  8  9  1  0  0  0  0
  8 10  1  0  0  0  0
  8 11  1  0  0  0  0
 11 12  1  0  0  0  0
 11 13  1  0  0  0  0
 11 14  1  0  0  0  0
 14 15  1  0  0  0  0
 14 16  1  0  0  0  0
 14 17  1  0  0  0  0
M  END
> <VConfSearch Rank>
435

> <Conf_Id>
19

> <Delta U+W>
2.662

> <U+W>
-13.203

> <U>
47.423

> <W>
-60.626

> <W(PB)>
-62.328

> <W(SA)>
1.702

> <Valence>
2.414

> <Coulomb>
44.831

> <VdW>
0.178

> <VdW6>
-3.743

> <VdW12>
3.921

> <Bond>
0.138

> <Angle>
0.941

> <Pdih>
1.335

> <Idih>
0.000

> <Tether>
0.000

$$$$
VeraChem MOL file


 17 16  0  0  0  0  0  0  0  0999 V2000     
   19.0374   17.7406   22.6000 N   0  3  0  0  0  0  0  0  0  0  0  0
   18.2298   17.4937   23.1809 H   0  0  0  0  0  0  0  0  0  0  0  0
   19.7224   16.9864   22.7077 H   0  0  0  0  0  0  0  0  0  0  0  0
   18.7245   17.7260   21.6260 H   0  0  0  0  0  0  0  0  0  0  0  0
   19.6178   19.0880   22.9840 C   0  0  0  0  0  0  0  0  0  0  0  0
   19.9267   19.0167   24.0304 H   0  0  0  0  0  0  0  0  0  0  0  0
   18.8270   19.8399   22.9157 H   0  0  0  0  0  0  0  0  0  0  0  0
   20.8279   19.5239   22.1312 C   0  0  0  0  0  0  0  0  0  0  0  0
   21.3880   20.2751   22.7038 H   0  0  0  0  0  0  0  0  0  0  0  0
   21.5140   18.6778   21.9926 H   0  0  0  0  0  0  0  0  0  0  0  0
   20.4576   20.1477   20.7614 C   0  0  0  0  0  0  0  0  0  0  0  0
   21.3789   20.5155   20.2882 H   0  0  0  0  0  0  0  0  0  0  0  0
   19.8225   21.0311   20.9171 H   0  0  0  0  0  0  0  0  0  0  0  0
   19.7572   19.1756   19.7850 C   0  0  0  0  0  0  0  0  0  0  0  0
   20.3214   18.2396   19.6810 H   0  0  0  0  0  0  0  0  0  0  0  0
   19.6778   19.6289   18.7883 H   0  0  0  0  0  0  0  0  0  0  0  0
   18.7381   18.9403   20.1134 H   0  0  0  0  0  0  0  0  0  0  0  0
  1  2  1  0  0  0  0
  1  3  1  0  0  0  0
  1  4  1  0  0  0  0
  1  5  1  0  0  0  0
  5  6  1  0  0  0  0
  5  7  1  0  0  0  0
  5  8  1  0  0  0  0
  8  9  1  0  0  0  0
  8 10  1  0  0  0  0
  8 11  1  0  0  0  0
 11 12  1  0  0  0  0
 11 13  1  0  0  0  0
 11 14  1  0  0  0  0
 14 15  1  0  0  0  0
 14 16  1  0  0  0  0
 14 17  1  0  0  0  0
M  END
> <VConfSearch Rank>
436

> <Conf_Id>
44

> <Delta U+W>
2.712

> <U+W>
-13.153

> <U>
47.423

> <W>
-60.576

> <W(PB)>
-62.262

> <W(SA)>
1.687

> <Valence>
2.414

> <Coulomb>
44.831

> <VdW>
0.178

> <VdW6>
-3.743

> <VdW12>
3.922

> <Bond>
0.138

> <Angle>
0.941

> <Pdih>
1.335

> <Idih>
0.000

> <Tether>
0.000

$$$$
VeraChem MOL file


 17 16  0  0  0  0  0  0  0  0999 V2000     
   19.8443   19.9629   23.3559 N   0  3  0  0  0  0  0  0  0  0  0  0
   18.9008   19.6185   23.1568 H   0  0  0  0  0  0  0  0  0  0  0  0
   19.8248   20.9810   23.2448 H   0  0  0  0  0  0  0  0  0  0  0  0
   20.0284   19.7751   24.3466 H   0  0  0  0  0  0  0  0  0  0  0  0
   20.8800   19.3153   22.4572 C   0  0  0  0  0  0  0  0  0  0  0  0
   20.8686   18.2389   22.6467 H   0  0  0  0  0  0  0  0  0  0  0  0
   21.8612   19.6994   22.7494 H   0  0  0  0  0  0  0  0  0  0  0  0
   20.6543   19.5814   20.9545 C   0  0  0  0  0  0  0  0  0  0  0  0
   20.7081   20.6622   20.7678 H   0  0  0  0  0  0  0  0  0  0  0  0
   21.4822   19.1322   20.3900 H   0  0  0  0  0  0  0  0  0  0  0  0
   19.3112   19.0324   20.4122 C   0  0  0  0  0  0  0  0  0  0  0  0
   19.2329   19.2804   19.3444 H   0  0  0  0  0  0  0  0  0  0  0  0
   18.4699   19.5398   20.9036 H   0  0  0  0  0  0  0  0  0  0  0  0
   19.1688   17.5027   20.5842 C   0  0  0  0  0  0  0  0  0  0  0  0
   19.9988   16.9722   20.0998 H   0  0  0  0  0  0  0  0  0  0  0  0
   18.2346   17.1493   20.1287 H   0  0  0  0  0  0  0  0  0  0  0  0
   19.1500   17.2152   21.6429 H   0  0  0  0  0  0  0  0  0  0  0  0
  1  2  1  0  0  0  0
  1  3  1  0  0  0  0
  1  4  1  0  0  0  0
  1  5  1  0  0  0  0
  5  6  1  0  0  0  0
  5  7  1  0  0  0  0
  5  8  1  0  0  0  0
  8  9  1  0  0  0  0
  8 10  1  0  0  0  0
  8 11  1  0  0  0  0
 11 12  1  0  0  0  0
 11 13  1  0  0  0  0
 11 14  1  0  0  0  0
 14 15  1  0  0  0  0
 14 16  1  0  0  0  0
 14 17  1  0  0  0  0
M  END
> <VConfSearch Rank>
437

> <Conf_Id>
1

> <Delta U+W>
0.685

> <U+W>
-15.179

> <U>
45.697

> <W>
-60.876

> <W(PB)>
-62.586

> <W(SA)>
1.710

> <Valence>
1.263

> <Coulomb>
44.179

> <VdW>
0.255

> <VdW6>
-3.552

> <VdW12>
3.807

> <Bond>
0.125

> <Angle>
0.616

> <Pdih>
0.521

> <Idih>
0.000

> <Tether>
0.000

$$$$
VeraChem MOL file


 17 16  0  0  0  0  0  0  0  0999 V2000     
   18.6339   17.6695   20.9463 N   0  3  0  0  0  0  0  0  0  0  0  0
   19.1072   16.8050   20.6672 H   0  0  0  0  0  0  0  0  0  0  0  0
   18.7673   18.3458   20.1892 H   0  0  0  0  0  0  0  0  0  0  0  0
   17.6314   17.4601   20.9872 H   0  0  0  0  0  0  0  0  0  0  0  0
   19.1542   18.1976   22.2694 C   0  0  0  0  0  0  0  0  0  0  0  0
   18.9457   17.4441   23.0337 H   0  0  0  0  0  0  0  0  0  0  0  0
   18.5894   19.0990   22.5208 H   0  0  0  0  0  0  0  0  0  0  0  0
   20.6640   18.5145   22.2630 C   0  0  0  0  0  0  0  0  0  0  0  0
   20.9616   18.8266   23.2728 H   0  0  0  0  0  0  0  0  0  0  0  0
   21.2244   17.5946   22.0499 H   0  0  0  0  0  0  0  0  0  0  0  0
   21.0731   19.6121   21.2494 C   0  0  0  0  0  0  0  0  0  0  0  0
   20.8656   19.2758   20.2244 H   0  0  0  0  0  0  0  0  0  0  0  0
   22.1609   19.7583   21.3061 H   0  0  0  0  0  0  0  0  0  0  0  0
   20.3706   20.9651   21.5057 C   0  0  0  0  0  0  0  0  0  0  0  0
   20.7382   21.7282   20.8074 H   0  0  0  0  0  0  0  0  0  0  0  0
   20.5642   21.3234   22.5251 H   0  0  0  0  0  0  0  0  0  0  0  0
   19.2845   20.8884   21.3701 H   0  0  0  0  0  0  0  0  0  0  0  0
  1  2  1  0  0  0  0
  1  3  1  0  0  0  0
  1  4  1  0  0  0  0
  1  5  1  0  0  0  0
  5  6  1  0  0  0  0
  5  7  1  0  0  0  0
  5  8  1  0  0  0  0
  8  9  1  0  0  0  0
  8 10  1  0  0  0  0
  8 11  1  0  0  0  0
 11 12  1  0  0  0  0
 11 13  1  0  0  0  0
 11 14  1  0  0  0  0
 14 15  1  0  0  0  0
 14 16  1  0  0  0  0
 14 17  1  0  0  0  0
M  END
> <VConfSearch Rank>
438

> <Conf_Id>
43

> <Delta U+W>
0.642

> <U+W>
-15.222

> <U>
45.697

> <W>
-60.919

> <W(PB)>
-62.631

> <W(SA)>
1.712

> <Valence>
1.262

> <Coulomb>
44.179

> <VdW>
0.255

> <VdW6>
-3.552

> <VdW12>
3.807

> <Bond>
0.125

> <Angle>
0.616

> <Pdih>
0.521

> <Idih>
0.000

> <Tether>
0.000

$$$$
VeraChem MOL file


 17 16  0  0  0  0  0  0  0  0999 V2000     
   20.3313   21.2278   22.9262 N   0  3  0  0  0  0  0  0  0  0  0  0
   21.2883   21.0309   23.2346 H   0  0  0  0  0  0  0  0  0  0  0  0
   19.7115   21.0116   23.7128 H   0  0  0  0  0  0  0  0  0  0  0  0
   20.2721   22.2395   22.7718 H   0  0  0  0  0  0  0  0  0  0  0  0
   19.9633   20.4453   21.6814 C   0  0  0  0  0  0  0  0  0  0  0  0
   20.6423   20.7477   20.8796 H   0  0  0  0  0  0  0  0  0  0  0  0
   18.9467   20.7269   21.3938 H   0  0  0  0  0  0  0  0  0  0  0  0
   20.0417   18.9203   21.8782 C   0  0  0  0  0  0  0  0  0  0  0  0
   21.0599   18.6430   22.1820 H   0  0  0  0  0  0  0  0  0  0  0  0
   19.3700   18.6223   22.6943 H   0  0  0  0  0  0  0  0  0  0  0  0
   19.6598   18.1619   20.5881 C   0  0  0  0  0  0  0  0  0  0  0  0
   20.3296   18.4623   19.7699 H   0  0  0  0  0  0  0  0  0  0  0  0
   18.6418   18.4415   20.2817 H   0  0  0  0  0  0  0  0  0  0  0  0
   19.7361   16.6315   20.7779 C   0  0  0  0  0  0  0  0  0  0  0  0
   19.4615   16.1115   19.8509 H   0  0  0  0  0  0  0  0  0  0  0  0
   19.0507   16.2963   21.5672 H   0  0  0  0  0  0  0  0  0  0  0  0
   20.7518   16.3172   21.0514 H   0  0  0  0  0  0  0  0  0  0  0  0
  1  2  1  0  0  0  0
  1  3  1  0  0  0  0
  1  4  1  0  0  0  0
  1  5  1  0  0  0  0
  5  6  1  0  0  0  0
  5  7  1  0  0  0  0
  5  8  1  0  0  0  0
  8  9  1  0  0  0  0
  8 10  1  0  0  0  0
  8 11  1  0  0  0  0
 11 12  1  0  0  0  0
 11 13  1  0  0  0  0
 11 14  1  0  0  0  0
 14 15  1  0  0  0  0
 14 16  1  0  0  0  0
 14 17  1  0  0  0  0
M  END
> <VConfSearch Rank>
439

> <Conf_Id>
7

> <Delta U+W>
0.000

> <U+W>
-15.865

> <U>
44.664

> <W>
-60.529

> <W(PB)>
-62.309

> <W(SA)>
1.780

> <Valence>
0.872

> <Coulomb>
43.648

> <VdW>
0.144

> <VdW6>
-2.370

> <VdW12>
2.515

> <Bond>
0.080

> <Angle>
0.376

> <Pdih>
0.416

> <Idih>
0.000

> <Tether>
0.000

$$$$
VeraChem MOL file


 17 16  0  0  0  0  0  0  0  0999 V2000     
   19.4117   17.4454   19.9363 N   0  3  0  0  0  0  0  0  0  0  0  0
   18.4256   17.1824   20.0260 H   0  0  0  0  0  0  0  0  0  0  0  0
   19.9649   16.6741   20.3221 H   0  0  0  0  0  0  0  0  0  0  0  0
   19.6176   17.4850   18.9329 H   0  0  0  0  0  0  0  0  0  0  0  0
   19.7135   18.7609   20.6261 C   0  0  0  0  0  0  0  0  0  0  0  0
   19.1142   19.5393   20.1463 H   0  0  0  0  0  0  0  0  0  0  0  0
   20.7694   18.9913   20.4625 H   0  0  0  0  0  0  0  0  0  0  0  0
   19.4151   18.7359   22.1375 C   0  0  0  0  0  0  0  0  0  0  0  0
   18.3624   18.4644   22.2920 H   0  0  0  0  0  0  0  0  0  0  0  0
   20.0159   17.9530   22.6191 H   0  0  0  0  0  0  0  0  0  0  0  0
   19.6899   20.0952   22.8222 C   0  0  0  0  0  0  0  0  0  0  0  0
   19.3822   20.0330   23.8755 H   0  0  0  0  0  0  0  0  0  0  0  0
   19.0646   20.8741   22.3634 H   0  0  0  0  0  0  0  0  0  0  0  0
   21.1760   20.5161   22.7552 C   0  0  0  0  0  0  0  0  0  0  0  0
   21.8238   19.7510   23.2024 H   0  0  0  0  0  0  0  0  0  0  0  0
   21.3359   21.4528   23.3047 H   0  0  0  0  0  0  0  0  0  0  0  0
   21.5027   20.6799   21.7206 H   0  0  0  0  0  0  0  0  0  0  0  0
  1  2  1  0  0  0  0
  1  3  1  0  0  0  0
  1  4  1  0  0  0  0
  1  5  1  0  0  0  0
  5  6  1  0  0  0  0
  5  7  1  0  0  0  0
  5  8  1  0  0  0  0
  8  9  1  0  0  0  0
  8 10  1  0  0  0  0
  8 11  1  0  0  0  0
 11 12  1  0  0  0  0
 11 13  1  0  0  0  0
 11 14  1  0  0  0  0
 14 15  1  0  0  0  0
 14 16  1  0  0  0  0
 14 17  1  0  0  0  0
M  END
> <VConfSearch Rank>
440

> <Conf_Id>
36

> <Delta U+W>
0.275

> <U+W>
-15.590

> <U>
45.174

> <W>
-60.765

> <W(PB)>
-62.518

> <W(SA)>
1.754

> <Valence>
1.161

> <Coulomb>
43.789

> <VdW>
0.224

> <VdW6>
-2.897

> <VdW12>
3.121

> <Bond>
0.100

> <Angle>
0.500

> <Pdih>
0.561

> <Idih>
0.000

> <Tether>
0.000

$$$$
VeraChem MOL file


 17 16  0  0  0  0  0  0  0  0999 V2000     
   19.9313   19.0716   19.7446 N   0  3  0  0  0  0  0  0  0  0  0  0
   20.8533   18.8075   20.1009 H   0  0  0  0  0  0  0  0  0  0  0  0
   19.9742   20.0671   19.5064 H   0  0  0  0  0  0  0  0  0  0  0  0
   19.7888   18.5617   18.8668 H   0  0  0  0  0  0  0  0  0  0  0  0
   18.8349   18.7798   20.7510 C   0  0  0  0  0  0  0  0  0  0  0  0
   18.7910   17.6997   20.9146 H   0  0  0  0  0  0  0  0  0  0  0  0
   17.8911   19.0910   20.2949 H   0  0  0  0  0  0  0  0  0  0  0  0
   19.0040   19.5063   22.1020 C   0  0  0  0  0  0  0  0  0  0  0  0
   19.2954   20.5514   21.9326 H   0  0  0  0  0  0  0  0  0  0  0  0
   18.0199   19.5431   22.5879 H   0  0  0  0  0  0  0  0  0  0  0  0
   19.9931   18.8225   23.0801 C   0  0  0  0  0  0  0  0  0  0  0  0
   19.6556   17.7980   23.2909 H   0  0  0  0  0  0  0  0  0  0  0  0
   19.9568   19.3577   24.0394 H   0  0  0  0  0  0  0  0  0  0  0  0
   21.4584   18.7912   22.5892 C   0  0  0  0  0  0  0  0  0  0  0  0
   21.5869   18.0976   21.7501 H   0  0  0  0  0  0  0  0  0  0  0  0
   22.1221   18.4496   23.3941 H   0  0  0  0  0  0  0  0  0  0  0  0
   21.7965   19.7888   22.2798 H   0  0  0  0  0  0  0  0  0  0  0  0
  1  2  1  0  0  0  0
  1  3  1  0  0  0  0
  1  4  1  0  0  0  0
  1  5  1  0  0  0  0
  5  6  1  0  0  0  0
  5  7  1  0  0  0  0
  5  8  1  0  0  0  0
  8  9  1  0  0  0  0
  8 10  1  0  0  0  0
  8 11  1  0  0  0  0
 11 12  1  0  0  0  0
 11 13  1  0  0  0  0
 11 14  1  0  0  0  0
 14 15  1  0  0  0  0
 14 16  1  0  0  0  0
 14 17  1  0  0  0  0
M  END
> <VConfSearch Rank>
441

> <Conf_Id>
19

> <Delta U+W>
2.662

> <U+W>
-13.203

> <U>
47.423

> <W>
-60.626

> <W(PB)>
-62.328

> <W(SA)>
1.702

> <Valence>
2.414

> <Coulomb>
44.831

> <VdW>
0.178

> <VdW6>
-3.743

> <VdW12>
3.921

> <Bond>
0.138

> <Angle>
0.941

> <Pdih>
1.335

> <Idih>
0.000

> <Tether>
0.000

$$$$
VeraChem MOL file


 17 16  0  0  0  0  0  0  0  0999 V2000     
   19.8780   17.2472   22.0042 N   0  3  0  0  0  0  0  0  0  0  0  0
   20.4374   16.4306   22.2705 H   0  0  0  0  0  0  0  0  0  0  0  0
   18.9527   16.8987   21.7361 H   0  0  0  0  0  0  0  0  0  0  0  0
   19.7533   17.8153   22.8460 H   0  0  0  0  0  0  0  0  0  0  0  0
   20.5290   18.0363   20.8846 C   0  0  0  0  0  0  0  0  0  0  0  0
   20.6224   17.3610   20.0298 H   0  0  0  0  0  0  0  0  0  0  0  0
   21.5358   18.3227   21.2004 H   0  0  0  0  0  0  0  0  0  0  0  0
   19.7411   19.2904   20.4509 C   0  0  0  0  0  0  0  0  0  0  0  0
   20.0661   19.5557   19.4361 H   0  0  0  0  0  0  0  0  0  0  0  0
   18.6718   19.0535   20.3723 H   0  0  0  0  0  0  0  0  0  0  0  0
   19.9537   20.5288   21.3585 C   0  0  0  0  0  0  0  0  0  0  0  0
   19.4362   21.3847   20.9029 H   0  0  0  0  0  0  0  0  0  0  0  0
   21.0202   20.7939   21.3781 H   0  0  0  0  0  0  0  0  0  0  0  0
   19.4393   20.3563   22.8058 C   0  0  0  0  0  0  0  0  0  0  0  0
   18.4014   19.9989   22.8200 H   0  0  0  0  0  0  0  0  0  0  0  0
   19.4680   21.3167   23.3368 H   0  0  0  0  0  0  0  0  0  0  0  0
   20.0629   19.6560   23.3736 H   0  0  0  0  0  0  0  0  0  0  0  0
  1  2  1  0  0  0  0
  1  3  1  0  0  0  0
  1  4  1  0  0  0  0
  1  5  1  0  0  0  0
  5  6  1  0  0  0  0
  5  7  1  0  0  0  0
  5  8  1  0  0  0  0
  8  9  1  0  0  0  0
  8 10  1  0  0  0  0
  8 11  1  0  0  0  0
 11 12  1  0  0  0  0
 11 13  1  0  0  0  0
 11 14  1  0  0  0  0
 14 15  1  0  0  0  0
 14 16  1  0  0  0  0
 14 17  1  0  0  0  0
M  END
> <VConfSearch Rank>
442

> <Conf_Id>
44

> <Delta U+W>
2.712

> <U+W>
-13.153

> <U>
47.423

> <W>
-60.576

> <W(PB)>
-62.262

> <W(SA)>
1.687

> <Valence>
2.414

> <Coulomb>
44.831

> <VdW>
0.178

> <VdW6>
-3.743

> <VdW12>
3.922

> <Bond>
0.138

> <Angle>
0.941

> <Pdih>
1.335

> <Idih>
0.000

> <Tether>
0.000

$$$$
VeraChem MOL file


 17 16  0  0  0  0  0  0  0  0999 V2000     
   18.8698   18.0754   20.2144 N   0  3  0  0  0  0  0  0  0  0  0  0
   18.4948   17.7953   21.1251 H   0  0  0  0  0  0  0  0  0  0  0  0
   19.3871   17.2741   19.8405 H   0  0  0  0  0  0  0  0  0  0  0  0
   18.0678   18.2274   19.5945 H   0  0  0  0  0  0  0  0  0  0  0  0
   19.7418   19.3115   20.3220 C   0  0  0  0  0  0  0  0  0  0  0  0
   19.1237   20.1313   20.6971 H   0  0  0  0  0  0  0  0  0  0  0  0
   20.0743   19.5731   19.3138 H   0  0  0  0  0  0  0  0  0  0  0  0
   20.9723   19.1281   21.2342 C   0  0  0  0  0  0  0  0  0  0  0  0
   21.6073   18.3303   20.8267 H   0  0  0  0  0  0  0  0  0  0  0  0
   21.5747   20.0456   21.2001 H   0  0  0  0  0  0  0  0  0  0  0  0
   20.6215   18.8038   22.7077 C   0  0  0  0  0  0  0  0  0  0  0  0
   21.5549   18.6769   23.2739 H   0  0  0  0  0  0  0  0  0  0  0  0
   20.0973   17.8403   22.7678 H   0  0  0  0  0  0  0  0  0  0  0  0
   19.7697   19.9028   23.3834 C   0  0  0  0  0  0  0  0  0  0  0  0
   20.2738   20.8769   23.3371 H   0  0  0  0  0  0  0  0  0  0  0  0
   19.6010   19.6633   24.4412 H   0  0  0  0  0  0  0  0  0  0  0  0
   18.7869   20.0028   22.9060 H   0  0  0  0  0  0  0  0  0  0  0  0
  1  2  1  0  0  0  0
  1  3  1  0  0  0  0
  1  4  1  0  0  0  0
  1  5  1  0  0  0  0
  5  6  1  0  0  0  0
  5  7  1  0  0  0  0
  5  8  1  0  0  0  0
  8  9  1  0  0  0  0
  8 10  1  0  0  0  0
  8 11  1  0  0  0  0
 11 12  1  0  0  0  0
 11 13  1  0  0  0  0
 11 14  1  0  0  0  0
 14 15  1  0  0  0  0
 14 16  1  0  0  0  0
 14 17  1  0  0  0  0
M  END
> <VConfSearch Rank>
443

> <Conf_Id>
1

> <Delta U+W>
0.685

> <U+W>
-15.179

> <U>
45.697

> <W>
-60.876

> <W(PB)>
-62.586

> <W(SA)>
1.710

> <Valence>
1.263

> <Coulomb>
44.179

> <VdW>
0.255

> <VdW6>
-3.552

> <VdW12>
3.807

> <Bond>
0.125

> <Angle>
0.616

> <Pdih>
0.521

> <Idih>
0.000

> <Tether>
0.000

$$$$
VeraChem MOL file


 17 16  0  0  0  0  0  0  0  0999 V2000     
   20.5984   19.7122   19.8594 N   0  3  0  0  0  0  0  0  0  0  0  0
   19.8394   19.8246   19.1807 H   0  0  0  0  0  0  0  0  0  0  0  0
   20.8239   18.7141   19.8988 H   0  0  0  0  0  0  0  0  0  0  0  0
   21.4183   20.1890   19.4706 H   0  0  0  0  0  0  0  0  0  0  0  0
   20.2229   20.2577   21.2237 C   0  0  0  0  0  0  0  0  0  0  0  0
   20.0332   21.3288   21.1133 H   0  0  0  0  0  0  0  0  0  0  0  0
   21.0826   20.1336   21.8872 H   0  0  0  0  0  0  0  0  0  0  0  0
   18.9838   19.5809   21.8454 C   0  0  0  0  0  0  0  0  0  0  0  0
   18.7501   20.0805   22.7950 H   0  0  0  0  0  0  0  0  0  0  0  0
   18.1170   19.7460   21.1919 H   0  0  0  0  0  0  0  0  0  0  0  0
   19.1555   18.0623   22.0978 C   0  0  0  0  0  0  0  0  0  0  0  0
   19.2989   17.5350   21.1449 H   0  0  0  0  0  0  0  0  0  0  0  0
   18.2234   17.6671   22.5256 H   0  0  0  0  0  0  0  0  0  0  0  0
   20.3251   17.7359   23.0545 C   0  0  0  0  0  0  0  0  0  0  0  0
   20.3683   16.6577   23.2559 H   0  0  0  0  0  0  0  0  0  0  0  0
   20.2038   18.2513   24.0162 H   0  0  0  0  0  0  0  0  0  0  0  0
   21.2913   18.0315   22.6269 H   0  0  0  0  0  0  0  0  0  0  0  0
  1  2  1  0  0  0  0
  1  3  1  0  0  0  0
  1  4  1  0  0  0  0
  1  5  1  0  0  0  0
  5  6  1  0  0  0  0
  5  7  1  0  0  0  0
  5  8  1  0  0  0  0
  8  9  1  0  0  0  0
  8 10  1  0  0  0  0
  8 11  1  0  0  0  0
 11 12  1  0  0  0  0
 11 13  1  0  0  0  0
 11 14  1  0  0  0  0
 14 15  1  0  0  0  0
 14 16  1  0  0  0  0
 14 17  1  0  0  0  0
M  END
> <VConfSearch Rank>
444

> <Conf_Id>
43

> <Delta U+W>
0.642

> <U+W>
-15.222

> <U>
45.697

> <W>
-60.919

> <W(PB)>
-62.631

> <W(SA)>
1.712

> <Valence>
1.262

> <Coulomb>
44.179

> <VdW>
0.255

> <VdW6>
-3.552

> <VdW12>
3.807

> <Bond>
0.125

> <Angle>
0.616

> <Pdih>
0.521

> <Idih>
0.000

> <Tether>
0.000

$$$$
VeraChem MOL file


 17 16  0  0  0  0  0  0  0  0999 V2000     
   18.3454   18.1134   19.8433 N   0  3  0  0  0  0  0  0  0  0  0  0
   18.4397   18.8682   19.1569 H   0  0  0  0  0  0  0  0  0  0  0  0
   17.4748   18.2809   20.3568 H   0  0  0  0  0  0  0  0  0  0  0  0
   18.2145   17.2458   19.3132 H   0  0  0  0  0  0  0  0  0  0  0  0
   19.5438   18.0336   20.7678 C   0  0  0  0  0  0  0  0  0  0  0  0
   20.4270   17.8237   20.1584 H   0  0  0  0  0  0  0  0  0  0  0  0
   19.3895   17.1921   21.4486 H   0  0  0  0  0  0  0  0  0  0  0  0
   19.7701   19.3216   21.5803 C   0  0  0  0  0  0  0  0  0  0  0  0
   19.9092   20.1671   20.8935 H   0  0  0  0  0  0  0  0  0  0  0  0
   18.8754   19.5376   22.1793 H   0  0  0  0  0  0  0  0  0  0  0  0
   20.9989   19.1983   22.5079 C   0  0  0  0  0  0  0  0  0  0  0  0
   21.8942   18.9788   21.9091 H   0  0  0  0  0  0  0  0  0  0  0  0
   20.8616   18.3501   23.1935 H   0  0  0  0  0  0  0  0  0  0  0  0
   21.2322   20.4867   23.3261 C   0  0  0  0  0  0  0  0  0  0  0  0
   22.1088   20.3788   23.9780 H   0  0  0  0  0  0  0  0  0  0  0  0
   20.3663   20.7136   23.9618 H   0  0  0  0  0  0  0  0  0  0  0  0
   21.4070   21.3473   22.6673 H   0  0  0  0  0  0  0  0  0  0  0  0
  1  2  1  0  0  0  0
  1  3  1  0  0  0  0
  1  4  1  0  0  0  0
  1  5  1  0  0  0  0
  5  6  1  0  0  0  0
  5  7  1  0  0  0  0
  5  8  1  0  0  0  0
  8  9  1  0  0  0  0
  8 10  1  0  0  0  0
  8 11  1  0  0  0  0
 11 12  1  0  0  0  0
 11 13  1  0  0  0  0
 11 14  1  0  0  0  0
 14 15  1  0  0  0  0
 14 16  1  0  0  0  0
 14 17  1  0  0  0  0
M  END
> <VConfSearch Rank>
445

> <Conf_Id>
7

> <Delta U+W>
0.000

> <U+W>
-15.865

> <U>
44.664

> <W>
-60.529

> <W(PB)>
-62.309

> <W(SA)>
1.780

> <Valence>
0.872

> <Coulomb>
43.648

> <VdW>
0.144

> <VdW6>
-2.370

> <VdW12>
2.515

> <Bond>
0.080

> <Angle>
0.376

> <Pdih>
0.416

> <Idih>
0.000

> <Tether>
0.000

$$$$
VeraChem MOL file


 17 16  0  0  0  0  0  0  0  0999 V2000     
   17.9615   20.3514   21.0018 N   0  3  0  0  0  0  0  0  0  0  0  0
   18.0327   21.2918   21.4021 H   0  0  0  0  0  0  0  0  0  0  0  0
   17.2819   19.8343   21.5678 H   0  0  0  0  0  0  0  0  0  0  0  0
   17.5507   20.4571   20.0686 H   0  0  0  0  0  0  0  0  0  0  0  0
   19.3057   19.6530   20.9502 C   0  0  0  0  0  0  0  0  0  0  0  0
   19.9677   20.2410   20.3088 H   0  0  0  0  0  0  0  0  0  0  0  0
   19.1581   18.6746   20.4857 H   0  0  0  0  0  0  0  0  0  0  0  0
   19.9518   19.4773   22.3379 C   0  0  0  0  0  0  0  0  0  0  0  0
   20.0587   20.4619   22.8123 H   0  0  0  0  0  0  0  0  0  0  0  0
   19.2862   18.8881   22.9827 H   0  0  0  0  0  0  0  0  0  0  0  0
   21.3400   18.7990   22.2679 C   0  0  0  0  0  0  0  0  0  0  0  0
   21.7778   18.7773   23.2758 H   0  0  0  0  0  0  0  0  0  0  0  0
   22.0175   19.4049   21.6499 H   0  0  0  0  0  0  0  0  0  0  0  0
   21.2807   17.3573   21.7130 C   0  0  0  0  0  0  0  0  0  0  0  0
   20.6047   16.7315   22.3100 H   0  0  0  0  0  0  0  0  0  0  0  0
   22.2755   16.8939   21.7384 H   0  0  0  0  0  0  0  0  0  0  0  0
   20.9343   17.3396   20.6719 H   0  0  0  0  0  0  0  0  0  0  0  0
  1  2  1  0  0  0  0
  1  3  1  0  0  0  0
  1  4  1  0  0  0  0
  1  5  1  0  0  0  0
  5  6  1  0  0  0  0
  5  7  1  0  0  0  0
  5  8  1  0  0  0  0
  8  9  1  0  0  0  0
  8 10  1  0  0  0  0
  8 11  1  0  0  0  0
 11 12  1  0  0  0  0
 11 13  1  0  0  0  0
 11 14  1  0  0  0  0
 14 15  1  0  0  0  0
 14 16  1  0  0  0  0
 14 17  1  0  0  0  0
M  END
> <VConfSearch Rank>
446

> <Conf_Id>
36

> <Delta U+W>
0.275

> <U+W>
-15.590

> <U>
45.174

> <W>
-60.765

> <W(PB)>
-62.518

> <W(SA)>
1.754

> <Valence>
1.161

> <Coulomb>
43.789

> <VdW>
0.224

> <VdW6>
-2.897

> <VdW12>
3.121

> <Bond>
0.100

> <Angle>
0.500

> <Pdih>
0.561

> <Idih>
0.000

> <Tether>
0.000

$$$$
VeraChem MOL file


 17 16  0  0  0  0  0  0  0  0999 V2000     
   21.0909   20.2944   22.2484 N   0  3  0  0  0  0  0  0  0  0  0  0
   21.4913   19.8138   21.4388 H   0  0  0  0  0  0  0  0  0  0  0  0
   21.5308   19.8957   23.0834 H   0  0  0  0  0  0  0  0  0  0  0  0
   21.3871   21.2743   22.1956 H   0  0  0  0  0  0  0  0  0  0  0  0
   19.5806   20.1630   22.2900 C   0  0  0  0  0  0  0  0  0  0  0  0
   19.1633   20.6635   21.4121 H   0  0  0  0  0  0  0  0  0  0  0  0
   19.2373   20.6986   23.1793 H   0  0  0  0  0  0  0  0  0  0  0  0
   19.0719   18.7073   22.3523 C   0  0  0  0  0  0  0  0  0  0  0  0
   19.6681   18.1316   23.0725 H   0  0  0  0  0  0  0  0  0  0  0  0
   18.0502   18.7265   22.7544 H   0  0  0  0  0  0  0  0  0  0  0  0
   19.0316   17.9814   20.9833 C   0  0  0  0  0  0  0  0  0  0  0  0
   18.3810   18.5340   20.2909 H   0  0  0  0  0  0  0  0  0  0  0  0
   18.5588   16.9995   21.1261 H   0  0  0  0  0  0  0  0  0  0  0  0
   20.4167   17.7704   20.3308 C   0  0  0  0  0  0  0  0  0  0  0  0
   20.8431   18.7163   19.9769 H   0  0  0  0  0  0  0  0  0  0  0  0
   20.3297   17.1099   19.4583 H   0  0  0  0  0  0  0  0  0  0  0  0
   21.1210   17.3044   21.0323 H   0  0  0  0  0  0  0  0  0  0  0  0
  1  2  1  0  0  0  0
  1  3  1  0  0  0  0
  1  4  1  0  0  0  0
  1  5  1  0  0  0  0
  5  6  1  0  0  0  0
  5  7  1  0  0  0  0
  5  8  1  0  0  0  0
  8  9  1  0  0  0  0
  8 10  1  0  0  0  0
  8 11  1  0  0  0  0
 11 12  1  0  0  0  0
 11 13  1  0  0  0  0
 11 14  1  0  0  0  0
 14 15  1  0  0  0  0
 14 16  1  0  0  0  0
 14 17  1  0  0  0  0
M  END
> <VConfSearch Rank>
447

> <Conf_Id>
19

> <Delta U+W>
2.662

> <U+W>
-13.203

> <U>
47.423

> <W>
-60.626

> <W(PB)>
-62.328

> <W(SA)>
1.702

> <Valence>
2.414

> <Coulomb>
44.831

> <VdW>
0.178

> <VdW6>
-3.743

> <VdW12>
3.921

> <Bond>
0.138

> <Angle>
0.941

> <Pdih>
1.335

> <Idih>
0.000

> <Tether>
0.000

$$$$
VeraChem MOL file


 17 16  0  0  0  0  0  0  0  0999 V2000     
   18.2016   18.3353   21.9302 N   0  3  0  0  0  0  0  0  0  0  0  0
   17.1936   18.3996   21.7549 H   0  0  0  0  0  0  0  0  0  0  0  0
   18.3280   17.6658   22.6952 H   0  0  0  0  0  0  0  0  0  0  0  0
   18.6274   17.9231   21.0962 H   0  0  0  0  0  0  0  0  0  0  0  0
   18.8044   19.6875   22.2593 C   0  0  0  0  0  0  0  0  0  0  0  0
   18.2985   20.0532   23.1571 H   0  0  0  0  0  0  0  0  0  0  0  0
   18.5805   20.3769   21.4409 H   0  0  0  0  0  0  0  0  0  0  0  0
   20.3258   19.6583   22.5162 C   0  0  0  0  0  0  0  0  0  0  0  0
   20.5844   20.5530   23.0980 H   0  0  0  0  0  0  0  0  0  0  0  0
   20.5830   18.8008   23.1522 H   0  0  0  0  0  0  0  0  0  0  0  0
   21.1945   19.6571   21.2325 C   0  0  0  0  0  0  0  0  0  0  0  0
   22.2495   19.7423   21.5285 H   0  0  0  0  0  0  0  0  0  0  0  0
   20.9732   20.5531   20.6356 H   0  0  0  0  0  0  0  0  0  0  0  0
   21.0308   18.3979   20.3512 C   0  0  0  0  0  0  0  0  0  0  0  0
   21.1525   17.4801   20.9410 H   0  0  0  0  0  0  0  0  0  0  0  0
   21.7899   18.3872   19.5583 H   0  0  0  0  0  0  0  0  0  0  0  0
   20.0514   18.3757   19.8593 H   0  0  0  0  0  0  0  0  0  0  0  0
  1  2  1  0  0  0  0
  1  3  1  0  0  0  0
  1  4  1  0  0  0  0
  1  5  1  0  0  0  0
  5  6  1  0  0  0  0
  5  7  1  0  0  0  0
  5  8  1  0  0  0  0
  8  9  1  0  0  0  0
  8 10  1  0  0  0  0
  8 11  1  0  0  0  0
 11 12  1  0  0  0  0
 11 13  1  0  0  0  0
 11 14  1  0  0  0  0
 14 15  1  0  0  0  0
 14 16  1  0  0  0  0
 14 17  1  0  0  0  0
M  END
> <VConfSearch Rank>
448

> <Conf_Id>
44

> <Delta U+W>
2.712

> <U+W>
-13.153

> <U>
47.423

> <W>
-60.576

> <W(PB)>
-62.262

> <W(SA)>
1.687

> <Valence>
2.414

> <Coulomb>
44.831

> <VdW>
0.178

> <VdW6>
-3.743

> <VdW12>
3.922

> <Bond>
0.138

> <Angle>
0.941

> <Pdih>
1.335

> <Idih>
0.000

> <Tether>
0.000

$$$$
VeraChem MOL file


 17 16  0  0  0  0  0  0  0  0999 V2000     
   19.2527   17.1717   21.4714 N   0  3  0  0  0  0  0  0  0  0  0  0
   18.6975   17.6406   22.1927 H   0  0  0  0  0  0  0  0  0  0  0  0
   19.8779   16.5158   21.9492 H   0  0  0  0  0  0  0  0  0  0  0  0
   18.6031   16.6098   20.9120 H   0  0  0  0  0  0  0  0  0  0  0  0
   20.0188   18.1643   20.6183 C   0  0  0  0  0  0  0  0  0  0  0  0
   19.2942   18.8111   20.1167 H   0  0  0  0  0  0  0  0  0  0  0  0
   20.5553   17.5994   19.8511 H   0  0  0  0  0  0  0  0  0  0  0  0
   21.0217   19.0253   21.4137 C   0  0  0  0  0  0  0  0  0  0  0  0
   21.7689   18.3697   21.8802 H   0  0  0  0  0  0  0  0  0  0  0  0
   21.5722   19.6636   20.7098 H   0  0  0  0  0  0  0  0  0  0  0  0
   20.3665   19.9131   22.5009 C   0  0  0  0  0  0  0  0  0  0  0  0
   21.1547   20.4751   23.0211 H   0  0  0  0  0  0  0  0  0  0  0  0
   19.8886   19.2843   23.2643 H   0  0  0  0  0  0  0  0  0  0  0  0
   19.3340   20.9103   21.9269 C   0  0  0  0  0  0  0  0  0  0  0  0
   19.7888   21.5520   21.1611 H   0  0  0  0  0  0  0  0  0  0  0  0
   18.9449   21.5611   22.7207 H   0  0  0  0  0  0  0  0  0  0  0  0
   18.4790   20.3916   21.4755 H   0  0  0  0  0  0  0  0  0  0  0  0
  1  2  1  0  0  0  0
  1  3  1  0  0  0  0
  1  4  1  0  0  0  0
  1  5  1  0  0  0  0
  5  6  1  0  0  0  0
  5  7  1  0  0  0  0
  5  8  1  0  0  0  0
  8  9  1  0  0  0  0
  8 10  1  0  0  0  0
  8 11  1  0  0  0  0
 11 12  1  0  0  0  0
 11 13  1  0  0  0  0
 11 14  1  0  0  0  0
 14 15  1  0  0  0  0
 14 16  1  0  0  0  0
 14 17  1  0  0  0  0
M  END
> <VConfSearch Rank>
449

> <Conf_Id>
1

> <Delta U+W>
0.685

> <U+W>
-15.179

> <U>
45.697

> <W>
-60.876

> <W(PB)>
-62.586

> <W(SA)>
1.710

> <Valence>
1.263

> <Coulomb>
44.179

> <VdW>
0.255

> <VdW6>
-3.552

> <VdW12>
3.807

> <Bond>
0.125

> <Angle>
0.616

> <Pdih>
0.521

> <Idih>
0.000

> <Tether>
0.000

$$$$
VeraChem MOL file


 17 16  0  0  0  0  0  0  0  0999 V2000     
   18.4678   17.6808   21.5895 N   0  3  0  0  0  0  0  0  0  0  0  0
   17.7873   17.8572   22.3346 H   0  0  0  0  0  0  0  0  0  0  0  0
   19.2836   17.2393   22.0230 H   0  0  0  0  0  0  0  0  0  0  0  0
   18.0494   16.9861   20.9626 H   0  0  0  0  0  0  0  0  0  0  0  0
   18.8423   18.9523   20.8527 C   0  0  0  0  0  0  0  0  0  0  0  0
   17.9353   19.3464   20.3864 H   0  0  0  0  0  0  0  0  0  0  0  0
   19.5443   18.6894   20.0571 H   0  0  0  0  0  0  0  0  0  0  0  0
   19.4638   20.0363   21.7575 C   0  0  0  0  0  0  0  0  0  0  0  0
   19.6415   20.9371   21.1551 H   0  0  0  0  0  0  0  0  0  0  0  0
   18.7362   20.3229   22.5284 H   0  0  0  0  0  0  0  0  0  0  0  0
   20.7889   19.6074   22.4355 C   0  0  0  0  0  0  0  0  0  0  0  0
   20.6095   18.7624   23.1142 H   0  0  0  0  0  0  0  0  0  0  0  0
   21.1465   20.4328   23.0670 H   0  0  0  0  0  0  0  0  0  0  0  0
   21.8949   19.2352   21.4217 C   0  0  0  0  0  0  0  0  0  0  0  0
   22.8324   19.0019   21.9430 H   0  0  0  0  0  0  0  0  0  0  0  0
   22.0935   20.0656   20.7317 H   0  0  0  0  0  0  0  0  0  0  0  0
   21.6188   18.3550   20.8276 H   0  0  0  0  0  0  0  0  0  0  0  0
  1  2  1  0  0  0  0
  1  3  1  0  0  0  0
  1  4  1  0  0  0  0
  1  5  1  0  0  0  0
  5  6  1  0  0  0  0
  5  7  1  0  0  0  0
  5  8  1  0  0  0  0
  8  9  1  0  0  0  0
  8 10  1  0  0  0  0
  8 11  1  0  0  0  0
 11 12  1  0  0  0  0
 11 13  1  0  0  0  0
 11 14  1  0  0  0  0
 14 15  1  0  0  0  0
 14 16  1  0  0  0  0
 14 17  1  0  0  0  0
M  END
> <VConfSearch Rank>
450

> <Conf_Id>
43

> <Delta U+W>
0.642

> <U+W>
-15.222

> <U>
45.697

> <W>
-60.919

> <W(PB)>
-62.631

> <W(SA)>
1.712

> <Valence>
1.262

> <Coulomb>
44.179

> <VdW>
0.255

> <VdW6>
-3.552

> <VdW12>
3.807

> <Bond>
0.125

> <Angle>
0.616

> <Pdih>
0.521

> <Idih>
0.000

> <Tether>
0.000

$$$$
VeraChem MOL file


 17 16  0  0  0  0  0  0  0  0999 V2000     
   18.8712   19.0210   23.9281 N   0  3  0  0  0  0  0  0  0  0  0  0
   19.3787   18.2111   24.2973 H   0  0  0  0  0  0  0  0  0  0  0  0
   17.9465   18.6894   23.6373 H   0  0  0  0  0  0  0  0  0  0  0  0
   18.7225   19.6611   24.7149 H   0  0  0  0  0  0  0  0  0  0  0  0
   19.6183   19.6894   22.7913 C   0  0  0  0  0  0  0  0  0  0  0  0
   20.5771   20.0436   23.1795 H   0  0  0  0  0  0  0  0  0  0  0  0
   19.0371   20.5579   22.4698 H   0  0  0  0  0  0  0  0  0  0  0  0
   19.8592   18.7552   21.5915 C   0  0  0  0  0  0  0  0  0  0  0  0
   20.4298   17.8767   21.9212 H   0  0  0  0  0  0  0  0  0  0  0  0
   18.8950   18.3894   21.2139 H   0  0  0  0  0  0  0  0  0  0  0  0
   20.6221   19.4743   20.4573 C   0  0  0  0  0  0  0  0  0  0  0  0
   21.5860   19.8436   20.8355 H   0  0  0  0  0  0  0  0  0  0  0  0
   20.0530   20.3556   20.1290 H   0  0  0  0  0  0  0  0  0  0  0  0
   20.8675   18.5433   19.2503 C   0  0  0  0  0  0  0  0  0  0  0  0
   21.4103   19.0725   18.4563 H   0  0  0  0  0  0  0  0  0  0  0  0
   19.9195   18.1849   18.8282 H   0  0  0  0  0  0  0  0  0  0  0  0
   21.4645   17.6688   19.5403 H   0  0  0  0  0  0  0  0  0  0  0  0
  1  2  1  0  0  0  0
  1  3  1  0  0  0  0
  1  4  1  0  0  0  0
  1  5  1  0  0  0  0
  5  6  1  0  0  0  0
  5  7  1  0  0  0  0
  5  8  1  0  0  0  0
  8  9  1  0  0  0  0
  8 10  1  0  0  0  0
  8 11  1  0  0  0  0
 11 12  1  0  0  0  0
 11 13  1  0  0  0  0
 11 14  1  0  0  0  0
 14 15  1  0  0  0  0
 14 16  1  0  0  0  0
 14 17  1  0  0  0  0
M  END
> <VConfSearch Rank>
451

> <Conf_Id>
7

> <Delta U+W>
0.000

> <U+W>
-15.865

> <U>
44.664

> <W>
-60.529

> <W(PB)>
-62.309

> <W(SA)>
1.780

> <Valence>
0.872

> <Coulomb>
43.648

> <VdW>
0.144

> <VdW6>
-2.370

> <VdW12>
2.515

> <Bond>
0.080

> <Angle>
0.376

> <Pdih>
0.416

> <Idih>
0.000

> <Tether>
0.000

$$$$
VeraChem MOL file


 17 16  0  0  0  0  0  0  0  0999 V2000     
   18.7941   21.0098   20.6831 N   0  3  0  0  0  0  0  0  0  0  0  0
   17.8039   20.9640   20.9422 H   0  0  0  0  0  0  0  0  0  0  0  0
   18.8595   20.7419   19.6964 H   0  0  0  0  0  0  0  0  0  0  0  0
   19.0702   21.9953   20.7415 H   0  0  0  0  0  0  0  0  0  0  0  0
   19.6540   20.1300   21.5685 C   0  0  0  0  0  0  0  0  0  0  0  0
   19.5596   20.4900   22.5965 H   0  0  0  0  0  0  0  0  0  0  0  0
   20.6941   20.2536   21.2560 H   0  0  0  0  0  0  0  0  0  0  0  0
   19.2655   18.6404   21.5042 C   0  0  0  0  0  0  0  0  0  0  0  0
   18.2084   18.5320   21.7812 H   0  0  0  0  0  0  0  0  0  0  0  0
   19.3587   18.2792   20.4714 H   0  0  0  0  0  0  0  0  0  0  0  0
   20.1241   17.7591   22.4412 C   0  0  0  0  0  0  0  0  0  0  0  0
   19.7448   16.7281   22.4082 H   0  0  0  0  0  0  0  0  0  0  0  0
   20.0059   18.0985   23.4800 H   0  0  0  0  0  0  0  0  0  0  0  0
   21.6231   17.7571   22.0631 C   0  0  0  0  0  0  0  0  0  0  0  0
   21.7686   17.4271   21.0263 H   0  0  0  0  0  0  0  0  0  0  0  0
   22.1833   17.0731   22.7138 H   0  0  0  0  0  0  0  0  0  0  0  0
   22.0677   18.7545   22.1711 H   0  0  0  0  0  0  0  0  0  0  0  0
  1  2  1  0  0  0  0
  1  3  1  0  0  0  0
  1  4  1  0  0  0  0
  1  5  1  0  0  0  0
  5  6  1  0  0  0  0
  5  7  1  0  0  0  0
  5  8  1  0  0  0  0
  8  9  1  0  0  0  0
  8 10  1  0  0  0  0
  8 11  1  0  0  0  0
 11 12  1  0  0  0  0
 11 13  1  0  0  0  0
 11 14  1  0  0  0  0
 14 15  1  0  0  0  0
 14 16  1  0  0  0  0
 14 17  1  0  0  0  0
M  END
> <VConfSearch Rank>
452

> <Conf_Id>
36

> <Delta U+W>
0.275

> <U+W>
-15.590

> <U>
45.174

> <W>
-60.765

> <W(PB)>
-62.518

> <W(SA)>
1.754

> <Valence>
1.161

> <Coulomb>
43.789

> <VdW>
0.224

> <VdW6>
-2.897

> <VdW12>
3.121

> <Bond>
0.100

> <Angle>
0.500

> <Pdih>
0.561

> <Idih>
0.000

> <Tether>
0.000

$$$$
VeraChem MOL file


 17 16  0  0  0  0  0  0  0  0999 V2000     
   19.0022   20.2402   22.6059 N   0  3  0  0  0  0  0  0  0  0  0  0
   19.7020   19.7564   23.1742 H   0  0  0  0  0  0  0  0  0  0  0  0
   18.0952   19.8132   22.8169 H   0  0  0  0  0  0  0  0  0  0  0  0
   18.9593   21.2088   22.9387 H   0  0  0  0  0  0  0  0  0  0  0  0
   19.3297   20.1657   21.1270 C   0  0  0  0  0  0  0  0  0  0  0  0
   20.2706   20.6943   20.9518 H   0  0  0  0  0  0  0  0  0  0  0  0
   18.5376   20.7012   20.5966 H   0  0  0  0  0  0  0  0  0  0  0  0
   19.4259   18.7297   20.5700 C   0  0  0  0  0  0  0  0  0  0  0  0
   18.5965   18.1214   20.9545 H   0  0  0  0  0  0  0  0  0  0  0  0
   19.2821   18.7820   19.4826 H   0  0  0  0  0  0  0  0  0  0  0  0
   20.7805   18.0256   20.8383 C   0  0  0  0  0  0  0  0  0  0  0  0
   21.5965   18.6124   20.3936 H   0  0  0  0  0  0  0  0  0  0  0  0
   20.7789   17.0604   20.3125 H   0  0  0  0  0  0  0  0  0  0  0  0
   21.0837   17.7715   22.3324 C   0  0  0  0  0  0  0  0  0  0  0  0
   21.3022   18.7055   22.8631 H   0  0  0  0  0  0  0  0  0  0  0  0
   21.9664   17.1273   22.4373 H   0  0  0  0  0  0  0  0  0  0  0  0
   20.2439   17.2690   22.8298 H   0  0  0  0  0  0  0  0  0  0  0  0
  1  2  1  0  0  0  0
  1  3  1  0  0  0  0
  1  4  1  0  0  0  0
  1  5  1  0  0  0  0
  5  6  1  0  0  0  0
  5  7  1  0  0  0  0
  5  8  1  0  0  0  0
  8  9  1  0  0  0  0
  8 10  1  0  0  0  0
  8 11  1  0  0  0  0
 11 12  1  0  0  0  0
 11 13  1  0  0  0  0
 11 14  1  0  0  0  0
 14 15  1  0  0  0  0
 14 16  1  0  0  0  0
 14 17  1  0  0  0  0
M  END
> <VConfSearch Rank>
453

> <Conf_Id>
19

> <Delta U+W>
2.662

> <U+W>
-13.203

> <U>
47.423

> <W>
-60.626

> <W(PB)>
-62.328

> <W(SA)>
1.702

> <Valence>
2.414

> <Coulomb>
44.831

> <VdW>
0.178

> <VdW6>
-3.743

> <VdW12>
3.921

> <Bond>
0.138

> <Angle>
0.941

> <Pdih>
1.335

> <Idih>
0.000

> <Tether>
0.000

$$$$
VeraChem MOL file


 17 16  0  0  0  0  0  0  0  0999 V2000     
   20.4148   20.3938   20.4194 N   0  3  0  0  0  0  0  0  0  0  0  0
   20.6711   20.6278   19.4548 H   0  0  0  0  0  0  0  0  0  0  0  0
   20.6684   21.2002   20.9980 H   0  0  0  0  0  0  0  0  0  0  0  0
   19.3954   20.3107   20.4492 H   0  0  0  0  0  0  0  0  0  0  0  0
   21.0965   19.1242   20.8921 C   0  0  0  0  0  0  0  0  0  0  0  0
   22.1742   19.2981   20.8308 H   0  0  0  0  0  0  0  0  0  0  0  0
   20.8448   18.3157   20.2005 H   0  0  0  0  0  0  0  0  0  0  0  0
   20.7354   18.7095   22.3341 C   0  0  0  0  0  0  0  0  0  0  0  0
   21.5301   18.0461   22.7006 H   0  0  0  0  0  0  0  0  0  0  0  0
   20.7492   19.5883   22.9923 H   0  0  0  0  0  0  0  0  0  0  0  0
   19.3870   17.9568   22.4678 C   0  0  0  0  0  0  0  0  0  0  0  0
   19.2810   17.6189   23.5083 H   0  0  0  0  0  0  0  0  0  0  0  0
   19.4097   17.0458   21.8534 H   0  0  0  0  0  0  0  0  0  0  0  0
   18.1455   18.7986   22.0949 C   0  0  0  0  0  0  0  0  0  0  0  0
   18.1431   19.7609   22.6232 H   0  0  0  0  0  0  0  0  0  0  0  0
   17.2269   18.2648   22.3712 H   0  0  0  0  0  0  0  0  0  0  0  0
   18.0962   18.9866   21.0161 H   0  0  0  0  0  0  0  0  0  0  0  0
  1  2  1  0  0  0  0
  1  3  1  0  0  0  0
  1  4  1  0  0  0  0
  1  5  1  0  0  0  0
  5  6  1  0  0  0  0
  5  7  1  0  0  0  0
  5  8  1  0  0  0  0
  8  9  1  0  0  0  0
  8 10  1  0  0  0  0
  8 11  1  0  0  0  0
 11 12  1  0  0  0  0
 11 13  1  0  0  0  0
 11 14  1  0  0  0  0
 14 15  1  0  0  0  0
 14 16  1  0  0  0  0
 14 17  1  0  0  0  0
M  END
> <VConfSearch Rank>
454

> <Conf_Id>
44

> <Delta U+W>
2.712

> <U+W>
-13.153

> <U>
47.423

> <W>
-60.576

> <W(PB)>
-62.262

> <W(SA)>
1.687

> <Valence>
2.414

> <Coulomb>
44.831

> <VdW>
0.178

> <VdW6>
-3.743

> <VdW12>
3.922

> <Bond>
0.138

> <Angle>
0.941

> <Pdih>
1.335

> <Idih>
0.000

> <Tether>
0.000

$$$$
VeraChem MOL file


 17 16  0  0  0  0  0  0  0  0999 V2000     
   18.0459   19.3216   22.1975 N   0  3  0  0  0  0  0  0  0  0  0  0
   18.0251   18.5941   21.4773 H   0  0  0  0  0  0  0  0  0  0  0  0
   17.6429   20.1681   21.7847 H   0  0  0  0  0  0  0  0  0  0  0  0
   17.4097   19.0225   22.9435 H   0  0  0  0  0  0  0  0  0  0  0  0
   19.4511   19.5588   22.7161 C   0  0  0  0  0  0  0  0  0  0  0  0
   19.8078   18.6294   23.1674 H   0  0  0  0  0  0  0  0  0  0  0  0
   19.3922   20.3157   23.5031 H   0  0  0  0  0  0  0  0  0  0  0  0
   20.4445   20.0255   21.6320 C   0  0  0  0  0  0  0  0  0  0  0  0
   20.0988   20.9800   21.2134 H   0  0  0  0  0  0  0  0  0  0  0  0
   21.4120   20.2331   22.1081 H   0  0  0  0  0  0  0  0  0  0  0  0
   20.6499   19.0053   20.4846 C   0  0  0  0  0  0  0  0  0  0  0  0
   21.3577   19.4281   19.7578 H   0  0  0  0  0  0  0  0  0  0  0  0
   19.7083   18.8561   19.9389 H   0  0  0  0  0  0  0  0  0  0  0  0
   21.1888   17.6421   20.9757 C   0  0  0  0  0  0  0  0  0  0  0  0
   22.1317   17.7650   21.5242 H   0  0  0  0  0  0  0  0  0  0  0  0
   21.3808   16.9750   20.1253 H   0  0  0  0  0  0  0  0  0  0  0  0
   20.4716   17.1384   21.6360 H   0  0  0  0  0  0  0  0  0  0  0  0
  1  2  1  0  0  0  0
  1  3  1  0  0  0  0
  1  4  1  0  0  0  0
  1  5  1  0  0  0  0
  5  6  1  0  0  0  0
  5  7  1  0  0  0  0
  5  8  1  0  0  0  0
  8  9  1  0  0  0  0
  8 10  1  0  0  0  0
  8 11  1  0  0  0  0
 11 12  1  0  0  0  0
 11 13  1  0  0  0  0
 11 14  1  0  0  0  0
 14 15  1  0  0  0  0
 14 16  1  0  0  0  0
 14 17  1  0  0  0  0
M  END
> <VConfSearch Rank>
455

> <Conf_Id>
1

> <Delta U+W>
0.685

> <U+W>
-15.179

> <U>
45.697

> <W>
-60.876

> <W(PB)>
-62.586

> <W(SA)>
1.710

> <Valence>
1.263

> <Coulomb>
44.179

> <VdW>
0.255

> <VdW6>
-3.552

> <VdW12>
3.807

> <Bond>
0.125

> <Angle>
0.616

> <Pdih>
0.521

> <Idih>
0.000

> <Tether>
0.000

$$$$
VeraChem MOL file


 17 16  0  0  0  0  0  0  0  0999 V2000     
   21.2475   18.5374   22.9977 N   0  3  0  0  0  0  0  0  0  0  0  0
   21.1095   19.0823   23.8541 H   0  0  0  0  0  0  0  0  0  0  0  0
   21.7297   19.1433   22.3278 H   0  0  0  0  0  0  0  0  0  0  0  0
   21.8926   17.7756   23.2304 H   0  0  0  0  0  0  0  0  0  0  0  0
   19.9365   18.0162   22.4414 C   0  0  0  0  0  0  0  0  0  0  0  0
   19.4980   17.3510   23.1903 H   0  0  0  0  0  0  0  0  0  0  0  0
   20.1578   17.4226   21.5506 H   0  0  0  0  0  0  0  0  0  0  0  0
   18.9245   19.1259   22.0889 C   0  0  0  0  0  0  0  0  0  0  0  0
   17.9891   18.6559   21.7575 H   0  0  0  0  0  0  0  0  0  0  0  0
   18.6775   19.6904   22.9978 H   0  0  0  0  0  0  0  0  0  0  0  0
   19.4184   20.1045   20.9943 C   0  0  0  0  0  0  0  0  0  0  0  0
   20.3031   20.6511   21.3479 H   0  0  0  0  0  0  0  0  0  0  0  0
   18.6422   20.8632   20.8218 H   0  0  0  0  0  0  0  0  0  0  0  0
   19.7409   19.4024   19.6553 C   0  0  0  0  0  0  0  0  0  0  0  0
   20.0231   20.1394   18.8924 H   0  0  0  0  0  0  0  0  0  0  0  0
   18.8702   18.8491   19.2802 H   0  0  0  0  0  0  0  0  0  0  0  0
   20.5756   18.6979   19.7594 H   0  0  0  0  0  0  0  0  0  0  0  0
  1  2  1  0  0  0  0
  1  3  1  0  0  0  0
  1  4  1  0  0  0  0
  1  5  1  0  0  0  0
  5  6  1  0  0  0  0
  5  7  1  0  0  0  0
  5  8  1  0  0  0  0
  8  9  1  0  0  0  0
  8 10  1  0  0  0  0
  8 11  1  0  0  0  0
 11 12  1  0  0  0  0
 11 13  1  0  0  0  0
 11 14  1  0  0  0  0
 14 15  1  0  0  0  0
 14 16  1  0  0  0  0
 14 17  1  0  0  0  0
M  END
> <VConfSearch Rank>
456

> <Conf_Id>
43

> <Delta U+W>
0.642

> <U+W>
-15.222

> <U>
45.697

> <W>
-60.919

> <W(PB)>
-62.631

> <W(SA)>
1.712

> <Valence>
1.262

> <Coulomb>
44.179

> <VdW>
0.255

> <VdW6>
-3.552

> <VdW12>
3.807

> <Bond>
0.125

> <Angle>
0.616

> <Pdih>
0.521

> <Idih>
0.000

> <Tether>
0.000

$$$$
VeraChem MOL file


 17 16  0  0  0  0  0  0  0  0999 V2000     
   21.2890   17.3384   22.9606 N   0  3  0  0  0  0  0  0  0  0  0  0
   21.0524   17.6925   23.8925 H   0  0  0  0  0  0  0  0  0  0  0  0
   22.2255   17.6874   22.7351 H   0  0  0  0  0  0  0  0  0  0  0  0
   21.3642   16.3192   23.0414 H   0  0  0  0  0  0  0  0  0  0  0  0
   20.2648   17.7473   21.9208 C   0  0  0  0  0  0  0  0  0  0  0  0
   19.3017   17.3168   22.2081 H   0  0  0  0  0  0  0  0  0  0  0  0
   20.5630   17.3112   20.9635 H   0  0  0  0  0  0  0  0  0  0  0  0
   20.1260   19.2735   21.7733 C   0  0  0  0  0  0  0  0  0  0  0  0
   19.8415   19.7096   22.7402 H   0  0  0  0  0  0  0  0  0  0  0  0
   21.0985   19.7040   21.4998 H   0  0  0  0  0  0  0  0  0  0  0  0
   19.0741   19.6465   20.7057 C   0  0  0  0  0  0  0  0  0  0  0  0
   18.1011   19.2130   20.9772 H   0  0  0  0  0  0  0  0  0  0  0  0
   19.3566   19.2076   19.7383 H   0  0  0  0  0  0  0  0  0  0  0  0
   18.9293   21.1761   20.5523 C   0  0  0  0  0  0  0  0  0  0  0  0
   18.1780   21.4200   19.7899 H   0  0  0  0  0  0  0  0  0  0  0  0
   19.8790   21.6345   20.2471 H   0  0  0  0  0  0  0  0  0  0  0  0
   18.6137   21.6400   21.4959 H   0  0  0  0  0  0  0  0  0  0  0  0
  1  2  1  0  0  0  0
  1  3  1  0  0  0  0
  1  4  1  0  0  0  0
  1  5  1  0  0  0  0
  5  6  1  0  0  0  0
  5  7  1  0  0  0  0
  5  8  1  0  0  0  0
  8  9  1  0  0  0  0
  8 10  1  0  0  0  0
  8 11  1  0  0  0  0
 11 12  1  0  0  0  0
 11 13  1  0  0  0  0
 11 14  1  0  0  0  0
 14 15  1  0  0  0  0
 14 16  1  0  0  0  0
 14 17  1  0  0  0  0
M  END
> <VConfSearch Rank>
457

> <Conf_Id>
7

> <Delta U+W>
0.000

> <U+W>
-15.865

> <U>
44.664

> <W>
-60.529

> <W(PB)>
-62.309

> <W(SA)>
1.780

> <Valence>
0.872

> <Coulomb>
43.648

> <VdW>
0.144

> <VdW6>
-2.370

> <VdW12>
2.515

> <Bond>
0.080

> <Angle>
0.376

> <Pdih>
0.416

> <Idih>
0.000

> <Tether>
0.000

$$$$
VeraChem MOL file


 17 16  0  0  0  0  0  0  0  0999 V2000     
   21.8453   19.6137   22.9936 N   0  3  0  0  0  0  0  0  0  0  0  0
   22.5540   20.0687   22.4103 H   0  0  0  0  0  0  0  0  0  0  0  0
   22.1626   18.6536   23.1584 H   0  0  0  0  0  0  0  0  0  0  0  0
   21.8583   20.0900   23.9012 H   0  0  0  0  0  0  0  0  0  0  0  0
   20.4715   19.6556   22.3546 C   0  0  0  0  0  0  0  0  0  0  0  0
   20.1855   20.7043   22.2366 H   0  0  0  0  0  0  0  0  0  0  0  0
   19.7662   19.1832   23.0432 H   0  0  0  0  0  0  0  0  0  0  0  0
   20.4165   18.9474   20.9873 C   0  0  0  0  0  0  0  0  0  0  0  0
   21.1564   19.4031   20.3160 H   0  0  0  0  0  0  0  0  0  0  0  0
   20.7053   17.8946   21.1055 H   0  0  0  0  0  0  0  0  0  0  0  0
   19.0199   19.0312   20.3280 C   0  0  0  0  0  0  0  0  0  0  0  0
   19.0702   18.5801   19.3270 H   0  0  0  0  0  0  0  0  0  0  0  0
   18.7436   20.0845   20.1785 H   0  0  0  0  0  0  0  0  0  0  0  0
   17.9208   18.3174   21.1480 C   0  0  0  0  0  0  0  0  0  0  0  0
   18.1758   17.2631   21.3169 H   0  0  0  0  0  0  0  0  0  0  0  0
   16.9616   18.3485   20.6150 H   0  0  0  0  0  0  0  0  0  0  0  0
   17.7719   18.7949   22.1247 H   0  0  0  0  0  0  0  0  0  0  0  0
  1  2  1  0  0  0  0
  1  3  1  0  0  0  0
  1  4  1  0  0  0  0
  1  5  1  0  0  0  0
  5  6  1  0  0  0  0
  5  7  1  0  0  0  0
  5  8  1  0  0  0  0
  8  9  1  0  0  0  0
  8 10  1  0  0  0  0
  8 11  1  0  0  0  0
 11 12  1  0  0  0  0
 11 13  1  0  0  0  0
 11 14  1  0  0  0  0
 14 15  1  0  0  0  0
 14 16  1  0  0  0  0
 14 17  1  0  0  0  0
M  END
> <VConfSearch Rank>
458

> <Conf_Id>
36

> <Delta U+W>
0.275

> <U+W>
-15.590

> <U>
45.174

> <W>
-60.765

> <W(PB)>
-62.518

> <W(SA)>
1.754

> <Valence>
1.161

> <Coulomb>
43.789

> <VdW>
0.224

> <VdW6>
-2.897

> <VdW12>
3.121

> <Bond>
0.100

> <Angle>
0.500

> <Pdih>
0.561

> <Idih>
0.000

> <Tether>
0.000

$$$$
VeraChem MOL file


 17 16  0  0  0  0  0  0  0  0999 V2000     
   20.0984   18.9663   23.4533 N   0  3  0  0  0  0  0  0  0  0  0  0
   19.8082   19.8877   23.1159 H   0  0  0  0  0  0  0  0  0  0  0  0
   21.1020   19.0204   23.6513 H   0  0  0  0  0  0  0  0  0  0  0  0
   19.6265   18.8101   24.3498 H   0  0  0  0  0  0  0  0  0  0  0  0
   19.7799   17.8743   22.4502 C   0  0  0  0  0  0  0  0  0  0  0  0
   18.6947   17.8176   22.3302 H   0  0  0  0  0  0  0  0  0  0  0  0
   20.1214   16.9311   22.8852 H   0  0  0  0  0  0  0  0  0  0  0  0
   20.4485   18.0639   21.0723 C   0  0  0  0  0  0  0  0  0  0  0  0
   21.4958   18.3676   21.2016 H   0  0  0  0  0  0  0  0  0  0  0  0
   20.4781   17.0843   20.5769 H   0  0  0  0  0  0  0  0  0  0  0  0
   19.7128   19.0518   20.1313 C   0  0  0  0  0  0  0  0  0  0  0  0
   18.6850   18.7025   19.9594 H   0  0  0  0  0  0  0  0  0  0  0  0
   20.2090   19.0302   19.1508 H   0  0  0  0  0  0  0  0  0  0  0  0
   19.6828   20.5125   20.6357 C   0  0  0  0  0  0  0  0  0  0  0  0
   19.0223   20.6251   21.5033 H   0  0  0  0  0  0  0  0  0  0  0  0
   19.3002   21.1781   19.8510 H   0  0  0  0  0  0  0  0  0  0  0  0
   20.6877   20.8612   20.9072 H   0  0  0  0  0  0  0  0  0  0  0  0
  1  2  1  0  0  0  0
  1  3  1  0  0  0  0
  1  4  1  0  0  0  0
  1  5  1  0  0  0  0
  5  6  1  0  0  0  0
  5  7  1  0  0  0  0
  5  8  1  0  0  0  0
  8  9  1  0  0  0  0
  8 10  1  0  0  0  0
  8 11  1  0  0  0  0
 11 12  1  0  0  0  0
 11 13  1  0  0  0  0
 11 14  1  0  0  0  0
 14 15  1  0  0  0  0
 14 16  1  0  0  0  0
 14 17  1  0  0  0  0
M  END
> <VConfSearch Rank>
459

> <Conf_Id>
19

> <Delta U+W>
2.662

> <U+W>
-13.203

> <U>
47.423

> <W>
-60.626

> <W(PB)>
-62.328

> <W(SA)>
1.702

> <Valence>
2.414

> <Coulomb>
44.831

> <VdW>
0.178

> <VdW6>
-3.743

> <VdW12>
3.921

> <Bond>
0.138

> <Angle>
0.941

> <Pdih>
1.335

> <Idih>
0.000

> <Tether>
0.000

$$$$
VeraChem MOL file


 17 16  0  0  0  0  0  0  0  0999 V2000     
   21.6820   18.9360   22.0408 N   0  3  0  0  0  0  0  0  0  0  0  0
   22.4251   19.2196   22.6875 H   0  0  0  0  0  0  0  0  0  0  0  0
   22.1398   18.4944   21.2377 H   0  0  0  0  0  0  0  0  0  0  0  0
   21.1334   18.2113   22.5105 H   0  0  0  0  0  0  0  0  0  0  0  0
   20.8197   20.1112   21.6219 C   0  0  0  0  0  0  0  0  0  0  0  0
   21.4785   20.8321   21.1303 H   0  0  0  0  0  0  0  0  0  0  0  0
   20.4137   20.5829   22.5208 H   0  0  0  0  0  0  0  0  0  0  0  0
   19.6700   19.7435   20.6603 C   0  0  0  0  0  0  0  0  0  0  0  0
   19.3670   20.6590   20.1351 H   0  0  0  0  0  0  0  0  0  0  0  0
   20.0344   19.0577   19.8841 H   0  0  0  0  0  0  0  0  0  0  0  0
   18.4152   19.1547   21.3542 C   0  0  0  0  0  0  0  0  0  0  0  0
   17.6281   19.0295   20.5974 H   0  0  0  0  0  0  0  0  0  0  0  0
   18.0230   19.8772   22.0837 H   0  0  0  0  0  0  0  0  0  0  0  0
   18.6490   17.7949   22.0507 C   0  0  0  0  0  0  0  0  0  0  0  0
   19.1292   17.0772   21.3729 H   0  0  0  0  0  0  0  0  0  0  0  0
   17.6923   17.3618   22.3705 H   0  0  0  0  0  0  0  0  0  0  0  0
   19.2688   17.9039   22.9482 H   0  0  0  0  0  0  0  0  0  0  0  0
  1  2  1  0  0  0  0
  1  3  1  0  0  0  0
  1  4  1  0  0  0  0
  1  5  1  0  0  0  0
  5  6  1  0  0  0  0
  5  7  1  0  0  0  0
  5  8  1  0  0  0  0
  8  9  1  0  0  0  0
  8 10  1  0  0  0  0
  8 11  1  0  0  0  0
 11 12  1  0  0  0  0
 11 13  1  0  0  0  0
 11 14  1  0  0  0  0
 14 15  1  0  0  0  0
 14 16  1  0  0  0  0
 14 17  1  0  0  0  0
M  END
> <VConfSearch Rank>
460

> <Conf_Id>
44

> <Delta U+W>
2.712

> <U+W>
-13.153

> <U>
47.423

> <W>
-60.576

> <W(PB)>
-62.262

> <W(SA)>
1.687

> <Valence>
2.414

> <Coulomb>
44.831

> <VdW>
0.178

> <VdW6>
-3.743

> <VdW12>
3.922

> <Bond>
0.138

> <Angle>
0.941

> <Pdih>
1.335

> <Idih>
0.000

> <Tether>
0.000

$$$$
VeraChem MOL file


 17 16  0  0  0  0  0  0  0  0999 V2000     
   18.4221   19.1224   22.9025 N   0  3  0  0  0  0  0  0  0  0  0  0
   19.0270   18.3472   23.1882 H   0  0  0  0  0  0  0  0  0  0  0  0
   17.5655   18.7124   22.5184 H   0  0  0  0  0  0  0  0  0  0  0  0
   18.1553   19.6239   23.7557 H   0  0  0  0  0  0  0  0  0  0  0  0
   19.1101   20.0336   21.9045 C   0  0  0  0  0  0  0  0  0  0  0  0
   19.9948   20.4580   22.3860 H   0  0  0  0  0  0  0  0  0  0  0  0
   18.4244   20.8537   21.6746 H   0  0  0  0  0  0  0  0  0  0  0  0
   19.5188   19.3274   20.5952 C   0  0  0  0  0  0  0  0  0  0  0  0
   18.6193   18.9400   20.0987 H   0  0  0  0  0  0  0  0  0  0  0  0
   19.9473   20.0733   19.9128 H   0  0  0  0  0  0  0  0  0  0  0  0
   20.5343   18.1743   20.7919 C   0  0  0  0  0  0  0  0  0  0  0  0
   20.7532   17.7249   19.8131 H   0  0  0  0  0  0  0  0  0  0  0  0
   20.0860   17.3757   21.3985 H   0  0  0  0  0  0  0  0  0  0  0  0
   21.8594   18.6382   21.4390 C   0  0  0  0  0  0  0  0  0  0  0  0
   22.3280   19.4369   20.8494 H   0  0  0  0  0  0  0  0  0  0  0  0
   22.5712   17.8047   21.4988 H   0  0  0  0  0  0  0  0  0  0  0  0
   21.7018   19.0124   22.4584 H   0  0  0  0  0  0  0  0  0  0  0  0
  1  2  1  0  0  0  0
  1  3  1  0  0  0  0
  1  4  1  0  0  0  0
  1  5  1  0  0  0  0
  5  6  1  0  0  0  0
  5  7  1  0  0  0  0
  5  8  1  0  0  0  0
  8  9  1  0  0  0  0
  8 10  1  0  0  0  0
  8 11  1  0  0  0  0
 11 12  1  0  0  0  0
 11 13  1  0  0  0  0
 11 14  1  0  0  0  0
 14 15  1  0  0  0  0
 14 16  1  0  0  0  0
 14 17  1  0  0  0  0
M  END
> <VConfSearch Rank>
461

> <Conf_Id>
1

> <Delta U+W>
0.685

> <U+W>
-15.179

> <U>
45.697

> <W>
-60.876

> <W(PB)>
-62.586

> <W(SA)>
1.710

> <Valence>
1.263

> <Coulomb>
44.179

> <VdW>
0.255

> <VdW6>
-3.552

> <VdW12>
3.807

> <Bond>
0.125

> <Angle>
0.616

> <Pdih>
0.521

> <Idih>
0.000

> <Tether>
0.000

$$$$
VeraChem MOL file


 17 16  0  0  0  0  0  0  0  0999 V2000     
   18.4118   18.1959   22.5781 N   0  3  0  0  0  0  0  0  0  0  0  0
   18.7251   17.4108   23.1567 H   0  0  0  0  0  0  0  0  0  0  0  0
   18.3666   17.8606   21.6117 H   0  0  0  0  0  0  0  0  0  0  0  0
   17.4518   18.4125   22.8649 H   0  0  0  0  0  0  0  0  0  0  0  0
   19.3258   19.3985   22.7134 C   0  0  0  0  0  0  0  0  0  0  0  0
   19.2961   19.7235   23.7569 H   0  0  0  0  0  0  0  0  0  0  0  0
   18.9196   20.2046   22.0969 H   0  0  0  0  0  0  0  0  0  0  0  0
   20.7874   19.1186   22.3069 C   0  0  0  0  0  0  0  0  0  0  0  0
   21.3839   20.0206   22.4978 H   0  0  0  0  0  0  0  0  0  0  0  0
   21.1992   18.3364   22.9584 H   0  0  0  0  0  0  0  0  0  0  0  0
   20.9600   18.6978   20.8262 C   0  0  0  0  0  0  0  0  0  0  0  0
   20.4437   17.7460   20.6415 H   0  0  0  0  0  0  0  0  0  0  0  0
   22.0253   18.5069   20.6345 H   0  0  0  0  0  0  0  0  0  0  0  0
   20.4543   19.7664   19.8301 C   0  0  0  0  0  0  0  0  0  0  0  0
   20.6556   19.4555   18.7968 H   0  0  0  0  0  0  0  0  0  0  0  0
   20.9573   20.7282   19.9942 H   0  0  0  0  0  0  0  0  0  0  0  0
   19.3726   19.9253   19.9229 H   0  0  0  0  0  0  0  0  0  0  0  0
  1  2  1  0  0  0  0
  1  3  1  0  0  0  0
  1  4  1  0  0  0  0
  1  5  1  0  0  0  0
  5  6  1  0  0  0  0
  5  7  1  0  0  0  0
  5  8  1  0  0  0  0
  8  9  1  0  0  0  0
  8 10  1  0  0  0  0
  8 11  1  0  0  0  0
 11 12  1  0  0  0  0
 11 13  1  0  0  0  0
 11 14  1  0  0  0  0
 14 15  1  0  0  0  0
 14 16  1  0  0  0  0
 14 17  1  0  0  0  0
M  END
> <VConfSearch Rank>
462

> <Conf_Id>
43

> <Delta U+W>
0.642

> <U+W>
-15.222

> <U>
45.697

> <W>
-60.919

> <W(PB)>
-62.631

> <W(SA)>
1.712

> <Valence>
1.262

> <Coulomb>
44.179

> <VdW>
0.255

> <VdW6>
-3.552

> <VdW12>
3.807

> <Bond>
0.125

> <Angle>
0.616

> <Pdih>
0.521

> <Idih>
0.000

> <Tether>
0.000

$$$$
VeraChem MOL file


 17 16  0  0  0  0  0  0  0  0999 V2000     
   21.2686   21.0890   22.4704 N   0  3  0  0  0  0  0  0  0  0  0  0
   21.9860   20.5714   22.9873 H   0  0  0  0  0  0  0  0  0  0  0  0
   20.5778   21.4108   23.1551 H   0  0  0  0  0  0  0  0  0  0  0  0
   21.7227   21.9265   22.0917 H   0  0  0  0  0  0  0  0  0  0  0  0
   20.6372   20.2480   21.3789 C   0  0  0  0  0  0  0  0  0  0  0  0
   21.4227   19.9675   20.6718 H   0  0  0  0  0  0  0  0  0  0  0  0
   19.9085   20.8702   20.8522 H   0  0  0  0  0  0  0  0  0  0  0  0
   19.9454   18.9806   21.9131 C   0  0  0  0  0  0  0  0  0  0  0  0
   20.6767   18.3659   22.4546 H   0  0  0  0  0  0  0  0  0  0  0  0
   19.1677   19.2654   22.6343 H   0  0  0  0  0  0  0  0  0  0  0  0
   19.3164   18.1536   20.7704 C   0  0  0  0  0  0  0  0  0  0  0  0
   20.0938   17.8711   20.0464 H   0  0  0  0  0  0  0  0  0  0  0  0
   18.5865   18.7695   20.2259 H   0  0  0  0  0  0  0  0  0  0  0  0
   18.6205   16.8806   21.2988 C   0  0  0  0  0  0  0  0  0  0  0  0
   18.1806   16.3076   20.4722 H   0  0  0  0  0  0  0  0  0  0  0  0
   17.8141   17.1328   21.9997 H   0  0  0  0  0  0  0  0  0  0  0  0
   19.3333   16.2273   21.8188 H   0  0  0  0  0  0  0  0  0  0  0  0
  1  2  1  0  0  0  0
  1  3  1  0  0  0  0
  1  4  1  0  0  0  0
  1  5  1  0  0  0  0
  5  6  1  0  0  0  0
  5  7  1  0  0  0  0
  5  8  1  0  0  0  0
  8  9  1  0  0  0  0
  8 10  1  0  0  0  0
  8 11  1  0  0  0  0
 11 12  1  0  0  0  0
 11 13  1  0  0  0  0
 11 14  1  0  0  0  0
 14 15  1  0  0  0  0
 14 16  1  0  0  0  0
 14 17  1  0  0  0  0
M  END
> <VConfSearch Rank>
463

> <Conf_Id>
7

> <Delta U+W>
0.000

> <U+W>
-15.865

> <U>
44.664

> <W>
-60.529

> <W(PB)>
-62.309

> <W(SA)>
1.780

> <Valence>
0.872

> <Coulomb>
43.648

> <VdW>
0.144

> <VdW6>
-2.370

> <VdW12>
2.515

> <Bond>
0.080

> <Angle>
0.376

> <Pdih>
0.416

> <Idih>
0.000

> <Tether>
0.000

$$$$
VeraChem MOL file


 17 16  0  0  0  0  0  0  0  0999 V2000     
   18.2035   20.6326   22.3210 N   0  3  0  0  0  0  0  0  0  0  0  0
   17.4843   20.6733   21.5926 H   0  0  0  0  0  0  0  0  0  0  0  0
   18.7498   21.4967   22.2529 H   0  0  0  0  0  0  0  0  0  0  0  0
   17.7149   20.6611   23.2217 H   0  0  0  0  0  0  0  0  0  0  0  0
   19.0743   19.3989   22.1909 C   0  0  0  0  0  0  0  0  0  0  0  0
   18.4338   18.5199   22.3029 H   0  0  0  0  0  0  0  0  0  0  0  0
   19.7930   19.4067   23.0145 H   0  0  0  0  0  0  0  0  0  0  0  0
   19.8244   19.3246   20.8471 C   0  0  0  0  0  0  0  0  0  0  0  0
   19.0960   19.3578   20.0261 H   0  0  0  0  0  0  0  0  0  0  0  0
   20.4664   20.2083   20.7339 H   0  0  0  0  0  0  0  0  0  0  0  0
   20.6784   18.0424   20.7108 C   0  0  0  0  0  0  0  0  0  0  0  0
   21.1197   18.0128   19.7046 H   0  0  0  0  0  0  0  0  0  0  0  0
   20.0321   17.1568   20.7906 H   0  0  0  0  0  0  0  0  0  0  0  0
   21.8100   17.9556   21.7604 C   0  0  0  0  0  0  0  0  0  0  0  0
   22.4677   18.8328   21.7058 H   0  0  0  0  0  0  0  0  0  0  0  0
   22.4267   17.0638   21.5887 H   0  0  0  0  0  0  0  0  0  0  0  0
   21.4103   17.8898   22.7802 H   0  0  0  0  0  0  0  0  0  0  0  0
  1  2  1  0  0  0  0
  1  3  1  0  0  0  0
  1  4  1  0  0  0  0
  1  5  1  0  0  0  0
  5  6  1  0  0  0  0
  5  7  1  0  0  0  0
  5  8  1  0  0  0  0
  8  9  1  0  0  0  0
  8 10  1  0  0  0  0
  8 11  1  0  0  0  0
 11 12  1  0  0  0  0
 11 13  1  0  0  0  0
 11 14  1  0  0  0  0
 14 15  1  0  0  0  0
 14 16  1  0  0  0  0
 14 17  1  0  0  0  0
M  END
> <VConfSearch Rank>
464

> <Conf_Id>
36

> <Delta U+W>
0.275

> <U+W>
-15.590

> <U>
45.174

> <W>
-60.765

> <W(PB)>
-62.518

> <W(SA)>
1.754

> <Valence>
1.161

> <Coulomb>
43.789

> <VdW>
0.224

> <VdW6>
-2.897

> <VdW12>
3.121

> <Bond>
0.100

> <Angle>
0.500

> <Pdih>
0.561

> <Idih>
0.000

> <Tether>
0.000

$$$$
VeraChem MOL file


 17 16  0  0  0  0  0  0  0  0999 V2000     
   20.2143   20.7522   21.0874 N   0  3  0  0  0  0  0  0  0  0  0  0
   20.8123   20.4976   21.8776 H   0  0  0  0  0  0  0  0  0  0  0  0
   19.4248   21.2840   21.4661 H   0  0  0  0  0  0  0  0  0  0  0  0
   20.7507   21.3962   20.4972 H   0  0  0  0  0  0  0  0  0  0  0  0
   19.7528   19.5311   20.3154 C   0  0  0  0  0  0  0  0  0  0  0  0
   20.6287   19.0436   19.8791 H   0  0  0  0  0  0  0  0  0  0  0  0
   19.1229   19.8897   19.4967 H   0  0  0  0  0  0  0  0  0  0  0  0
   18.9533   18.5136   21.1563 C   0  0  0  0  0  0  0  0  0  0  0  0
   18.2264   19.0388   21.7900 H   0  0  0  0  0  0  0  0  0  0  0  0
   18.3615   17.8992   20.4649 H   0  0  0  0  0  0  0  0  0  0  0  0
   19.8260   17.5609   22.0127 C   0  0  0  0  0  0  0  0  0  0  0  0
   20.5055   16.9951   21.3599 H   0  0  0  0  0  0  0  0  0  0  0  0
   19.1673   16.8173   22.4830 H   0  0  0  0  0  0  0  0  0  0  0  0
   20.6429   18.2648   23.1200 C   0  0  0  0  0  0  0  0  0  0  0  0
   21.4587   18.8638   22.6990 H   0  0  0  0  0  0  0  0  0  0  0  0
   21.0996   17.5217   23.7866 H   0  0  0  0  0  0  0  0  0  0  0  0
   20.0055   18.9150   23.7334 H   0  0  0  0  0  0  0  0  0  0  0  0
  1  2  1  0  0  0  0
  1  3  1  0  0  0  0
  1  4  1  0  0  0  0
  1  5  1  0  0  0  0
  5  6  1  0  0  0  0
  5  7  1  0  0  0  0
  5  8  1  0  0  0  0
  8  9  1  0  0  0  0
  8 10  1  0  0  0  0
  8 11  1  0  0  0  0
 11 12  1  0  0  0  0
 11 13  1  0  0  0  0
 11 14  1  0  0  0  0
 14 15  1  0  0  0  0
 14 16  1  0  0  0  0
 14 17  1  0  0  0  0
M  END
> <VConfSearch Rank>
465

> <Conf_Id>
19

> <Delta U+W>
2.662

> <U+W>
-13.203

> <U>
47.423

> <W>
-60.626

> <W(PB)>
-62.328

> <W(SA)>
1.702

> <Valence>
2.414

> <Coulomb>
44.831

> <VdW>
0.178

> <VdW6>
-3.743

> <VdW12>
3.921

> <Bond>
0.138

> <Angle>
0.941

> <Pdih>
1.335

> <Idih>
0.000

> <Tether>
0.000

$$$$
VeraChem MOL file


 17 16  0  0  0  0  0  0  0  0999 V2000     
   18.8395   17.6601   22.2386 N   0  3  0  0  0  0  0  0  0  0  0  0
   18.7857   16.8551   22.8710 H   0  0  0  0  0  0  0  0  0  0  0  0
   18.0289   17.6026   21.6149 H   0  0  0  0  0  0  0  0  0  0  0  0
   18.7209   18.5010   22.8095 H   0  0  0  0  0  0  0  0  0  0  0  0
   20.1444   17.6845   21.4661 C   0  0  0  0  0  0  0  0  0  0  0  0
   20.1900   16.7587   20.8862 H   0  0  0  0  0  0  0  0  0  0  0  0
   20.9720   17.6767   22.1804 H   0  0  0  0  0  0  0  0  0  0  0  0
   20.2924   18.8855   20.5084 C   0  0  0  0  0  0  0  0  0  0  0  0
   21.0428   18.6201   19.7519 H   0  0  0  0  0  0  0  0  0  0  0  0
   19.3550   19.0458   19.9594 H   0  0  0  0  0  0  0  0  0  0  0  0
   20.7486   20.2000   21.1916 C   0  0  0  0  0  0  0  0  0  0  0  0
   20.9226   20.9535   20.4106 H   0  0  0  0  0  0  0  0  0  0  0  0
   21.7187   20.0432   21.6839 H   0  0  0  0  0  0  0  0  0  0  0  0
   19.7396   20.7732   22.2125 C   0  0  0  0  0  0  0  0  0  0  0  0
   18.7346   20.8531   21.7779 H   0  0  0  0  0  0  0  0  0  0  0  0
   20.0469   21.7789   22.5276 H   0  0  0  0  0  0  0  0  0  0  0  0
   19.6866   20.1550   23.1162 H   0  0  0  0  0  0  0  0  0  0  0  0
  1  2  1  0  0  0  0
  1  3  1  0  0  0  0
  1  4  1  0  0  0  0
  1  5  1  0  0  0  0
  5  6  1  0  0  0  0
  5  7  1  0  0  0  0
  5  8  1  0  0  0  0
  8  9  1  0  0  0  0
  8 10  1  0  0  0  0
  8 11  1  0  0  0  0
 11 12  1  0  0  0  0
 11 13  1  0  0  0  0
 11 14  1  0  0  0  0
 14 15  1  0  0  0  0
 14 16  1  0  0  0  0
 14 17  1  0  0  0  0
M  END
> <VConfSearch Rank>
466

> <Conf_Id>
44

> <Delta U+W>
2.712

> <U+W>
-13.153

> <U>
47.423

> <W>
-60.576

> <W(PB)>
-62.262

> <W(SA)>
1.687

> <Valence>
2.414

> <Coulomb>
44.831

> <VdW>
0.178

> <VdW6>
-3.743

> <VdW12>
3.922

> <Bond>
0.138

> <Angle>
0.941

> <Pdih>
1.335

> <Idih>
0.000

> <Tether>
0.000

$$$$
VeraChem MOL file


 17 16  0  0  0  0  0  0  0  0999 V2000     
   18.7873   20.3453   20.6201 N   0  3  0  0  0  0  0  0  0  0  0  0
   19.2414   20.8536   21.3842 H   0  0  0  0  0  0  0  0  0  0  0  0
   17.7983   20.2463   20.8679 H   0  0  0  0  0  0  0  0  0  0  0  0
   18.8278   20.9495   19.7931 H   0  0  0  0  0  0  0  0  0  0  0  0
   19.4450   19.0019   20.3699 C   0  0  0  0  0  0  0  0  0  0  0  0
   20.4844   19.1810   20.0829 H   0  0  0  0  0  0  0  0  0  0  0  0
   18.9362   18.5347   19.5223 H   0  0  0  0  0  0  0  0  0  0  0  0
   19.3969   18.0495   21.5826 C   0  0  0  0  0  0  0  0  0  0  0  0
   18.3490   17.8435   21.8377 H   0  0  0  0  0  0  0  0  0  0  0  0
   19.8354   17.0861   21.2902 H   0  0  0  0  0  0  0  0  0  0  0  0
   20.1349   18.5858   22.8345 C   0  0  0  0  0  0  0  0  0  0  0  0
   20.0348   17.8513   23.6459 H   0  0  0  0  0  0  0  0  0  0  0  0
   19.6497   19.5031   23.1948 H   0  0  0  0  0  0  0  0  0  0  0  0
   21.6363   18.8552   22.5833 C   0  0  0  0  0  0  0  0  0  0  0  0
   22.1444   17.9513   22.2229 H   0  0  0  0  0  0  0  0  0  0  0  0
   22.1314   19.1700   23.5110 H   0  0  0  0  0  0  0  0  0  0  0  0
   21.7855   19.6505   21.8423 H   0  0  0  0  0  0  0  0  0  0  0  0
  1  2  1  0  0  0  0
  1  3  1  0  0  0  0
  1  4  1  0  0  0  0
  1  5  1  0  0  0  0
  5  6  1  0  0  0  0
  5  7  1  0  0  0  0
  5  8  1  0  0  0  0
  8  9  1  0  0  0  0
  8 10  1  0  0  0  0
  8 11  1  0  0  0  0
 11 12  1  0  0  0  0
 11 13  1  0  0  0  0
 11 14  1  0  0  0  0
 14 15  1  0  0  0  0
 14 16  1  0  0  0  0
 14 17  1  0  0  0  0
M  END
> <VConfSearch Rank>
467

> <Conf_Id>
1

> <Delta U+W>
0.685

> <U+W>
-15.179

> <U>
45.697

> <W>
-60.876

> <W(PB)>
-62.586

> <W(SA)>
1.710

> <Valence>
1.263

> <Coulomb>
44.179

> <VdW>
0.255

> <VdW6>
-3.552

> <VdW12>
3.807

> <Bond>
0.125

> <Angle>
0.616

> <Pdih>
0.521

> <Idih>
0.000

> <Tether>
0.000

$$$$
VeraChem MOL file


 17 16  0  0  0  0  0  0  0  0999 V2000     
   20.3878   19.7494   23.3921 N   0  3  0  0  0  0  0  0  0  0  0  0
   20.8313   20.6703   23.3248 H   0  0  0  0  0  0  0  0  0  0  0  0
   21.0996   19.0526   23.1547 H   0  0  0  0  0  0  0  0  0  0  0  0
   20.1464   19.6066   24.3780 H   0  0  0  0  0  0  0  0  0  0  0  0
   19.1721   19.6397   22.4922 C   0  0  0  0  0  0  0  0  0  0  0  0
   18.4431   20.3835   22.8251 H   0  0  0  0  0  0  0  0  0  0  0  0
   18.7327   18.6490   22.6344 H   0  0  0  0  0  0  0  0  0  0  0  0
   19.4818   19.8617   20.9973 C   0  0  0  0  0  0  0  0  0  0  0  0
   18.5395   19.8282   20.4346 H   0  0  0  0  0  0  0  0  0  0  0  0
   19.8844   20.8739   20.8591 H   0  0  0  0  0  0  0  0  0  0  0  0
   20.4695   18.8295   20.3984 C   0  0  0  0  0  0  0  0  0  0  0  0
   21.4481   18.9139   20.8902 H   0  0  0  0  0  0  0  0  0  0  0  0
   20.6396   19.0750   19.3408 H   0  0  0  0  0  0  0  0  0  0  0  0
   19.9595   17.3737   20.5003 C   0  0  0  0  0  0  0  0  0  0  0  0
   20.6580   16.6856   20.0068 H   0  0  0  0  0  0  0  0  0  0  0  0
   18.9815   17.2633   20.0141 H   0  0  0  0  0  0  0  0  0  0  0  0
   19.8610   17.0523   21.5448 H   0  0  0  0  0  0  0  0  0  0  0  0
  1  2  1  0  0  0  0
  1  3  1  0  0  0  0
  1  4  1  0  0  0  0
  1  5  1  0  0  0  0
  5  6  1  0  0  0  0
  5  7  1  0  0  0  0
  5  8  1  0  0  0  0
  8  9  1  0  0  0  0
  8 10  1  0  0  0  0
  8 11  1  0  0  0  0
 11 12  1  0  0  0  0
 11 13  1  0  0  0  0
 11 14  1  0  0  0  0
 14 15  1  0  0  0  0
 14 16  1  0  0  0  0
 14 17  1  0  0  0  0
M  END
> <VConfSearch Rank>
468

> <Conf_Id>
43

> <Delta U+W>
0.642

> <U+W>
-15.222

> <U>
45.697

> <W>
-60.919

> <W(PB)>
-62.631

> <W(SA)>
1.712

> <Valence>
1.262

> <Coulomb>
44.179

> <VdW>
0.255

> <VdW6>
-3.552

> <VdW12>
3.807

> <Bond>
0.125

> <Angle>
0.616

> <Pdih>
0.521

> <Idih>
0.000

> <Tether>
0.000

$$$$
VeraChem MOL file


 17 16  0  0  0  0  0  0  0  0999 V2000     
   20.0214   17.4022   19.6449 N   0  3  0  0  0  0  0  0  0  0  0  0
   19.0119   17.3572   19.4756 H   0  0  0  0  0  0  0  0  0  0  0  0
   20.2730   16.5690   20.1855 H   0  0  0  0  0  0  0  0  0  0  0  0
   20.4791   17.3125   18.7321 H   0  0  0  0  0  0  0  0  0  0  0  0
   20.4221   18.6810   20.3531 C   0  0  0  0  0  0  0  0  0  0  0  0
   20.1529   19.5223   19.7087 H   0  0  0  0  0  0  0  0  0  0  0  0
   21.5090   18.6747   20.4719 H   0  0  0  0  0  0  0  0  0  0  0  0
   19.7521   18.8481   21.7291 C   0  0  0  0  0  0  0  0  0  0  0  0
   18.6607   18.8384   21.6076 H   0  0  0  0  0  0  0  0  0  0  0  0
   20.0123   17.9938   22.3682 H   0  0  0  0  0  0  0  0  0  0  0  0
   20.1867   20.1617   22.4154 C   0  0  0  0  0  0  0  0  0  0  0  0
   19.9295   21.0170   21.7746 H   0  0  0  0  0  0  0  0  0  0  0  0
   21.2794   20.1734   22.5344 H   0  0  0  0  0  0  0  0  0  0  0  0
   19.5185   20.3362   23.7964 C   0  0  0  0  0  0  0  0  0  0  0  0
   19.8399   21.2745   24.2670 H   0  0  0  0  0  0  0  0  0  0  0  0
   19.7853   19.5128   24.4716 H   0  0  0  0  0  0  0  0  0  0  0  0
   18.4247   20.3630   23.7058 H   0  0  0  0  0  0  0  0  0  0  0  0
  1  2  1  0  0  0  0
  1  3  1  0  0  0  0
  1  4  1  0  0  0  0
  1  5  1  0  0  0  0
  5  6  1  0  0  0  0
  5  7  1  0  0  0  0
  5  8  1  0  0  0  0
  8  9  1  0  0  0  0
  8 10  1  0  0  0  0
  8 11  1  0  0  0  0
 11 12  1  0  0  0  0
 11 13  1  0  0  0  0
 11 14  1  0  0  0  0
 14 15  1  0  0  0  0
 14 16  1  0  0  0  0
 14 17  1  0  0  0  0
M  END
> <VConfSearch Rank>
469

> <Conf_Id>
7

> <Delta U+W>
0.000

> <U+W>
-15.865

> <U>
44.664

> <W>
-60.529

> <W(PB)>
-62.309

> <W(SA)>
1.780

> <Valence>
0.872

> <Coulomb>
43.648

> <VdW>
0.144

> <VdW6>
-2.370

> <VdW12>
2.515

> <Bond>
0.080

> <Angle>
0.376

> <Pdih>
0.416

> <Idih>
0.000

> <Tether>
0.000

$$$$
VeraChem MOL file


 17 16  0  0  0  0  0  0  0  0999 V2000     
   17.5930   19.3813   21.0802 N   0  3  0  0  0  0  0  0  0  0  0  0
   17.0789   18.5545   21.3992 H   0  0  0  0  0  0  0  0  0  0  0  0
   17.6753   19.3097   20.0615 H   0  0  0  0  0  0  0  0  0  0  0  0
   16.9976   20.1931   21.2732 H   0  0  0  0  0  0  0  0  0  0  0  0
   18.9464   19.5024   21.7519 C   0  0  0  0  0  0  0  0  0  0  0  0
   18.7817   19.6047   22.8279 H   0  0  0  0  0  0  0  0  0  0  0  0
   19.4207   20.4179   21.3889 H   0  0  0  0  0  0  0  0  0  0  0  0
   19.8678   18.2974   21.4817 C   0  0  0  0  0  0  0  0  0  0  0  0
   19.3655   17.3789   21.8132 H   0  0  0  0  0  0  0  0  0  0  0  0
   20.0318   18.1936   20.4009 H   0  0  0  0  0  0  0  0  0  0  0  0
   21.2303   18.4146   22.2041 C   0  0  0  0  0  0  0  0  0  0  0  0
   21.8038   17.4922   22.0364 H   0  0  0  0  0  0  0  0  0  0  0  0
   21.0693   18.4851   23.2892 H   0  0  0  0  0  0  0  0  0  0  0  0
   22.0669   19.6227   21.7239 C   0  0  0  0  0  0  0  0  0  0  0  0
   22.2372   19.5796   20.6403 H   0  0  0  0  0  0  0  0  0  0  0  0
   23.0477   19.6320   22.2167 H   0  0  0  0  0  0  0  0  0  0  0  0
   21.5715   20.5741   21.9555 H   0  0  0  0  0  0  0  0  0  0  0  0
  1  2  1  0  0  0  0
  1  3  1  0  0  0  0
  1  4  1  0  0  0  0
  1  5  1  0  0  0  0
  5  6  1  0  0  0  0
  5  7  1  0  0  0  0
  5  8  1  0  0  0  0
  8  9  1  0  0  0  0
  8 10  1  0  0  0  0
  8 11  1  0  0  0  0
 11 12  1  0  0  0  0
 11 13  1  0  0  0  0
 11 14  1  0  0  0  0
 14 15  1  0  0  0  0
 14 16  1  0  0  0  0
 14 17  1  0  0  0  0
M  END
> <VConfSearch Rank>
470

> <Conf_Id>
36

> <Delta U+W>
0.275

> <U+W>
-15.590

> <U>
45.174

> <W>
-60.765

> <W(PB)>
-62.518

> <W(SA)>
1.754

> <Valence>
1.161

> <Coulomb>
43.789

> <VdW>
0.224

> <VdW6>
-2.897

> <VdW12>
3.121

> <Bond>
0.100

> <Angle>
0.500

> <Pdih>
0.561

> <Idih>
0.000

> <Tether>
0.000

$$$$
VeraChem MOL file


 17 16  0  0  0  0  0  0  0  0999 V2000     
   19.0524   17.8499   20.4283 N   0  3  0  0  0  0  0  0  0  0  0  0
   19.9042   17.4166   20.7936 H   0  0  0  0  0  0  0  0  0  0  0  0
   19.2679   18.1909   19.4866 H   0  0  0  0  0  0  0  0  0  0  0  0
   18.3557   17.1055   20.3227 H   0  0  0  0  0  0  0  0  0  0  0  0
   18.5562   18.9631   21.3309 C   0  0  0  0  0  0  0  0  0  0  0  0
   18.2784   18.5310   22.2959 H   0  0  0  0  0  0  0  0  0  0  0  0
   17.6520   19.3696   20.8698 H   0  0  0  0  0  0  0  0  0  0  0  0
   19.5700   20.1071   21.5433 C   0  0  0  0  0  0  0  0  0  0  0  0
   20.0378   20.3767   20.5872 H   0  0  0  0  0  0  0  0  0  0  0  0
   19.0102   20.9951   21.8656 H   0  0  0  0  0  0  0  0  0  0  0  0
   20.6551   19.8144   22.6108 C   0  0  0  0  0  0  0  0  0  0  0  0
   20.1757   19.6081   23.5781 H   0  0  0  0  0  0  0  0  0  0  0  0
   21.2523   20.7256   22.7560 H   0  0  0  0  0  0  0  0  0  0  0  0
   21.6091   18.6529   22.2506 C   0  0  0  0  0  0  0  0  0  0  0  0
   21.0989   17.6838   22.2980 H   0  0  0  0  0  0  0  0  0  0  0  0
   22.4445   18.6123   22.9616 H   0  0  0  0  0  0  0  0  0  0  0  0
   22.0328   18.7820   21.2462 H   0  0  0  0  0  0  0  0  0  0  0  0
  1  2  1  0  0  0  0
  1  3  1  0  0  0  0
  1  4  1  0  0  0  0
  1  5  1  0  0  0  0
  5  6  1  0  0  0  0
  5  7  1  0  0  0  0
  5  8  1  0  0  0  0
  8  9  1  0  0  0  0
  8 10  1  0  0  0  0
  8 11  1  0  0  0  0
 11 12  1  0  0  0  0
 11 13  1  0  0  0  0
 11 14  1  0  0  0  0
 14 15  1  0  0  0  0
 14 16  1  0  0  0  0
 14 17  1  0  0  0  0
M  END
> <VConfSearch Rank>
471

> <Conf_Id>
19

> <Delta U+W>
2.662

> <U+W>
-13.203

> <U>
47.423

> <W>
-60.626

> <W(PB)>
-62.328

> <W(SA)>
1.702

> <Valence>
2.414

> <Coulomb>
44.831

> <VdW>
0.178

> <VdW6>
-3.743

> <VdW12>
3.921

> <Bond>
0.138

> <Angle>
0.941

> <Pdih>
1.335

> <Idih>
0.000

> <Tether>
0.000

$$$$
VeraChem MOL file


 17 16  0  0  0  0  0  0  0  0999 V2000     
   21.5989   19.2373   20.9137 N   0  3  0  0  0  0  0  0  0  0  0  0
   22.4647   19.7861   20.9084 H   0  0  0  0  0  0  0  0  0  0  0  0
   21.6601   18.5784   20.1317 H   0  0  0  0  0  0  0  0  0  0  0  0
   21.5975   18.6838   21.7742 H   0  0  0  0  0  0  0  0  0  0  0  0
   20.3703   20.1207   20.8114 C   0  0  0  0  0  0  0  0  0  0  0  0
   20.4499   20.6714   19.8702 H   0  0  0  0  0  0  0  0  0  0  0  0
   20.3935   20.8453   21.6298 H   0  0  0  0  0  0  0  0  0  0  0  0
   19.0325   19.3517   20.8325 C   0  0  0  0  0  0  0  0  0  0  0  0
   18.2674   19.9984   20.3827 H   0  0  0  0  0  0  0  0  0  0  0  0
   19.0975   18.4671   20.1852 H   0  0  0  0  0  0  0  0  0  0  0  0
   18.5445   18.9495   22.2477 C   0  0  0  0  0  0  0  0  0  0  0  0
   17.5429   18.5066   22.1554 H   0  0  0  0  0  0  0  0  0  0  0  0
   18.4227   19.8498   22.8663 H   0  0  0  0  0  0  0  0  0  0  0  0
   19.4623   17.9431   22.9781 C   0  0  0  0  0  0  0  0  0  0  0  0
   19.6813   17.0722   22.3465 H   0  0  0  0  0  0  0  0  0  0  0  0
   18.9754   17.5777   23.8917 H   0  0  0  0  0  0  0  0  0  0  0  0
   20.4079   18.4075   23.2812 H   0  0  0  0  0  0  0  0  0  0  0  0
  1  2  1  0  0  0  0
  1  3  1  0  0  0  0
  1  4  1  0  0  0  0
  1  5  1  0  0  0  0
  5  6  1  0  0  0  0
  5  7  1  0  0  0  0
  5  8  1  0  0  0  0
  8  9  1  0  0  0  0
  8 10  1  0  0  0  0
  8 11  1  0  0  0  0
 11 12  1  0  0  0  0
 11 13  1  0  0  0  0
 11 14  1  0  0  0  0
 14 15  1  0  0  0  0
 14 16  1  0  0  0  0
 14 17  1  0  0  0  0
M  END
> <VConfSearch Rank>
472

> <Conf_Id>
44

> <Delta U+W>
2.712

> <U+W>
-13.153

> <U>
47.423

> <W>
-60.576

> <W(PB)>
-62.262

> <W(SA)>
1.687

> <Valence>
2.414

> <Coulomb>
44.831

> <VdW>
0.178

> <VdW6>
-3.743

> <VdW12>
3.922

> <Bond>
0.138

> <Angle>
0.941

> <Pdih>
1.335

> <Idih>
0.000

> <Tether>
0.000

$$$$
VeraChem MOL file


 17 16  0  0  0  0  0  0  0  0999 V2000     
   19.2388   17.5023   22.6588 N   0  3  0  0  0  0  0  0  0  0  0  0
   19.7826   18.0906   23.2965 H   0  0  0  0  0  0  0  0  0  0  0  0
   19.7874   16.6545   22.4867 H   0  0  0  0  0  0  0  0  0  0  0  0
   18.3952   17.2134   23.1644 H   0  0  0  0  0  0  0  0  0  0  0  0
   18.9032   18.2302   21.3714 C   0  0  0  0  0  0  0  0  0  0  0  0
   18.2956   19.1032   21.6235 H   0  0  0  0  0  0  0  0  0  0  0  0
   18.2939   17.5600   20.7590 H   0  0  0  0  0  0  0  0  0  0  0  0
   20.1418   18.6736   20.5657 C   0  0  0  0  0  0  0  0  0  0  0  0
   20.7240   17.7867   20.2825 H   0  0  0  0  0  0  0  0  0  0  0  0
   19.8044   19.1306   19.6259 H   0  0  0  0  0  0  0  0  0  0  0  0
   21.0581   19.6714   21.3170 C   0  0  0  0  0  0  0  0  0  0  0  0
   21.9154   19.9170   20.6747 H   0  0  0  0  0  0  0  0  0  0  0  0
   21.4779   19.1966   22.2142 H   0  0  0  0  0  0  0  0  0  0  0  0
   20.3344   20.9796   21.7104 C   0  0  0  0  0  0  0  0  0  0  0  0
   19.9063   21.4743   20.8288 H   0  0  0  0  0  0  0  0  0  0  0  0
   21.0358   21.6813   22.1802 H   0  0  0  0  0  0  0  0  0  0  0  0
   19.5238   20.7933   22.4260 H   0  0  0  0  0  0  0  0  0  0  0  0
  1  2  1  0  0  0  0
  1  3  1  0  0  0  0
  1  4  1  0  0  0  0
  1  5  1  0  0  0  0
  5  6  1  0  0  0  0
  5  7  1  0  0  0  0
  5  8  1  0  0  0  0
  8  9  1  0  0  0  0
  8 10  1  0  0  0  0
  8 11  1  0  0  0  0
 11 12  1  0  0  0  0
 11 13  1  0  0  0  0
 11 14  1  0  0  0  0
 14 15  1  0  0  0  0
 14 16  1  0  0  0  0
 14 17  1  0  0  0  0
M  END
> <VConfSearch Rank>
473

> <Conf_Id>
1

> <Delta U+W>
0.685

> <U+W>
-15.179

> <U>
45.697

> <W>
-60.876

> <W(PB)>
-62.586

> <W(SA)>
1.710

> <Valence>
1.263

> <Coulomb>
44.179

> <VdW>
0.255

> <VdW6>
-3.552

> <VdW12>
3.807

> <Bond>
0.125

> <Angle>
0.616

> <Pdih>
0.521

> <Idih>
0.000

> <Tether>
0.000

$$$$
VeraChem MOL file


 17 16  0  0  0  0  0  0  0  0999 V2000     
   20.4309   18.3988   23.4136 N   0  3  0  0  0  0  0  0  0  0  0  0
   20.4080   19.1616   24.0970 H   0  0  0  0  0  0  0  0  0  0  0  0
   21.2976   18.4987   22.8775 H   0  0  0  0  0  0  0  0  0  0  0  0
   20.5068   17.5254   23.9448 H   0  0  0  0  0  0  0  0  0  0  0  0
   19.2098   18.4078   22.5144 C   0  0  0  0  0  0  0  0  0  0  0  0
   18.3299   18.2599   23.1464 H   0  0  0  0  0  0  0  0  0  0  0  0
   19.2835   17.5560   21.8334 H   0  0  0  0  0  0  0  0  0  0  0  0
   19.0432   19.7095   21.7033 C   0  0  0  0  0  0  0  0  0  0  0  0
   18.1054   19.6516   21.1351 H   0  0  0  0  0  0  0  0  0  0  0  0
   18.9292   20.5537   22.3962 H   0  0  0  0  0  0  0  0  0  0  0  0
   20.2122   19.9985   20.7289 C   0  0  0  0  0  0  0  0  0  0  0  0
   21.1436   20.1505   21.2910 H   0  0  0  0  0  0  0  0  0  0  0  0
   20.0136   20.9465   20.2095 H   0  0  0  0  0  0  0  0  0  0  0  0
   20.4144   18.8830   19.6780 C   0  0  0  0  0  0  0  0  0  0  0  0
   21.2071   19.1593   18.9708 H   0  0  0  0  0  0  0  0  0  0  0  0
   19.4959   18.7129   19.1013 H   0  0  0  0  0  0  0  0  0  0  0  0
   20.7051   17.9344   20.1466 H   0  0  0  0  0  0  0  0  0  0  0  0
  1  2  1  0  0  0  0
  1  3  1  0  0  0  0
  1  4  1  0  0  0  0
  1  5  1  0  0  0  0
  5  6  1  0  0  0  0
  5  7  1  0  0  0  0
  5  8  1  0  0  0  0
  8  9  1  0  0  0  0
  8 10  1  0  0  0  0
  8 11  1  0  0  0  0
 11 12  1  0  0  0  0
 11 13  1  0  0  0  0
 11 14  1  0  0  0  0
 14 15  1  0  0  0  0
 14 16  1  0  0  0  0
 14 17  1  0  0  0  0
M  END
> <VConfSearch Rank>
474

> <Conf_Id>
43

> <Delta U+W>
0.642

> <U+W>
-15.222

> <U>
45.697

> <W>
-60.919

> <W(PB)>
-62.631

> <W(SA)>
1.712

> <Valence>
1.262

> <Coulomb>
44.179

> <VdW>
0.255

> <VdW6>
-3.552

> <VdW12>
3.807

> <Bond>
0.125

> <Angle>
0.616

> <Pdih>
0.521

> <Idih>
0.000

> <Tether>
0.000

$$$$
VeraChem MOL file


 17 16  0  0  0  0  0  0  0  0999 V2000     
   18.0794   17.3127   21.6924 N   0  3  0  0  0  0  0  0  0  0  0  0
   18.6754   16.4803   21.7327 H   0  0  0  0  0  0  0  0  0  0  0  0
   17.7621   17.4087   20.7229 H   0  0  0  0  0  0  0  0  0  0  0  0
   17.2484   17.1096   22.2573 H   0  0  0  0  0  0  0  0  0  0  0  0
   18.8023   18.5528   22.1789 C   0  0  0  0  0  0  0  0  0  0  0  0
   19.0829   18.3921   23.2234 H   0  0  0  0  0  0  0  0  0  0  0  0
   18.1008   19.3905   22.1377 H   0  0  0  0  0  0  0  0  0  0  0  0
   20.0570   18.8875   21.3517 C   0  0  0  0  0  0  0  0  0  0  0  0
   20.7523   18.0380   21.3828 H   0  0  0  0  0  0  0  0  0  0  0  0
   19.7736   19.0331   20.3008 H   0  0  0  0  0  0  0  0  0  0  0  0
   20.7626   20.1558   21.8800 C   0  0  0  0  0  0  0  0  0  0  0  0
   21.0436   20.0118   22.9329 H   0  0  0  0  0  0  0  0  0  0  0  0
   20.0661   21.0057   21.8522 H   0  0  0  0  0  0  0  0  0  0  0  0
   22.0222   20.4976   21.0551 C   0  0  0  0  0  0  0  0  0  0  0  0
   22.5085   21.4008   21.4460 H   0  0  0  0  0  0  0  0  0  0  0  0
   21.7680   20.6812   20.0030 H   0  0  0  0  0  0  0  0  0  0  0  0
   22.7532   19.6794   21.0922 H   0  0  0  0  0  0  0  0  0  0  0  0
  1  2  1  0  0  0  0
  1  3  1  0  0  0  0
  1  4  1  0  0  0  0
  1  5  1  0  0  0  0
  5  6  1  0  0  0  0
  5  7  1  0  0  0  0
  5  8  1  0  0  0  0
  8  9  1  0  0  0  0
  8 10  1  0  0  0  0
  8 11  1  0  0  0  0
 11 12  1  0  0  0  0
 11 13  1  0  0  0  0
 11 14  1  0  0  0  0
 14 15  1  0  0  0  0
 14 16  1  0  0  0  0
 14 17  1  0  0  0  0
M  END
> <VConfSearch Rank>
475

> <Conf_Id>
7

> <Delta U+W>
0.000

> <U+W>
-15.865

> <U>
44.664

> <W>
-60.529

> <W(PB)>
-62.309

> <W(SA)>
1.780

> <Valence>
0.872

> <Coulomb>
43.648

> <VdW>
0.144

> <VdW6>
-2.370

> <VdW12>
2.515

> <Bond>
0.080

> <Angle>
0.376

> <Pdih>
0.416

> <Idih>
0.000

> <Tether>
0.000

$$$$
VeraChem MOL file


 17 16  0  0  0  0  0  0  0  0999 V2000     
   18.2324   19.6670   20.0001 N   0  3  0  0  0  0  0  0  0  0  0  0
   17.4216   19.0577   20.1449 H   0  0  0  0  0  0  0  0  0  0  0  0
   18.7179   19.3278   19.1640 H   0  0  0  0  0  0  0  0  0  0  0  0
   17.8670   20.5976   19.7737 H   0  0  0  0  0  0  0  0  0  0  0  0
   19.1428   19.6982   21.2116 C   0  0  0  0  0  0  0  0  0  0  0  0
   18.5707   20.0963   22.0540 H   0  0  0  0  0  0  0  0  0  0  0  0
   19.9631   20.3882   20.9975 H   0  0  0  0  0  0  0  0  0  0  0  0
   19.7106   18.3140   21.5797 C   0  0  0  0  0  0  0  0  0  0  0  0
   18.8787   17.6186   21.7536 H   0  0  0  0  0  0  0  0  0  0  0  0
   20.2837   17.9135   20.7330 H   0  0  0  0  0  0  0  0  0  0  0  0
   20.6060   18.3527   22.8402 C   0  0  0  0  0  0  0  0  0  0  0  0
   20.9107   17.3274   23.0932 H   0  0  0  0  0  0  0  0  0  0  0  0
   20.0243   18.7221   23.6965 H   0  0  0  0  0  0  0  0  0  0  0  0
   21.8701   19.2235   22.6569 C   0  0  0  0  0  0  0  0  0  0  0  0
   22.4670   18.8786   21.8025 H   0  0  0  0  0  0  0  0  0  0  0  0
   22.5052   19.1731   23.5509 H   0  0  0  0  0  0  0  0  0  0  0  0
   21.6135   20.2776   22.4926 H   0  0  0  0  0  0  0  0  0  0  0  0
  1  2  1  0  0  0  0
  1  3  1  0  0  0  0
  1  4  1  0  0  0  0
  1  5  1  0  0  0  0
  5  6  1  0  0  0  0
  5  7  1  0  0  0  0
  5  8  1  0  0  0  0
  8  9  1  0  0  0  0
  8 10  1  0  0  0  0
  8 11  1  0  0  0  0
 11 12  1  0  0  0  0
 11 13  1  0  0  0  0
 11 14  1  0  0  0  0
 14 15  1  0  0  0  0
 14 16  1  0  0  0  0
 14 17  1  0  0  0  0
M  END
> <VConfSearch Rank>
476

> <Conf_Id>
36

> <Delta U+W>
0.275

> <U+W>
-15.590

> <U>
45.174

> <W>
-60.765

> <W(PB)>
-62.518

> <W(SA)>
1.754

> <Valence>
1.161

> <Coulomb>
43.789

> <VdW>
0.224

> <VdW6>
-2.897

> <VdW12>
3.121

> <Bond>
0.100

> <Angle>
0.500

> <Pdih>
0.561

> <Idih>
0.000

> <Tether>
0.000

$$$$
VeraChem MOL file


 17 16  0  0  0  0  0  0  0  0999 V2000     
   20.8311   20.4664   20.9156 N   0  3  0  0  0  0  0  0  0  0  0  0
   20.0418   20.2005   20.3214 H   0  0  0  0  0  0  0  0  0  0  0  0
   21.6793   20.1036   20.4701 H   0  0  0  0  0  0  0  0  0  0  0  0
   20.8969   21.4891   20.8914 H   0  0  0  0  0  0  0  0  0  0  0  0
   20.6706   19.9448   22.3306 C   0  0  0  0  0  0  0  0  0  0  0  0
   19.7912   20.4161   22.7777 H   0  0  0  0  0  0  0  0  0  0  0  0
   21.5504   20.2693   22.8928 H   0  0  0  0  0  0  0  0  0  0  0  0
   20.5481   18.4096   22.4307 C   0  0  0  0  0  0  0  0  0  0  0  0
   21.2880   17.9303   21.7761 H   0  0  0  0  0  0  0  0  0  0  0  0
   20.8181   18.1182   23.4544 H   0  0  0  0  0  0  0  0  0  0  0  0
   19.1299   17.8574   22.1364 C   0  0  0  0  0  0  0  0  0  0  0  0
   18.4088   18.2973   22.8395 H   0  0  0  0  0  0  0  0  0  0  0  0
   19.1306   16.7770   22.3381 H   0  0  0  0  0  0  0  0  0  0  0  0
   18.6426   18.0872   20.6877 C   0  0  0  0  0  0  0  0  0  0  0  0
   18.4244   19.1449   20.4996 H   0  0  0  0  0  0  0  0  0  0  0  0
   17.7148   17.5296   20.5054 H   0  0  0  0  0  0  0  0  0  0  0  0
   19.3867   17.7432   19.9575 H   0  0  0  0  0  0  0  0  0  0  0  0
  1  2  1  0  0  0  0
  1  3  1  0  0  0  0
  1  4  1  0  0  0  0
  1  5  1  0  0  0  0
  5  6  1  0  0  0  0
  5  7  1  0  0  0  0
  5  8  1  0  0  0  0
  8  9  1  0  0  0  0
  8 10  1  0  0  0  0
  8 11  1  0  0  0  0
 11 12  1  0  0  0  0
 11 13  1  0  0  0  0
 11 14  1  0  0  0  0
 14 15  1  0  0  0  0
 14 16  1  0  0  0  0
 14 17  1  0  0  0  0
M  END
> <VConfSearch Rank>
477

> <Conf_Id>
19

> <Delta U+W>
2.662

> <U+W>
-13.203

> <U>
47.423

> <W>
-60.626

> <W(PB)>
-62.328

> <W(SA)>
1.702

> <Valence>
2.414

> <Coulomb>
44.831

> <VdW>
0.178

> <VdW6>
-3.743

> <VdW12>
3.921

> <Bond>
0.138

> <Angle>
0.941

> <Pdih>
1.335

> <Idih>
0.000

> <Tether>
0.000

$$$$
VeraChem MOL file


 17 16  0  0  0  0  0  0  0  0999 V2000     
   19.6424   20.4963   22.7580 N   0  3  0  0  0  0  0  0  0  0  0  0
   19.2821   21.4488   22.8750 H   0  0  0  0  0  0  0  0  0  0  0  0
   20.2096   20.2895   23.5856 H   0  0  0  0  0  0  0  0  0  0  0  0
   18.8379   19.8644   22.7790 H   0  0  0  0  0  0  0  0  0  0  0  0
   20.4402   20.3482   21.4767 C   0  0  0  0  0  0  0  0  0  0  0  0
   21.2753   21.0515   21.5370 H   0  0  0  0  0  0  0  0  0  0  0  0
   19.8076   20.6462   20.6363 H   0  0  0  0  0  0  0  0  0  0  0  0
   20.9950   18.9286   21.2353 C   0  0  0  0  0  0  0  0  0  0  0  0
   21.8356   19.0124   20.5337 H   0  0  0  0  0  0  0  0  0  0  0  0
   21.4182   18.5274   22.1657 H   0  0  0  0  0  0  0  0  0  0  0  0
   19.9709   17.9318   20.6350 C   0  0  0  0  0  0  0  0  0  0  0  0
   20.4946   16.9927   20.4072 H   0  0  0  0  0  0  0  0  0  0  0  0
   19.6023   18.3150   19.6731 H   0  0  0  0  0  0  0  0  0  0  0  0
   18.7714   17.6152   21.5569 C   0  0  0  0  0  0  0  0  0  0  0  0
   19.1065   17.3196   22.5597 H   0  0  0  0  0  0  0  0  0  0  0  0
   18.1831   16.7852   21.1444 H   0  0  0  0  0  0  0  0  0  0  0  0
   18.0963   18.4740   21.6480 H   0  0  0  0  0  0  0  0  0  0  0  0
  1  2  1  0  0  0  0
  1  3  1  0  0  0  0
  1  4  1  0  0  0  0
  1  5  1  0  0  0  0
  5  6  1  0  0  0  0
  5  7  1  0  0  0  0
  5  8  1  0  0  0  0
  8  9  1  0  0  0  0
  8 10  1  0  0  0  0
  8 11  1  0  0  0  0
 11 12  1  0  0  0  0
 11 13  1  0  0  0  0
 11 14  1  0  0  0  0
 14 15  1  0  0  0  0
 14 16  1  0  0  0  0
 14 17  1  0  0  0  0
M  END
> <VConfSearch Rank>
478

> <Conf_Id>
44

> <Delta U+W>
2.712

> <U+W>
-13.153

> <U>
47.423

> <W>
-60.576

> <W(PB)>
-62.262

> <W(SA)>
1.687

> <Valence>
2.414

> <Coulomb>
44.831

> <VdW>
0.178

> <VdW6>
-3.743

> <VdW12>
3.922

> <Bond>
0.138

> <Angle>
0.941

> <Pdih>
1.335

> <Idih>
0.000

> <Tether>
0.000

$$$$
VeraChem MOL file


 17 16  0  0  0  0  0  0  0  0999 V2000     
   21.0777   20.0989   20.3831 N   0  3  0  0  0  0  0  0  0  0  0  0
   21.5883   19.9866   21.2635 H   0  0  0  0  0  0  0  0  0  0  0  0
   20.7743   21.0759   20.3314 H   0  0  0  0  0  0  0  0  0  0  0  0
   21.7530   19.9564   19.6253 H   0  0  0  0  0  0  0  0  0  0  0  0
   19.9089   19.1376   20.2850 C   0  0  0  0  0  0  0  0  0  0  0  0
   20.3036   18.1188   20.3166 H   0  0  0  0  0  0  0  0  0  0  0  0
   19.4361   19.2866   19.3104 H   0  0  0  0  0  0  0  0  0  0  0  0
   18.8557   19.3222   21.3971 C   0  0  0  0  0  0  0  0  0  0  0  0
   18.4360   20.3347   21.3315 H   0  0  0  0  0  0  0  0  0  0  0  0
   18.0218   18.6329   21.2091 H   0  0  0  0  0  0  0  0  0  0  0  0
   19.4011   19.0835   22.8272 C   0  0  0  0  0  0  0  0  0  0  0  0
   18.5887   19.2509   23.5482 H   0  0  0  0  0  0  0  0  0  0  0  0
   20.1750   19.8259   23.0650 H   0  0  0  0  0  0  0  0  0  0  0  0
   19.9666   17.6590   23.0296 C   0  0  0  0  0  0  0  0  0  0  0  0
   19.2102   16.8977   22.7988 H   0  0  0  0  0  0  0  0  0  0  0  0
   20.2804   17.5138   24.0714 H   0  0  0  0  0  0  0  0  0  0  0  0
   20.8411   17.4772   22.3923 H   0  0  0  0  0  0  0  0  0  0  0  0
  1  2  1  0  0  0  0
  1  3  1  0  0  0  0
  1  4  1  0  0  0  0
  1  5  1  0  0  0  0
  5  6  1  0  0  0  0
  5  7  1  0  0  0  0
  5  8  1  0  0  0  0
  8  9  1  0  0  0  0
  8 10  1  0  0  0  0
  8 11  1  0  0  0  0
 11 12  1  0  0  0  0
 11 13  1  0  0  0  0
 11 14  1  0  0  0  0
 14 15  1  0  0  0  0
 14 16  1  0  0  0  0
 14 17  1  0  0  0  0
M  END
> <VConfSearch Rank>
479

> <Conf_Id>
1

> <Delta U+W>
0.685

> <U+W>
-15.179

> <U>
45.697

> <W>
-60.876

> <W(PB)>
-62.586

> <W(SA)>
1.710

> <Valence>
1.263

> <Coulomb>
44.179

> <VdW>
0.255

> <VdW6>
-3.552

> <VdW12>
3.807

> <Bond>
0.125

> <Angle>
0.616

> <Pdih>
0.521

> <Idih>
0.000

> <Tether>
0.000

$$$$
VeraChem MOL file


 17 16  0  0  0  0  0  0  0  0999 V2000     
   19.8287   17.0952   21.1602 N   0  3  0  0  0  0  0  0  0  0  0  0
   19.7202   16.5232   22.0031 H   0  0  0  0  0  0  0  0  0  0  0  0
   20.8142   17.3676   21.1040 H   0  0  0  0  0  0  0  0  0  0  0  0
   19.6413   16.4835   20.3593 H   0  0  0  0  0  0  0  0  0  0  0  0
   18.9118   18.3030   21.1741 C   0  0  0  0  0  0  0  0  0  0  0  0
   17.8812   17.9385   21.1967 H   0  0  0  0  0  0  0  0  0  0  0  0
   19.0563   18.8497   20.2386 H   0  0  0  0  0  0  0  0  0  0  0  0
   19.1455   19.2485   22.3705 C   0  0  0  0  0  0  0  0  0  0  0  0
   18.3994   20.0533   22.3331 H   0  0  0  0  0  0  0  0  0  0  0  0
   18.9583   18.7014   23.3041 H   0  0  0  0  0  0  0  0  0  0  0  0
   20.5636   19.8702   22.4146 C   0  0  0  0  0  0  0  0  0  0  0  0
   21.3176   19.0820   22.5448 H   0  0  0  0  0  0  0  0  0  0  0  0
   20.6406   20.5130   23.3028 H   0  0  0  0  0  0  0  0  0  0  0  0
   20.8970   20.7074   21.1586 C   0  0  0  0  0  0  0  0  0  0  0  0
   21.8819   21.1810   21.2618 H   0  0  0  0  0  0  0  0  0  0  0  0
   20.1569   21.5040   21.0074 H   0  0  0  0  0  0  0  0  0  0  0  0
   20.9215   20.0866   20.2542 H   0  0  0  0  0  0  0  0  0  0  0  0
  1  2  1  0  0  0  0
  1  3  1  0  0  0  0
  1  4  1  0  0  0  0
  1  5  1  0  0  0  0
  5  6  1  0  0  0  0
  5  7  1  0  0  0  0
  5  8  1  0  0  0  0
  8  9  1  0  0  0  0
  8 10  1  0  0  0  0
  8 11  1  0  0  0  0
 11 12  1  0  0  0  0
 11 13  1  0  0  0  0
 11 14  1  0  0  0  0
 14 15  1  0  0  0  0
 14 16  1  0  0  0  0
 14 17  1  0  0  0  0
M  END
> <VConfSearch Rank>
480

> <Conf_Id>
43

> <Delta U+W>
0.642

> <U+W>
-15.222

> <U>
45.697

> <W>
-60.919

> <W(PB)>
-62.631

> <W(SA)>
1.712

> <Valence>
1.262

> <Coulomb>
44.179

> <VdW>
0.255

> <VdW6>
-3.552

> <VdW12>
3.807

> <Bond>
0.125

> <Angle>
0.616

> <Pdih>
0.521

> <Idih>
0.000

> <Tether>
0.000

$$$$
VeraChem MOL file


 17 16  0  0  0  0  0  0  0  0999 V2000     
   19.0205   18.0774   19.4243 N   0  3  0  0  0  0  0  0  0  0  0  0
   19.1966   18.8899   18.8255 H   0  0  0  0  0  0  0  0  0  0  0  0
   18.0293   18.1032   19.6822 H   0  0  0  0  0  0  0  0  0  0  0  0
   19.1532   17.2451   18.8407 H   0  0  0  0  0  0  0  0  0  0  0  0
   19.9239   18.0624   20.6412 C   0  0  0  0  0  0  0  0  0  0  0  0
   20.9586   18.0036   20.2928 H   0  0  0  0  0  0  0  0  0  0  0  0
   19.7035   17.1575   21.2141 H   0  0  0  0  0  0  0  0  0  0  0  0
   19.7504   19.2996   21.5410 C   0  0  0  0  0  0  0  0  0  0  0  0
   19.9575   20.2070   20.9582 H   0  0  0  0  0  0  0  0  0  0  0  0
   18.7067   19.3638   21.8764 H   0  0  0  0  0  0  0  0  0  0  0  0
   20.6877   19.2446   22.7673 C   0  0  0  0  0  0  0  0  0  0  0  0
   21.7324   19.1770   22.4321 H   0  0  0  0  0  0  0  0  0  0  0  0
   20.4831   18.3348   23.3493 H   0  0  0  0  0  0  0  0  0  0  0  0
   20.5193   20.4826   23.6745 C   0  0  0  0  0  0  0  0  0  0  0  0
   21.1932   20.4244   24.5391 H   0  0  0  0  0  0  0  0  0  0  0  0
   19.4918   20.5580   24.0537 H   0  0  0  0  0  0  0  0  0  0  0  0
   20.7509   21.4068   23.1293 H   0  0  0  0  0  0  0  0  0  0  0  0
  1  2  1  0  0  0  0
  1  3  1  0  0  0  0
  1  4  1  0  0  0  0
  1  5  1  0  0  0  0
  5  6  1  0  0  0  0
  5  7  1  0  0  0  0
  5  8  1  0  0  0  0
  8  9  1  0  0  0  0
  8 10  1  0  0  0  0
  8 11  1  0  0  0  0
 11 12  1  0  0  0  0
 11 13  1  0  0  0  0
 11 14  1  0  0  0  0
 14 15  1  0  0  0  0
 14 16  1  0  0  0  0
 14 17  1  0  0  0  0
M  END
> <VConfSearch Rank>
481

> <Conf_Id>
7

> <Delta U+W>
0.000

> <U+W>
-15.865

> <U>
44.664

> <W>
-60.529

> <W(PB)>
-62.309

> <W(SA)>
1.780

> <Valence>
0.872

> <Coulomb>
43.648

> <VdW>
0.144

> <VdW6>
-2.370

> <VdW12>
2.515

> <Bond>
0.080

> <Angle>
0.376

> <Pdih>
0.416

> <Idih>
0.000

> <Tether>
0.000

$$$$
VeraChem MOL file


 17 16  0  0  0  0  0  0  0  0999 V2000     
   19.0058   17.4744   20.0885 N   0  3  0  0  0  0  0  0  0  0  0  0
   18.1198   17.1293   20.4700 H   0  0  0  0  0  0  0  0  0  0  0  0
   19.7020   16.7363   20.2301 H   0  0  0  0  0  0  0  0  0  0  0  0
   18.8756   17.5688   19.0761 H   0  0  0  0  0  0  0  0  0  0  0  0
   19.4277   18.7828   20.7270 C   0  0  0  0  0  0  0  0  0  0  0  0
   18.6572   19.5279   20.5115 H   0  0  0  0  0  0  0  0  0  0  0  0
   20.3580   19.1040   20.2513 H   0  0  0  0  0  0  0  0  0  0  0  0
   19.6328   18.6761   22.2503 C   0  0  0  0  0  0  0  0  0  0  0  0
   18.7052   18.3146   22.7138 H   0  0  0  0  0  0  0  0  0  0  0  0
   20.4055   17.9265   22.4668 H   0  0  0  0  0  0  0  0  0  0  0  0
   20.0247   20.0260   22.8953 C   0  0  0  0  0  0  0  0  0  0  0  0
   20.0762   19.8990   23.9858 H   0  0  0  0  0  0  0  0  0  0  0  0
   19.2364   20.7687   22.7080 H   0  0  0  0  0  0  0  0  0  0  0  0
   21.3801   20.5680   22.3864 C   0  0  0  0  0  0  0  0  0  0  0  0
   22.1852   19.8413   22.5564 H   0  0  0  0  0  0  0  0  0  0  0  0
   21.6473   21.4930   22.9137 H   0  0  0  0  0  0  0  0  0  0  0  0
   21.3459   20.7970   21.3138 H   0  0  0  0  0  0  0  0  0  0  0  0
  1  2  1  0  0  0  0
  1  3  1  0  0  0  0
  1  4  1  0  0  0  0
  1  5  1  0  0  0  0
  5  6  1  0  0  0  0
  5  7  1  0  0  0  0
  5  8  1  0  0  0  0
  8  9  1  0  0  0  0
  8 10  1  0  0  0  0
  8 11  1  0  0  0  0
 11 12  1  0  0  0  0
 11 13  1  0  0  0  0
 11 14  1  0  0  0  0
 14 15  1  0  0  0  0
 14 16  1  0  0  0  0
 14 17  1  0  0  0  0
M  END
> <VConfSearch Rank>
482

> <Conf_Id>
36

> <Delta U+W>
0.275

> <U+W>
-15.590

> <U>
45.174

> <W>
-60.765

> <W(PB)>
-62.518

> <W(SA)>
1.754

> <Valence>
1.161

> <Coulomb>
43.789

> <VdW>
0.224

> <VdW6>
-2.897

> <VdW12>
3.121

> <Bond>
0.100

> <Angle>
0.500

> <Pdih>
0.561

> <Idih>
0.000

> <Tether>
0.000

$$$$
VeraChem MOL file


 17 16  0  0  0  0  0  0  0  0999 V2000     
   18.5513   20.1960   21.3369 N   0  3  0  0  0  0  0  0  0  0  0  0
   18.7372   19.6528   20.4901 H   0  0  0  0  0  0  0  0  0  0  0  0
   18.9937   21.1114   21.2109 H   0  0  0  0  0  0  0  0  0  0  0  0
   17.5398   20.3577   21.3766 H   0  0  0  0  0  0  0  0  0  0  0  0
   19.0592   19.4911   22.5799 C   0  0  0  0  0  0  0  0  0  0  0  0
   18.5057   18.5559   22.7004 H   0  0  0  0  0  0  0  0  0  0  0  0
   18.8236   20.1351   23.4316 H   0  0  0  0  0  0  0  0  0  0  0  0
   20.5753   19.2034   22.5714 C   0  0  0  0  0  0  0  0  0  0  0  0
   21.1225   20.0830   22.2072 H   0  0  0  0  0  0  0  0  0  0  0  0
   20.8948   19.0597   23.6121 H   0  0  0  0  0  0  0  0  0  0  0  0
   20.9858   17.9425   21.7685 C   0  0  0  0  0  0  0  0  0  0  0  0
   20.4798   17.0594   22.1833 H   0  0  0  0  0  0  0  0  0  0  0  0
   22.0617   17.7735   21.9161 H   0  0  0  0  0  0  0  0  0  0  0  0
   20.7051   18.0317   20.2513 C   0  0  0  0  0  0  0  0  0  0  0  0
   19.6306   17.9918   20.0378 H   0  0  0  0  0  0  0  0  0  0  0  0
   21.1692   17.1854   19.7281 H   0  0  0  0  0  0  0  0  0  0  0  0
   21.1178   18.9545   19.8231 H   0  0  0  0  0  0  0  0  0  0  0  0
  1  2  1  0  0  0  0
  1  3  1  0  0  0  0
  1  4  1  0  0  0  0
  1  5  1  0  0  0  0
  5  6  1  0  0  0  0
  5  7  1  0  0  0  0
  5  8  1  0  0  0  0
  8  9  1  0  0  0  0
  8 10  1  0  0  0  0
  8 11  1  0  0  0  0
 11 12  1  0  0  0  0
 11 13  1  0  0  0  0
 11 14  1  0  0  0  0
 14 15  1  0  0  0  0
 14 16  1  0  0  0  0
 14 17  1  0  0  0  0
M  END
> <VConfSearch Rank>
483

> <Conf_Id>
19

> <Delta U+W>
2.662

> <U+W>
-13.203

> <U>
47.423

> <W>
-60.626

> <W(PB)>
-62.328

> <W(SA)>
1.702

> <Valence>
2.414

> <Coulomb>
44.831

> <VdW>
0.178

> <VdW6>
-3.743

> <VdW12>
3.921

> <Bond>
0.138

> <Angle>
0.941

> <Pdih>
1.335

> <Idih>
0.000

> <Tether>
0.000

$$$$
VeraChem MOL file


 17 16  0  0  0  0  0  0  0  0999 V2000     
   19.1381   17.3690   21.7978 N   0  3  0  0  0  0  0  0  0  0  0  0
   18.7696   16.5374   21.3250 H   0  0  0  0  0  0  0  0  0  0  0  0
   18.8892   17.2826   22.7878 H   0  0  0  0  0  0  0  0  0  0  0  0
   20.1585   17.3225   21.7389 H   0  0  0  0  0  0  0  0  0  0  0  0
   18.5976   18.6492   21.1905 C   0  0  0  0  0  0  0  0  0  0  0  0
   17.5097   18.6190   21.2962 H   0  0  0  0  0  0  0  0  0  0  0  0
   18.8331   18.6546   20.1229 H   0  0  0  0  0  0  0  0  0  0  0  0
   19.1311   19.9387   21.8496 C   0  0  0  0  0  0  0  0  0  0  0  0
   18.4257   20.7484   21.6204 H   0  0  0  0  0  0  0  0  0  0  0  0
   19.1233   19.8328   22.9425 H   0  0  0  0  0  0  0  0  0  0  0  0
   20.5350   20.3771   21.3603 C   0  0  0  0  0  0  0  0  0  0  0  0
   20.7693   21.3522   21.8101 H   0  0  0  0  0  0  0  0  0  0  0  0
   20.5132   20.5411   20.2738 H   0  0  0  0  0  0  0  0  0  0  0  0
   21.6708   19.3886   21.7093 C   0  0  0  0  0  0  0  0  0  0  0  0
   21.6602   19.1296   22.7760 H   0  0  0  0  0  0  0  0  0  0  0  0
   22.6476   19.8369   21.4853 H   0  0  0  0  0  0  0  0  0  0  0  0
   21.5972   18.4670   21.1203 H   0  0  0  0  0  0  0  0  0  0  0  0
  1  2  1  0  0  0  0
  1  3  1  0  0  0  0
  1  4  1  0  0  0  0
  1  5  1  0  0  0  0
  5  6  1  0  0  0  0
  5  7  1  0  0  0  0
  5  8  1  0  0  0  0
  8  9  1  0  0  0  0
  8 10  1  0  0  0  0
  8 11  1  0  0  0  0
 11 12  1  0  0  0  0
 11 13  1  0  0  0  0
 11 14  1  0  0  0  0
 14 15  1  0  0  0  0
 14 16  1  0  0  0  0
 14 17  1  0  0  0  0
M  END
> <VConfSearch Rank>
484

> <Conf_Id>
44

> <Delta U+W>
2.712

> <U+W>
-13.153

> <U>
47.423

> <W>
-60.576

> <W(PB)>
-62.262

> <W(SA)>
1.687

> <Valence>
2.414

> <Coulomb>
44.831

> <VdW>
0.178

> <VdW6>
-3.743

> <VdW12>
3.922

> <Bond>
0.138

> <Angle>
0.941

> <Pdih>
1.335

> <Idih>
0.000

> <Tether>
0.000

$$$$
VeraChem MOL file


 17 16  0  0  0  0  0  0  0  0999 V2000     
   20.4491   20.0249   23.2399 N   0  3  0  0  0  0  0  0  0  0  0  0
   21.1319   20.2595   22.5138 H   0  0  0  0  0  0  0  0  0  0  0  0
   20.9200   19.4115   23.9117 H   0  0  0  0  0  0  0  0  0  0  0  0
   20.2283   20.8948   23.7351 H   0  0  0  0  0  0  0  0  0  0  0  0
   19.2081   19.3777   22.6560 C   0  0  0  0  0  0  0  0  0  0  0  0
   18.7409   20.0930   21.9742 H   0  0  0  0  0  0  0  0  0  0  0  0
   18.5121   19.1904   23.4782 H   0  0  0  0  0  0  0  0  0  0  0  0
   19.4869   18.0554   21.9118 C   0  0  0  0  0  0  0  0  0  0  0  0
   19.9183   17.3303   22.6145 H   0  0  0  0  0  0  0  0  0  0  0  0
   18.5300   17.6294   21.5821 H   0  0  0  0  0  0  0  0  0  0  0  0
   20.4253   18.2067   20.6886 C   0  0  0  0  0  0  0  0  0  0  0  0
   20.5765   17.2175   20.2343 H   0  0  0  0  0  0  0  0  0  0  0  0
   21.4182   18.5455   21.0141 H   0  0  0  0  0  0  0  0  0  0  0  0
   19.8713   19.1725   19.6162 C   0  0  0  0  0  0  0  0  0  0  0  0
   18.8782   18.8539   19.2735 H   0  0  0  0  0  0  0  0  0  0  0  0
   20.5345   19.1984   18.7419 H   0  0  0  0  0  0  0  0  0  0  0  0
   19.7889   20.1973   19.9994 H   0  0  0  0  0  0  0  0  0  0  0  0
  1  2  1  0  0  0  0
  1  3  1  0  0  0  0
  1  4  1  0  0  0  0
  1  5  1  0  0  0  0
  5  6  1  0  0  0  0
  5  7  1  0  0  0  0
  5  8  1  0  0  0  0
  8  9  1  0  0  0  0
  8 10  1  0  0  0  0
  8 11  1  0  0  0  0
 11 12  1  0  0  0  0
 11 13  1  0  0  0  0
 11 14  1  0  0  0  0
 14 15  1  0  0  0  0
 14 16  1  0  0  0  0
 14 17  1  0  0  0  0
M  END
> <VConfSearch Rank>
485

> <Conf_Id>
1

> <Delta U+W>
0.685

> <U+W>
-15.179

> <U>
45.697

> <W>
-60.876

> <W(PB)>
-62.586

> <W(SA)>
1.710

> <Valence>
1.263

> <Coulomb>
44.179

> <VdW>
0.255

> <VdW6>
-3.552

> <VdW12>
3.807

> <Bond>
0.125

> <Angle>
0.616

> <Pdih>
0.521

> <Idih>
0.000

> <Tether>
0.000

$$$$
VeraChem MOL file


 17 16  0  0  0  0  0  0  0  0999 V2000     
   18.7396   20.5664   21.1776 N   0  3  0  0  0  0  0  0  0  0  0  0
   17.7508   20.3050   21.2348 H   0  0  0  0  0  0  0  0  0  0  0  0
   19.0964   20.2084   20.2872 H   0  0  0  0  0  0  0  0  0  0  0  0
   18.7743   21.5895   21.1243 H   0  0  0  0  0  0  0  0  0  0  0  0
   19.5341   20.0358   22.3554 C   0  0  0  0  0  0  0  0  0  0  0  0
   19.1244   20.4863   23.2635 H   0  0  0  0  0  0  0  0  0  0  0  0
   20.5679   20.3741   22.2475 H   0  0  0  0  0  0  0  0  0  0  0  0
   19.5007   18.4992   22.4876 C   0  0  0  0  0  0  0  0  0  0  0  0
   20.0445   18.2130   23.3976 H   0  0  0  0  0  0  0  0  0  0  0  0
   18.4628   18.1728   22.6364 H   0  0  0  0  0  0  0  0  0  0  0  0
   20.1065   17.7492   21.2751 C   0  0  0  0  0  0  0  0  0  0  0  0
   19.5163   17.9533   20.3715 H   0  0  0  0  0  0  0  0  0  0  0  0
   20.0259   16.6675   21.4519 H   0  0  0  0  0  0  0  0  0  0  0  0
   21.5887   18.1072   21.0207 C   0  0  0  0  0  0  0  0  0  0  0  0
   21.9941   17.5061   20.1965 H   0  0  0  0  0  0  0  0  0  0  0  0
   22.2005   17.9106   21.9107 H   0  0  0  0  0  0  0  0  0  0  0  0
   21.7083   19.1637   20.7495 H   0  0  0  0  0  0  0  0  0  0  0  0
  1  2  1  0  0  0  0
  1  3  1  0  0  0  0
  1  4  1  0  0  0  0
  1  5  1  0  0  0  0
  5  6  1  0  0  0  0
  5  7  1  0  0  0  0
  5  8  1  0  0  0  0
  8  9  1  0  0  0  0
  8 10  1  0  0  0  0
  8 11  1  0  0  0  0
 11 12  1  0  0  0  0
 11 13  1  0  0  0  0
 11 14  1  0  0  0  0
 14 15  1  0  0  0  0
 14 16  1  0  0  0  0
 14 17  1  0  0  0  0
M  END
> <VConfSearch Rank>
486

> <Conf_Id>
43

> <Delta U+W>
0.642

> <U+W>
-15.222

> <U>
45.697

> <W>
-60.919

> <W(PB)>
-62.631

> <W(SA)>
1.712

> <Valence>
1.262

> <Coulomb>
44.179

> <VdW>
0.255

> <VdW6>
-3.552

> <VdW12>
3.807

> <Bond>
0.125

> <Angle>
0.616

> <Pdih>
0.521

> <Idih>
0.000

> <Tether>
0.000

$$$$
VeraChem MOL file


 17 16  0  0  0  0  0  0  0  0999 V2000     
   21.5970   20.9230   22.2577 N   0  3  0  0  0  0  0  0  0  0  0  0
   21.8855   21.1851   21.3102 H   0  0  0  0  0  0  0  0  0  0  0  0
   22.3332   20.3223   22.6408 H   0  0  0  0  0  0  0  0  0  0  0  0
   21.5962   21.7830   22.8156 H   0  0  0  0  0  0  0  0  0  0  0  0
   20.2434   20.2412   22.2712 C   0  0  0  0  0  0  0  0  0  0  0  0
   19.5059   20.9473   21.8799 H   0  0  0  0  0  0  0  0  0  0  0  0
   19.9874   20.0195   23.3108 H   0  0  0  0  0  0  0  0  0  0  0  0
   20.2089   18.9445   21.4420 C   0  0  0  0  0  0  0  0  0  0  0  0
   20.4816   19.1685   20.4020 H   0  0  0  0  0  0  0  0  0  0  0  0
   20.9613   18.2439   21.8281 H   0  0  0  0  0  0  0  0  0  0  0  0
   18.8139   18.2828   21.4822 C   0  0  0  0  0  0  0  0  0  0  0  0
   18.0599   18.9848   21.0989 H   0  0  0  0  0  0  0  0  0  0  0  0
   18.5390   18.0612   22.5232 H   0  0  0  0  0  0  0  0  0  0  0  0
   18.7717   16.9813   20.6525 C   0  0  0  0  0  0  0  0  0  0  0  0
   17.7732   16.5272   20.6939 H   0  0  0  0  0  0  0  0  0  0  0  0
   19.4917   16.2457   21.0341 H   0  0  0  0  0  0  0  0  0  0  0  0
   19.0088   17.1765   19.5985 H   0  0  0  0  0  0  0  0  0  0  0  0
  1  2  1  0  0  0  0
  1  3  1  0  0  0  0
  1  4  1  0  0  0  0
  1  5  1  0  0  0  0
  5  6  1  0  0  0  0
  5  7  1  0  0  0  0
  5  8  1  0  0  0  0
  8  9  1  0  0  0  0
  8 10  1  0  0  0  0
  8 11  1  0  0  0  0
 11 12  1  0  0  0  0
 11 13  1  0  0  0  0
 11 14  1  0  0  0  0
 14 15  1  0  0  0  0
 14 16  1  0  0  0  0
 14 17  1  0  0  0  0
M  END
> <VConfSearch Rank>
487

> <Conf_Id>
7

> <Delta U+W>
0.000

> <U+W>
-15.865

> <U>
44.664

> <W>
-60.529

> <W(PB)>
-62.309

> <W(SA)>
1.780

> <Valence>
0.872

> <Coulomb>
43.648

> <VdW>
0.144

> <VdW6>
-2.370

> <VdW12>
2.515

> <Bond>
0.080

> <Angle>
0.376

> <Pdih>
0.416

> <Idih>
0.000

> <Tether>
0.000

$$$$
VeraChem MOL file


 17 16  0  0  0  0  0  0  0  0999 V2000     
   21.7779   17.5523   21.7768 N   0  3  0  0  0  0  0  0  0  0  0  0
   22.6399   18.0460   21.5260 H   0  0  0  0  0  0  0  0  0  0  0  0
   21.5303   16.9564   20.9810 H   0  0  0  0  0  0  0  0  0  0  0  0
   22.0105   16.9266   22.5547 H   0  0  0  0  0  0  0  0  0  0  0  0
   20.6599   18.5098   22.1384 C   0  0  0  0  0  0  0  0  0  0  0  0
   20.9794   19.0892   23.0087 H   0  0  0  0  0  0  0  0  0  0  0  0
   19.7878   17.9155   22.4234 H   0  0  0  0  0  0  0  0  0  0  0  0
   20.2845   19.4658   20.9898 C   0  0  0  0  0  0  0  0  0  0  0  0
   21.1764   20.0289   20.6844 H   0  0  0  0  0  0  0  0  0  0  0  0
   19.9651   18.8837   20.1151 H   0  0  0  0  0  0  0  0  0  0  0  0
   19.1701   20.4632   21.3841 C   0  0  0  0  0  0  0  0  0  0  0  0
   19.0078   21.1637   20.5529 H   0  0  0  0  0  0  0  0  0  0  0  0
   19.5014   21.0696   22.2388 H   0  0  0  0  0  0  0  0  0  0  0  0
   17.8319   19.7694   21.7273 C   0  0  0  0  0  0  0  0  0  0  0  0
   17.4814   19.1512   20.8905 H   0  0  0  0  0  0  0  0  0  0  0  0
   17.0553   20.5152   21.9407 H   0  0  0  0  0  0  0  0  0  0  0  0
   17.9257   19.1273   22.6122 H   0  0  0  0  0  0  0  0  0  0  0  0
  1  2  1  0  0  0  0
  1  3  1  0  0  0  0
  1  4  1  0  0  0  0
  1  5  1  0  0  0  0
  5  6  1  0  0  0  0
  5  7  1  0  0  0  0
  5  8  1  0  0  0  0
  8  9  1  0  0  0  0
  8 10  1  0  0  0  0
  8 11  1  0  0  0  0
 11 12  1  0  0  0  0
 11 13  1  0  0  0  0
 11 14  1  0  0  0  0
 14 15  1  0  0  0  0
 14 16  1  0  0  0  0
 14 17  1  0  0  0  0
M  END
> <VConfSearch Rank>
488

> <Conf_Id>
36

> <Delta U+W>
0.275

> <U+W>
-15.590

> <U>
45.174

> <W>
-60.765

> <W(PB)>
-62.518

> <W(SA)>
1.754

> <Valence>
1.161

> <Coulomb>
43.789

> <VdW>
0.224

> <VdW6>
-2.897

> <VdW12>
3.121

> <Bond>
0.100

> <Angle>
0.500

> <Pdih>
0.561

> <Idih>
0.000

> <Tether>
0.000

$$$$
VeraChem MOL file


 17 16  0  0  0  0  0  0  0  0999 V2000     
   21.1352   18.8876   23.0202 N   0  3  0  0  0  0  0  0  0  0  0  0
   20.7710   19.8371   22.9075 H   0  0  0  0  0  0  0  0  0  0  0  0
   22.0700   18.8718   22.6013 H   0  0  0  0  0  0  0  0  0  0  0  0
   21.2572   18.7277   24.0254 H   0  0  0  0  0  0  0  0  0  0  0  0
   20.2186   17.8556   22.3919 C   0  0  0  0  0  0  0  0  0  0  0  0
   19.2624   17.8709   22.9216 H   0  0  0  0  0  0  0  0  0  0  0  0
   20.6793   16.8774   22.5547 H   0  0  0  0  0  0  0  0  0  0  0  0
   19.9815   18.0543   20.8800 C   0  0  0  0  0  0  0  0  0  0  0  0
   20.9301   18.2874   20.3785 H   0  0  0  0  0  0  0  0  0  0  0  0
   19.6491   17.0939   20.4641 H   0  0  0  0  0  0  0  0  0  0  0  0
   18.9114   19.1203   20.5319 C   0  0  0  0  0  0  0  0  0  0  0  0
   17.9507   18.8422   20.9876 H   0  0  0  0  0  0  0  0  0  0  0  0
   18.7480   19.1044   19.4451 H   0  0  0  0  0  0  0  0  0  0  0  0
   19.2834   20.5603   20.9526 C   0  0  0  0  0  0  0  0  0  0  0  0
   19.2546   20.6814   22.0417 H   0  0  0  0  0  0  0  0  0  0  0  0
   18.5676   21.2771   20.5297 H   0  0  0  0  0  0  0  0  0  0  0  0
   20.2829   20.8355   20.5914 H   0  0  0  0  0  0  0  0  0  0  0  0
  1  2  1  0  0  0  0
  1  3  1  0  0  0  0
  1  4  1  0  0  0  0
  1  5  1  0  0  0  0
  5  6  1  0  0  0  0
  5  7  1  0  0  0  0
  5  8  1  0  0  0  0
  8  9  1  0  0  0  0
  8 10  1  0  0  0  0
  8 11  1  0  0  0  0
 11 12  1  0  0  0  0
 11 13  1  0  0  0  0
 11 14  1  0  0  0  0
 14 15  1  0  0  0  0
 14 16  1  0  0  0  0
 14 17  1  0  0  0  0
M  END
> <VConfSearch Rank>
489

> <Conf_Id>
19

> <Delta U+W>
2.662

> <U+W>
-13.203

> <U>
47.423

> <W>
-60.626

> <W(PB)>
-62.328

> <W(SA)>
1.702

> <Valence>
2.414

> <Coulomb>
44.831

> <VdW>
0.178

> <VdW6>
-3.743

> <VdW12>
3.921

> <Bond>
0.138

> <Angle>
0.941

> <Pdih>
1.335

> <Idih>
0.000

> <Tether>
0.000

$$$$
VeraChem MOL file


 17 16  0  0  0  0  0  0  0  0999 V2000     
   20.1125   18.4100   23.3257 N   0  3  0  0  0  0  0  0  0  0  0  0
   19.6608   18.0237   24.1608 H   0  0  0  0  0  0  0  0  0  0  0  0
   21.0748   18.6425   23.5892 H   0  0  0  0  0  0  0  0  0  0  0  0
   20.1633   17.6574   22.6344 H   0  0  0  0  0  0  0  0  0  0  0  0
   19.3679   19.6173   22.7889 C   0  0  0  0  0  0  0  0  0  0  0  0
   19.3618   20.3685   23.5834 H   0  0  0  0  0  0  0  0  0  0  0  0
   18.3327   19.3276   22.5899 H   0  0  0  0  0  0  0  0  0  0  0  0
   19.9911   20.2338   21.5188 C   0  0  0  0  0  0  0  0  0  0  0  0
   19.6362   21.2701   21.4408 H   0  0  0  0  0  0  0  0  0  0  0  0
   21.0819   20.2966   21.6281 H   0  0  0  0  0  0  0  0  0  0  0  0
   19.6223   19.5034   20.2023 C   0  0  0  0  0  0  0  0  0  0  0  0
   20.0277   20.0820   19.3603 H   0  0  0  0  0  0  0  0  0  0  0  0
   18.5308   19.5031   20.0731 H   0  0  0  0  0  0  0  0  0  0  0  0
   20.1529   18.0550   20.1048 C   0  0  0  0  0  0  0  0  0  0  0  0
   21.2277   18.0087   20.3235 H   0  0  0  0  0  0  0  0  0  0  0  0
   20.0022   17.6620   19.0909 H   0  0  0  0  0  0  0  0  0  0  0  0
   19.6225   17.3852   20.7916 H   0  0  0  0  0  0  0  0  0  0  0  0
  1  2  1  0  0  0  0
  1  3  1  0  0  0  0
  1  4  1  0  0  0  0
  1  5  1  0  0  0  0
  5  6  1  0  0  0  0
  5  7  1  0  0  0  0
  5  8  1  0  0  0  0
  8  9  1  0  0  0  0
  8 10  1  0  0  0  0
  8 11  1  0  0  0  0
 11 12  1  0  0  0  0
 11 13  1  0  0  0  0
 11 14  1  0  0  0  0
 14 15  1  0  0  0  0
 14 16  1  0  0  0  0
 14 17  1  0  0  0  0
M  END
> <VConfSearch Rank>
490

> <Conf_Id>
44

> <Delta U+W>
2.712

> <U+W>
-13.153

> <U>
47.423

> <W>
-60.576

> <W(PB)>
-62.262

> <W(SA)>
1.687

> <Valence>
2.414

> <Coulomb>
44.831

> <VdW>
0.178

> <VdW6>
-3.743

> <VdW12>
3.922

> <Bond>
0.138

> <Angle>
0.941

> <Pdih>
1.335

> <Idih>
0.000

> <Tether>
0.000

$$$$
VeraChem MOL file


 17 16  0  0  0  0  0  0  0  0999 V2000     
   18.4650   20.3801   21.7814 N   0  3  0  0  0  0  0  0  0  0  0  0
   18.7242   20.0868   22.7276 H   0  0  0  0  0  0  0  0  0  0  0  0
   17.5481   19.9710   21.5781 H   0  0  0  0  0  0  0  0  0  0  0  0
   18.3380   21.3969   21.8076 H   0  0  0  0  0  0  0  0  0  0  0  0
   19.5075   19.9681   20.7600 C   0  0  0  0  0  0  0  0  0  0  0  0
   20.4487   20.4603   21.0181 H   0  0  0  0  0  0  0  0  0  0  0  0
   19.1856   20.3445   19.7852 H   0  0  0  0  0  0  0  0  0  0  0  0
   19.7248   18.4433   20.6724 C   0  0  0  0  0  0  0  0  0  0  0  0
   18.7844   17.9618   20.3731 H   0  0  0  0  0  0  0  0  0  0  0  0
   20.4434   18.2366   19.8682 H   0  0  0  0  0  0  0  0  0  0  0  0
   20.2343   17.8028   21.9876 C   0  0  0  0  0  0  0  0  0  0  0  0
   20.3449   16.7202   21.8342 H   0  0  0  0  0  0  0  0  0  0  0  0
   19.4837   17.9214   22.7808 H   0  0  0  0  0  0  0  0  0  0  0  0
   21.5869   18.3838   22.4596 C   0  0  0  0  0  0  0  0  0  0  0  0
   22.3552   18.2760   21.6830 H   0  0  0  0  0  0  0  0  0  0  0  0
   21.9405   17.8572   23.3555 H   0  0  0  0  0  0  0  0  0  0  0  0
   21.5030   19.4481   22.7131 H   0  0  0  0  0  0  0  0  0  0  0  0
  1  2  1  0  0  0  0
  1  3  1  0  0  0  0
  1  4  1  0  0  0  0
  1  5  1  0  0  0  0
  5  6  1  0  0  0  0
  5  7  1  0  0  0  0
  5  8  1  0  0  0  0
  8  9  1  0  0  0  0
  8 10  1  0  0  0  0
  8 11  1  0  0  0  0
 11 12  1  0  0  0  0
 11 13  1  0  0  0  0
 11 14  1  0  0  0  0
 14 15  1  0  0  0  0
 14 16  1  0  0  0  0
 14 17  1  0  0  0  0
M  END
> <VConfSearch Rank>
491

> <Conf_Id>
1

> <Delta U+W>
0.685

> <U+W>
-15.179

> <U>
45.697

> <W>
-60.876

> <W(PB)>
-62.586

> <W(SA)>
1.710

> <Valence>
1.263

> <Coulomb>
44.179

> <VdW>
0.255

> <VdW6>
-3.552

> <VdW12>
3.807

> <Bond>
0.125

> <Angle>
0.616

> <Pdih>
0.521

> <Idih>
0.000

> <Tether>
0.000

$$$$
VeraChem MOL file


 17 16  0  0  0  0  0  0  0  0999 V2000     
   18.2899   19.8249   20.8008 N   0  3  0  0  0  0  0  0  0  0  0  0
   17.4831   19.7316   21.4251 H   0  0  0  0  0  0  0  0  0  0  0  0
   18.4323   18.9155   20.3523 H   0  0  0  0  0  0  0  0  0  0  0  0
   18.0205   20.4834   20.0629 H   0  0  0  0  0  0  0  0  0  0  0  0
   19.5295   20.2856   21.5430 C   0  0  0  0  0  0  0  0  0  0  0  0
   19.3189   21.2733   21.9620 H   0  0  0  0  0  0  0  0  0  0  0  0
   20.3397   20.3924   20.8171 H   0  0  0  0  0  0  0  0  0  0  0  0
   19.9673   19.3335   22.6751 C   0  0  0  0  0  0  0  0  0  0  0  0
   20.8272   19.7771   23.1943 H   0  0  0  0  0  0  0  0  0  0  0  0
   19.1631   19.2648   23.4195 H   0  0  0  0  0  0  0  0  0  0  0  0
   20.3431   17.9106   22.1916 C   0  0  0  0  0  0  0  0  0  0  0  0
   19.4659   17.4175   21.7511 H   0  0  0  0  0  0  0  0  0  0  0  0
   20.6259   17.3039   23.0633 H   0  0  0  0  0  0  0  0  0  0  0  0
   21.5086   17.9043   21.1760 C   0  0  0  0  0  0  0  0  0  0  0  0
   21.7835   16.8749   20.9117 H   0  0  0  0  0  0  0  0  0  0  0  0
   22.3990   18.3916   21.5941 H   0  0  0  0  0  0  0  0  0  0  0  0
   21.2383   18.4232   20.2477 H   0  0  0  0  0  0  0  0  0  0  0  0
  1  2  1  0  0  0  0
  1  3  1  0  0  0  0
  1  4  1  0  0  0  0
  1  5  1  0  0  0  0
  5  6  1  0  0  0  0
  5  7  1  0  0  0  0
  5  8  1  0  0  0  0
  8  9  1  0  0  0  0
  8 10  1  0  0  0  0
  8 11  1  0  0  0  0
 11 12  1  0  0  0  0
 11 13  1  0  0  0  0
 11 14  1  0  0  0  0
 14 15  1  0  0  0  0
 14 16  1  0  0  0  0
 14 17  1  0  0  0  0
M  END
> <VConfSearch Rank>
492

> <Conf_Id>
43

> <Delta U+W>
0.642

> <U+W>
-15.222

> <U>
45.697

> <W>
-60.919

> <W(PB)>
-62.631

> <W(SA)>
1.712

> <Valence>
1.262

> <Coulomb>
44.179

> <VdW>
0.255

> <VdW6>
-3.552

> <VdW12>
3.807

> <Bond>
0.125

> <Angle>
0.616

> <Pdih>
0.521

> <Idih>
0.000

> <Tether>
0.000

$$$$
VeraChem MOL file


 17 16  0  0  0  0  0  0  0  0999 V2000     
   17.4226   19.4387   21.4431 N   0  3  0  0  0  0  0  0  0  0  0  0
   17.1359   18.6806   22.0699 H   0  0  0  0  0  0  0  0  0  0  0  0
   17.2980   19.0996   20.4844 H   0  0  0  0  0  0  0  0  0  0  0  0
   16.7524   20.2028   21.5765 H   0  0  0  0  0  0  0  0  0  0  0  0
   18.8467   19.8857   21.7069 C   0  0  0  0  0  0  0  0  0  0  0  0
   18.8981   20.2615   22.7324 H   0  0  0  0  0  0  0  0  0  0  0  0
   19.0724   20.7121   21.0275 H   0  0  0  0  0  0  0  0  0  0  0  0
   19.8808   18.7613   21.5155 C   0  0  0  0  0  0  0  0  0  0  0  0
   19.6419   17.9269   22.1882 H   0  0  0  0  0  0  0  0  0  0  0  0
   19.8158   18.3760   20.4892 H   0  0  0  0  0  0  0  0  0  0  0  0
   21.3165   19.2582   21.7937 C   0  0  0  0  0  0  0  0  0  0  0  0
   21.3814   19.6471   22.8198 H   0  0  0  0  0  0  0  0  0  0  0  0
   21.5551   20.0956   21.1228 H   0  0  0  0  0  0  0  0  0  0  0  0
   22.3594   18.1356   21.6037 C   0  0  0  0  0  0  0  0  0  0  0  0
   23.3719   18.5085   21.8059 H   0  0  0  0  0  0  0  0  0  0  0  0
   22.3422   17.7498   20.5761 H   0  0  0  0  0  0  0  0  0  0  0  0
   22.1672   17.2977   22.2864 H   0  0  0  0  0  0  0  0  0  0  0  0
  1  2  1  0  0  0  0
  1  3  1  0  0  0  0
  1  4  1  0  0  0  0
  1  5  1  0  0  0  0
  5  6  1  0  0  0  0
  5  7  1  0  0  0  0
  5  8  1  0  0  0  0
  8  9  1  0  0  0  0
  8 10  1  0  0  0  0
  8 11  1  0  0  0  0
 11 12  1  0  0  0  0
 11 13  1  0  0  0  0
 11 14  1  0  0  0  0
 14 15  1  0  0  0  0
 14 16  1  0  0  0  0
 14 17  1  0  0  0  0
M  END
> <VConfSearch Rank>
493

> <Conf_Id>
7

> <Delta U+W>
0.000

> <U+W>
-15.865

> <U>
44.664

> <W>
-60.529

> <W(PB)>
-62.309

> <W(SA)>
1.780

> <Valence>
0.872

> <Coulomb>
43.648

> <VdW>
0.144

> <VdW6>
-2.370

> <VdW12>
2.515

> <Bond>
0.080

> <Angle>
0.376

> <Pdih>
0.416

> <Idih>
0.000

> <Tether>
0.000

$$$$
VeraChem MOL file


 17 16  0  0  0  0  0  0  0  0999 V2000     
   18.5303   17.1386   21.8218 N   0  3  0  0  0  0  0  0  0  0  0  0
   17.9383   17.2419   22.6516 H   0  0  0  0  0  0  0  0  0  0  0  0
   19.2654   16.4654   22.0589 H   0  0  0  0  0  0  0  0  0  0  0  0
   17.9512   16.7022   21.0972 H   0  0  0  0  0  0  0  0  0  0  0  0
   19.1020   18.4654   21.3634 C   0  0  0  0  0  0  0  0  0  0  0  0
   18.2670   19.1201   21.0998 H   0  0  0  0  0  0  0  0  0  0  0  0
   19.6926   18.2830   20.4619 H   0  0  0  0  0  0  0  0  0  0  0  0
   19.9790   19.1491   22.4299 C   0  0  0  0  0  0  0  0  0  0  0  0
   19.3881   19.2913   23.3445 H   0  0  0  0  0  0  0  0  0  0  0  0
   20.8167   18.4907   22.6958 H   0  0  0  0  0  0  0  0  0  0  0  0
   20.5240   20.5197   21.9647 C   0  0  0  0  0  0  0  0  0  0  0  0
   21.0706   20.9872   22.7958 H   0  0  0  0  0  0  0  0  0  0  0  0
   19.6860   21.1911   21.7298 H   0  0  0  0  0  0  0  0  0  0  0  0
   21.4625   20.4130   20.7408 C   0  0  0  0  0  0  0  0  0  0  0  0
   22.3064   19.7420   20.9474 H   0  0  0  0  0  0  0  0  0  0  0  0
   21.8732   21.3980   20.4837 H   0  0  0  0  0  0  0  0  0  0  0  0
   20.9322   20.0351   19.8576 H   0  0  0  0  0  0  0  0  0  0  0  0
  1  2  1  0  0  0  0
  1  3  1  0  0  0  0
  1  4  1  0  0  0  0
  1  5  1  0  0  0  0
  5  6  1  0  0  0  0
  5  7  1  0  0  0  0
  5  8  1  0  0  0  0
  8  9  1  0  0  0  0
  8 10  1  0  0  0  0
  8 11  1  0  0  0  0
 11 12  1  0  0  0  0
 11 13  1  0  0  0  0
 11 14  1  0  0  0  0
 14 15  1  0  0  0  0
 14 16  1  0  0  0  0
 14 17  1  0  0  0  0
M  END
> <VConfSearch Rank>
494

> <Conf_Id>
36

> <Delta U+W>
0.275

> <U+W>
-15.590

> <U>
45.174

> <W>
-60.765

> <W(PB)>
-62.518

> <W(SA)>
1.754

> <Valence>
1.161

> <Coulomb>
43.789

> <VdW>
0.224

> <VdW6>
-2.897

> <VdW12>
3.121

> <Bond>
0.100

> <Angle>
0.500

> <Pdih>
0.561

> <Idih>
0.000

> <Tether>
0.000

$$$$
VeraChem MOL file


 17 16  0  0  0  0  0  0  0  0999 V2000     
   19.8901   17.2887   22.3548 N   0  3  0  0  0  0  0  0  0  0  0  0
   20.0752   17.2441   21.3495 H   0  0  0  0  0  0  0  0  0  0  0  0
   18.8991   17.0667   22.4889 H   0  0  0  0  0  0  0  0  0  0  0  0
   20.4261   16.5338   22.7949 H   0  0  0  0  0  0  0  0  0  0  0  0
   20.2469   18.6448   22.9326 C   0  0  0  0  0  0  0  0  0  0  0  0
   21.3239   18.7977   22.8225 H   0  0  0  0  0  0  0  0  0  0  0  0
   20.0185   18.6073   24.0012 H   0  0  0  0  0  0  0  0  0  0  0  0
   19.4840   19.8260   22.2966 C   0  0  0  0  0  0  0  0  0  0  0  0
   18.4230   19.5686   22.1800 H   0  0  0  0  0  0  0  0  0  0  0  0
   19.5144   20.6645   23.0050 H   0  0  0  0  0  0  0  0  0  0  0  0
   20.0705   20.3190   20.9491 C   0  0  0  0  0  0  0  0  0  0  0  0
   21.1139   20.6331   21.0930 H   0  0  0  0  0  0  0  0  0  0  0  0
   19.5216   21.2204   20.6420 H   0  0  0  0  0  0  0  0  0  0  0  0
   19.9974   19.2841   19.8035 C   0  0  0  0  0  0  0  0  0  0  0  0
   20.6947   18.4541   19.9660 H   0  0  0  0  0  0  0  0  0  0  0  0
   20.2712   19.7528   18.8493 H   0  0  0  0  0  0  0  0  0  0  0  0
   18.9827   18.8791   19.6963 H   0  0  0  0  0  0  0  0  0  0  0  0
  1  2  1  0  0  0  0
  1  3  1  0  0  0  0
  1  4  1  0  0  0  0
  1  5  1  0  0  0  0
  5  6  1  0  0  0  0
  5  7  1  0  0  0  0
  5  8  1  0  0  0  0
  8  9  1  0  0  0  0
  8 10  1  0  0  0  0
  8 11  1  0  0  0  0
 11 12  1  0  0  0  0
 11 13  1  0  0  0  0
 11 14  1  0  0  0  0
 14 15  1  0  0  0  0
 14 16  1  0  0  0  0
 14 17  1  0  0  0  0
M  END
> <VConfSearch Rank>
495

> <Conf_Id>
19

> <Delta U+W>
2.662

> <U+W>
-13.203

> <U>
47.423

> <W>
-60.626

> <W(PB)>
-62.328

> <W(SA)>
1.702

> <Valence>
2.414

> <Coulomb>
44.831

> <VdW>
0.178

> <VdW6>
-3.743

> <VdW12>
3.921

> <Bond>
0.138

> <Angle>
0.941

> <Pdih>
1.335

> <Idih>
0.000

> <Tether>
0.000

$$$$
VeraChem MOL file


 17 16  0  0  0  0  0  0  0  0999 V2000     
   18.8813   20.5439   22.1094 N   0  3  0  0  0  0  0  0  0  0  0  0
   18.1573   20.9123   22.7347 H   0  0  0  0  0  0  0  0  0  0  0  0
   19.0398   21.2537   21.3878 H   0  0  0  0  0  0  0  0  0  0  0  0
   19.7436   20.4720   22.6553 H   0  0  0  0  0  0  0  0  0  0  0  0
   18.4827   19.2094   21.5093 C   0  0  0  0  0  0  0  0  0  0  0  0
   17.5606   19.3749   20.9455 H   0  0  0  0  0  0  0  0  0  0  0  0
   18.2608   18.5140   22.3232 H   0  0  0  0  0  0  0  0  0  0  0  0
   19.5421   18.5941   20.5708 C   0  0  0  0  0  0  0  0  0  0  0  0
   19.0327   17.8731   19.9178 H   0  0  0  0  0  0  0  0  0  0  0  0
   19.9493   19.3672   19.9059 H   0  0  0  0  0  0  0  0  0  0  0  0
   20.6904   17.8493   21.2985 C   0  0  0  0  0  0  0  0  0  0  0  0
   21.3231   17.3649   20.5415 H   0  0  0  0  0  0  0  0  0  0  0  0
   20.2743   17.0374   21.9114 H   0  0  0  0  0  0  0  0  0  0  0  0
   21.5819   18.7542   22.1790 C   0  0  0  0  0  0  0  0  0  0  0  0
   21.9376   19.6292   21.6195 H   0  0  0  0  0  0  0  0  0  0  0  0
   22.4638   18.1991   22.5246 H   0  0  0  0  0  0  0  0  0  0  0  0
   21.0479   19.0982   23.0725 H   0  0  0  0  0  0  0  0  0  0  0  0
  1  2  1  0  0  0  0
  1  3  1  0  0  0  0
  1  4  1  0  0  0  0
  1  5  1  0  0  0  0
  5  6  1  0  0  0  0
  5  7  1  0  0  0  0
  5  8  1  0  0  0  0
  8  9  1  0  0  0  0
  8 10  1  0  0  0  0
  8 11  1  0  0  0  0
 11 12  1  0  0  0  0
 11 13  1  0  0  0  0
 11 14  1  0  0  0  0
 14 15  1  0  0  0  0
 14 16  1  0  0  0  0
 14 17  1  0  0  0  0
M  END
> <VConfSearch Rank>
496

> <Conf_Id>
44

> <Delta U+W>
2.712

> <U+W>
-13.153

> <U>
47.423

> <W>
-60.576

> <W(PB)>
-62.262

> <W(SA)>
1.687

> <Valence>
2.414

> <Coulomb>
44.831

> <VdW>
0.178

> <VdW6>
-3.743

> <VdW12>
3.922

> <Bond>
0.138

> <Angle>
0.941

> <Pdih>
1.335

> <Idih>
0.000

> <Tether>
0.000

$$$$
VeraChem MOL file


 17 16  0  0  0  0  0  0  0  0999 V2000     
   19.4139   18.0516   23.2473 N   0  3  0  0  0  0  0  0  0  0  0  0
   19.2384   19.0445   23.4255 H   0  0  0  0  0  0  0  0  0  0  0  0
   20.2384   17.7869   23.7946 H   0  0  0  0  0  0  0  0  0  0  0  0
   18.6198   17.5329   23.6358 H   0  0  0  0  0  0  0  0  0  0  0  0
   19.6021   17.7708   21.7690 C   0  0  0  0  0  0  0  0  0  0  0  0
   18.6800   18.0469   21.2509 H   0  0  0  0  0  0  0  0  0  0  0  0
   19.7465   16.6935   21.6504 H   0  0  0  0  0  0  0  0  0  0  0  0
   20.7960   18.5184   21.1401 C   0  0  0  0  0  0  0  0  0  0  0  0
   21.7218   18.2039   21.6399 H   0  0  0  0  0  0  0  0  0  0  0  0
   20.8933   18.2061   20.0919 H   0  0  0  0  0  0  0  0  0  0  0  0
   20.6768   20.0616   21.2027 C   0  0  0  0  0  0  0  0  0  0  0  0
   21.5735   20.5045   20.7470 H   0  0  0  0  0  0  0  0  0  0  0  0
   20.6708   20.3977   22.2484 H   0  0  0  0  0  0  0  0  0  0  0  0
   19.4246   20.6021   20.4749 C   0  0  0  0  0  0  0  0  0  0  0  0
   19.4082   20.2799   19.4256 H   0  0  0  0  0  0  0  0  0  0  0  0
   19.4154   21.6997   20.4881 H   0  0  0  0  0  0  0  0  0  0  0  0
   18.4991   20.2578   20.9534 H   0  0  0  0  0  0  0  0  0  0  0  0
  1  2  1  0  0  0  0
  1  3  1  0  0  0  0
  1  4  1  0  0  0  0
  1  5  1  0  0  0  0
  5  6  1  0  0  0  0
  5  7  1  0  0  0  0
  5  8  1  0  0  0  0
  8  9  1  0  0  0  0
  8 10  1  0  0  0  0
  8 11  1  0  0  0  0
 11 12  1  0  0  0  0
 11 13  1  0  0  0  0
 11 14  1  0  0  0  0
 14 15  1  0  0  0  0
 14 16  1  0  0  0  0
 14 17  1  0  0  0  0
M  END
> <VConfSearch Rank>
497

> <Conf_Id>
1

> <Delta U+W>
0.685

> <U+W>
-15.179

> <U>
45.697

> <W>
-60.876

> <W(PB)>
-62.586

> <W(SA)>
1.710

> <Valence>
1.263

> <Coulomb>
44.179

> <VdW>
0.255

> <VdW6>
-3.552

> <VdW12>
3.807

> <Bond>
0.125

> <Angle>
0.616

> <Pdih>
0.521

> <Idih>
0.000

> <Tether>
0.000

$$$$
VeraChem MOL file


 17 16  0  0  0  0  0  0  0  0999 V2000     
   19.4358   19.5090   23.4636 N   0  3  0  0  0  0  0  0  0  0  0  0
   18.4266   19.6557   23.5614 H   0  0  0  0  0  0  0  0  0  0  0  0
   19.8232   20.3510   23.0284 H   0  0  0  0  0  0  0  0  0  0  0  0
   19.8222   19.4574   24.4116 H   0  0  0  0  0  0  0  0  0  0  0  0
   19.7511   18.2639   22.6574 C   0  0  0  0  0  0  0  0  0  0  0  0
   19.3423   17.4053   23.1972 H   0  0  0  0  0  0  0  0  0  0  0  0
   20.8376   18.1515   22.6173 H   0  0  0  0  0  0  0  0  0  0  0  0
   19.1773   18.2872   21.2256 C   0  0  0  0  0  0  0  0  0  0  0  0
   19.3980   17.3258   20.7430 H   0  0  0  0  0  0  0  0  0  0  0  0
   18.0828   18.3591   21.2771 H   0  0  0  0  0  0  0  0  0  0  0  0
   19.7271   19.4371   20.3452 C   0  0  0  0  0  0  0  0  0  0  0  0
   19.4348   20.4083   20.7668 H   0  0  0  0  0  0  0  0  0  0  0  0
   19.2537   19.3817   19.3548 H   0  0  0  0  0  0  0  0  0  0  0  0
   21.2623   19.3857   20.1715 C   0  0  0  0  0  0  0  0  0  0  0  0
   21.5994   20.1772   19.4897 H   0  0  0  0  0  0  0  0  0  0  0  0
   21.5798   18.4232   19.7497 H   0  0  0  0  0  0  0  0  0  0  0  0
   21.7820   19.5289   21.1272 H   0  0  0  0  0  0  0  0  0  0  0  0
  1  2  1  0  0  0  0
  1  3  1  0  0  0  0
  1  4  1  0  0  0  0
  1  5  1  0  0  0  0
  5  6  1  0  0  0  0
  5  7  1  0  0  0  0
  5  8  1  0  0  0  0
  8  9  1  0  0  0  0
  8 10  1  0  0  0  0
  8 11  1  0  0  0  0
 11 12  1  0  0  0  0
 11 13  1  0  0  0  0
 11 14  1  0  0  0  0
 14 15  1  0  0  0  0
 14 16  1  0  0  0  0
 14 17  1  0  0  0  0
M  END
> <VConfSearch Rank>
498

> <Conf_Id>
43

> <Delta U+W>
0.642

> <U+W>
-15.222

> <U>
45.697

> <W>
-60.919

> <W(PB)>
-62.631

> <W(SA)>
1.712

> <Valence>
1.262

> <Coulomb>
44.179

> <VdW>
0.255

> <VdW6>
-3.552

> <VdW12>
3.807

> <Bond>
0.125

> <Angle>
0.616

> <Pdih>
0.521

> <Idih>
0.000

> <Tether>
0.000

$$$$
VeraChem MOL file


 17 16  0  0  0  0  0  0  0  0999 V2000     
   19.7628   21.4906   22.4073 N   0  3  0  0  0  0  0  0  0  0  0  0
   19.2000   21.8441   21.6276 H   0  0  0  0  0  0  0  0  0  0  0  0
   20.7328   21.7674   22.2278 H   0  0  0  0  0  0  0  0  0  0  0  0
   19.4601   21.9979   23.2451 H   0  0  0  0  0  0  0  0  0  0  0  0
   19.6220   19.9908   22.5751 C   0  0  0  0  0  0  0  0  0  0  0  0
   18.5731   19.7725   22.7933 H   0  0  0  0  0  0  0  0  0  0  0  0
   20.2213   19.6900   23.4388 H   0  0  0  0  0  0  0  0  0  0  0  0
   20.0684   19.1968   21.3339 C   0  0  0  0  0  0  0  0  0  0  0  0
   19.4751   19.5126   20.4655 H   0  0  0  0  0  0  0  0  0  0  0  0
   21.1176   19.4303   21.1088 H   0  0  0  0  0  0  0  0  0  0  0  0
   19.9089   17.6754   21.5466 C   0  0  0  0  0  0  0  0  0  0  0  0
   18.8594   17.4415   21.7752 H   0  0  0  0  0  0  0  0  0  0  0  0
   20.5000   17.3593   22.4177 H   0  0  0  0  0  0  0  0  0  0  0  0
   20.3547   16.8724   20.3055 C   0  0  0  0  0  0  0  0  0  0  0  0
   20.2336   15.7948   20.4766 H   0  0  0  0  0  0  0  0  0  0  0  0
   21.4111   17.0591   20.0722 H   0  0  0  0  0  0  0  0  0  0  0  0
   19.7575   17.1421   19.4246 H   0  0  0  0  0  0  0  0  0  0  0  0
  1  2  1  0  0  0  0
  1  3  1  0  0  0  0
  1  4  1  0  0  0  0
  1  5  1  0  0  0  0
  5  6  1  0  0  0  0
  5  7  1  0  0  0  0
  5  8  1  0  0  0  0
  8  9  1  0  0  0  0
  8 10  1  0  0  0  0
  8 11  1  0  0  0  0
 11 12  1  0  0  0  0
 11 13  1  0  0  0  0
 11 14  1  0  0  0  0
 14 15  1  0  0  0  0
 14 16  1  0  0  0  0
 14 17  1  0  0  0  0
M  END
> <VConfSearch Rank>
499

> <Conf_Id>
7

> <Delta U+W>
0.000

> <U+W>
-15.865

> <U>
44.664

> <W>
-60.529

> <W(PB)>
-62.309

> <W(SA)>
1.780

> <Valence>
0.872

> <Coulomb>
43.648

> <VdW>
0.144

> <VdW6>
-2.370

> <VdW12>
2.515

> <Bond>
0.080

> <Angle>
0.376

> <Pdih>
0.416

> <Idih>
0.000

> <Tether>
0.000

$$$$
VeraChem MOL file


 17 16  0  0  0  0  0  0  0  0999 V2000     
   20.8390   17.9619   23.5471 N   0  3  0  0  0  0  0  0  0  0  0  0
   20.8214   16.9525   23.3727 H   0  0  0  0  0  0  0  0  0  0  0  0
   20.0786   18.1671   24.2024 H   0  0  0  0  0  0  0  0  0  0  0  0
   21.7160   18.1624   24.0385 H   0  0  0  0  0  0  0  0  0  0  0  0
   20.7152   18.7619   22.2656 C   0  0  0  0  0  0  0  0  0  0  0  0
   21.5706   18.5167   21.6303 H   0  0  0  0  0  0  0  0  0  0  0  0
   20.7732   19.8222   22.5247 H   0  0  0  0  0  0  0  0  0  0  0  0
   19.4066   18.4844   21.5011 C   0  0  0  0  0  0  0  0  0  0  0  0
   19.3392   17.4107   21.2810 H   0  0  0  0  0  0  0  0  0  0  0  0
   18.5475   18.7291   22.1398 H   0  0  0  0  0  0  0  0  0  0  0  0
   19.3102   19.2767   20.1764 C   0  0  0  0  0  0  0  0  0  0  0  0
   18.3970   18.9740   19.6450 H   0  0  0  0  0  0  0  0  0  0  0  0
   20.1516   19.0080   19.5221 H   0  0  0  0  0  0  0  0  0  0  0  0
   19.2859   20.8079   20.3885 C   0  0  0  0  0  0  0  0  0  0  0  0
   18.4567   21.1027   21.0447 H   0  0  0  0  0  0  0  0  0  0  0  0
   19.1553   21.3272   19.4302 H   0  0  0  0  0  0  0  0  0  0  0  0
   20.2213   21.1682   20.8349 H   0  0  0  0  0  0  0  0  0  0  0  0
  1  2  1  0  0  0  0
  1  3  1  0  0  0  0
  1  4  1  0  0  0  0
  1  5  1  0  0  0  0
  5  6  1  0  0  0  0
  5  7  1  0  0  0  0
  5  8  1  0  0  0  0
  8  9  1  0  0  0  0
  8 10  1  0  0  0  0
  8 11  1  0  0  0  0
 11 12  1  0  0  0  0
 11 13  1  0  0  0  0
 11 14  1  0  0  0  0
 14 15  1  0  0  0  0
 14 16  1  0  0  0  0
 14 17  1  0  0  0  0
M  END
> <VConfSearch Rank>
500

> <Conf_Id>
36

> <Delta U+W>
0.275

> <U+W>
-15.590

> <U>
45.174

> <W>
-60.765

> <W(PB)>
-62.518

> <W(SA)>
1.754

> <Valence>
1.161

> <Coulomb>
43.789

> <VdW>
0.224

> <VdW6>
-2.897

> <VdW12>
3.121

> <Bond>
0.100

> <Angle>
0.500

> <Pdih>
0.561

> <Idih>
0.000

> <Tether>
0.000

$$$$
VeraChem MOL file


 17 16  0  0  0  0  0  0  0  0999 V2000     
   20.2220   17.7649   20.2302 N   0  3  0  0  0  0  0  0  0  0  0  0
   20.0428   17.2910   21.1192 H   0  0  0  0  0  0  0  0  0  0  0  0
   21.2345   17.7428   20.0757 H   0  0  0  0  0  0  0  0  0  0  0  0
   19.7962   17.1948   19.4923 H   0  0  0  0  0  0  0  0  0  0  0  0
   19.6828   19.1824   20.2301 C   0  0  0  0  0  0  0  0  0  0  0  0
   18.5948   19.1410   20.3297 H   0  0  0  0  0  0  0  0  0  0  0  0
   19.9163   19.6132   19.2526 H   0  0  0  0  0  0  0  0  0  0  0  0
   20.2742   20.0863   21.3322 C   0  0  0  0  0  0  0  0  0  0  0  0
   21.3604   19.9387   21.3963 H   0  0  0  0  0  0  0  0  0  0  0  0
   20.1299   21.1299   21.0226 H   0  0  0  0  0  0  0  0  0  0  0  0
   19.6227   19.9088   22.7274 C   0  0  0  0  0  0  0  0  0  0  0  0
   18.5462   20.1209   22.6624 H   0  0  0  0  0  0  0  0  0  0  0  0
   20.0414   20.6671   23.4039 H   0  0  0  0  0  0  0  0  0  0  0  0
   19.8355   18.5144   23.3593 C   0  0  0  0  0  0  0  0  0  0  0  0
   19.2596   17.7429   22.8350 H   0  0  0  0  0  0  0  0  0  0  0  0
   19.4978   18.5144   24.4039 H   0  0  0  0  0  0  0  0  0  0  0  0
   20.8962   18.2313   23.3524 H   0  0  0  0  0  0  0  0  0  0  0  0
  1  2  1  0  0  0  0
  1  3  1  0  0  0  0
  1  4  1  0  0  0  0
  1  5  1  0  0  0  0
  5  6  1  0  0  0  0
  5  7  1  0  0  0  0
  5  8  1  0  0  0  0
  8  9  1  0  0  0  0
  8 10  1  0  0  0  0
  8 11  1  0  0  0  0
 11 12  1  0  0  0  0
 11 13  1  0  0  0  0
 11 14  1  0  0  0  0
 14 15  1  0  0  0  0
 14 16  1  0  0  0  0
 14 17  1  0  0  0  0
M  END
> <VConfSearch Rank>
501

> <Conf_Id>
19

> <Delta U+W>
2.662

> <U+W>
-13.203

> <U>
47.423

> <W>
-60.626

> <W(PB)>
-62.328

> <W(SA)>
1.702

> <Valence>
2.414

> <Coulomb>
44.831

> <VdW>
0.178

> <VdW6>
-3.743

> <VdW12>
3.921

> <Bond>
0.138

> <Angle>
0.941

> <Pdih>
1.335

> <Idih>
0.000

> <Tether>
0.000

$$$$
VeraChem MOL file


 17 16  0  0  0  0  0  0  0  0999 V2000     
   18.9744   18.7744   20.0030 N   0  3  0  0  0  0  0  0  0  0  0  0
   18.9921   18.8672   18.9823 H   0  0  0  0  0  0  0  0  0  0  0  0
   18.0143   18.5284   20.2624 H   0  0  0  0  0  0  0  0  0  0  0  0
   19.5655   17.9747   20.2438 H   0  0  0  0  0  0  0  0  0  0  0  0
   19.4369   20.0433   20.6930 C   0  0  0  0  0  0  0  0  0  0  0  0
   18.7555   20.8412   20.3852 H   0  0  0  0  0  0  0  0  0  0  0  0
   20.4366   20.2934   20.3280 H   0  0  0  0  0  0  0  0  0  0  0  0
   19.4493   19.9592   22.2339 C   0  0  0  0  0  0  0  0  0  0  0  0
   19.4185   20.9847   22.6255 H   0  0  0  0  0  0  0  0  0  0  0  0
   18.5318   19.4729   22.5909 H   0  0  0  0  0  0  0  0  0  0  0  0
   20.6974   19.2590   22.8293 C   0  0  0  0  0  0  0  0  0  0  0  0
   20.6549   19.3481   23.9240 H   0  0  0  0  0  0  0  0  0  0  0  0
   21.6055   19.7932   22.5161 H   0  0  0  0  0  0  0  0  0  0  0  0
   20.8272   17.7633   22.4620 C   0  0  0  0  0  0  0  0  0  0  0  0
   19.8985   17.2184   22.6756 H   0  0  0  0  0  0  0  0  0  0  0  0
   21.6296   17.2959   23.0476 H   0  0  0  0  0  0  0  0  0  0  0  0
   21.0811   17.6294   21.4041 H   0  0  0  0  0  0  0  0  0  0  0  0
  1  2  1  0  0  0  0
  1  3  1  0  0  0  0
  1  4  1  0  0  0  0
  1  5  1  0  0  0  0
  5  6  1  0  0  0  0
  5  7  1  0  0  0  0
  5  8  1  0  0  0  0
  8  9  1  0  0  0  0
  8 10  1  0  0  0  0
  8 11  1  0  0  0  0
 11 12  1  0  0  0  0
 11 13  1  0  0  0  0
 11 14  1  0  0  0  0
 14 15  1  0  0  0  0
 14 16  1  0  0  0  0
 14 17  1  0  0  0  0
M  END
> <VConfSearch Rank>
502

> <Conf_Id>
44

> <Delta U+W>
2.712

> <U+W>
-13.153

> <U>
47.423

> <W>
-60.576

> <W(PB)>
-62.262

> <W(SA)>
1.687

> <Valence>
2.414

> <Coulomb>
44.831

> <VdW>
0.178

> <VdW6>
-3.743

> <VdW12>
3.922

> <Bond>
0.138

> <Angle>
0.941

> <Pdih>
1.335

> <Idih>
0.000

> <Tether>
0.000

$$$$
VeraChem MOL file


 17 16  0  0  0  0  0  0  0  0999 V2000     
   18.9929   20.6274   20.8476 N   0  3  0  0  0  0  0  0  0  0  0  0
   18.7541   20.5824   21.8423 H   0  0  0  0  0  0  0  0  0  0  0  0
   18.1546   20.3607   20.3226 H   0  0  0  0  0  0  0  0  0  0  0  0
   19.1805   21.6111   20.6291 H   0  0  0  0  0  0  0  0  0  0  0  0
   20.1761   19.7397   20.5132 C   0  0  0  0  0  0  0  0  0  0  0  0
   21.0390   20.0956   21.0820 H   0  0  0  0  0  0  0  0  0  0  0  0
   20.3971   19.8660   19.4498 H   0  0  0  0  0  0  0  0  0  0  0  0
   19.9372   18.2450   20.8112 C   0  0  0  0  0  0  0  0  0  0  0  0
   19.0946   17.8869   20.2050 H   0  0  0  0  0  0  0  0  0  0  0  0
   20.8159   17.6760   20.4797 H   0  0  0  0  0  0  0  0  0  0  0  0
   19.6640   17.9361   22.3044 C   0  0  0  0  0  0  0  0  0  0  0  0
   19.4925   16.8564   22.4166 H   0  0  0  0  0  0  0  0  0  0  0  0
   18.7352   18.4257   22.6275 H   0  0  0  0  0  0  0  0  0  0  0  0
   20.8256   18.3592   23.2325 C   0  0  0  0  0  0  0  0  0  0  0  0
   21.7665   17.8813   22.9301 H   0  0  0  0  0  0  0  0  0  0  0  0
   20.6179   18.0629   24.2689 H   0  0  0  0  0  0  0  0  0  0  0  0
   20.9751   19.4462   23.2229 H   0  0  0  0  0  0  0  0  0  0  0  0
  1  2  1  0  0  0  0
  1  3  1  0  0  0  0
  1  4  1  0  0  0  0
  1  5  1  0  0  0  0
  5  6  1  0  0  0  0
  5  7  1  0  0  0  0
  5  8  1  0  0  0  0
  8  9  1  0  0  0  0
  8 10  1  0  0  0  0
  8 11  1  0  0  0  0
 11 12  1  0  0  0  0
 11 13  1  0  0  0  0
 11 14  1  0  0  0  0
 14 15  1  0  0  0  0
 14 16  1  0  0  0  0
 14 17  1  0  0  0  0
M  END
> <VConfSearch Rank>
503

> <Conf_Id>
1

> <Delta U+W>
0.685

> <U+W>
-15.179

> <U>
45.697

> <W>
-60.876

> <W(PB)>
-62.586

> <W(SA)>
1.710

> <Valence>
1.263

> <Coulomb>
44.179

> <VdW>
0.255

> <VdW6>
-3.552

> <VdW12>
3.807

> <Bond>
0.125

> <Angle>
0.616

> <Pdih>
0.521

> <Idih>
0.000

> <Tether>
0.000

$$$$
VeraChem MOL file


 17 16  0  0  0  0  0  0  0  0999 V2000     
   18.2016   20.0107   21.4944 N   0  3  0  0  0  0  0  0  0  0  0  0
   17.7136   20.0106   22.3951 H   0  0  0  0  0  0  0  0  0  0  0  0
   18.0514   19.0916   21.0687 H   0  0  0  0  0  0  0  0  0  0  0  0
   17.7274   20.6973   20.8991 H   0  0  0  0  0  0  0  0  0  0  0  0
   19.6773   20.3232   21.6506 C   0  0  0  0  0  0  0  0  0  0  0  0
   19.7620   21.3280   22.0733 H   0  0  0  0  0  0  0  0  0  0  0  0
   20.1287   20.3364   20.6551 H   0  0  0  0  0  0  0  0  0  0  0  0
   20.4334   19.3248   22.5514 C   0  0  0  0  0  0  0  0  0  0  0  0
   21.4721   19.6648   22.6580 H   0  0  0  0  0  0  0  0  0  0  0  0
   19.9990   19.3487   23.5596 H   0  0  0  0  0  0  0  0  0  0  0  0
   20.4259   17.8687   22.0229 C   0  0  0  0  0  0  0  0  0  0  0  0
   19.3982   17.4815   21.9974 H   0  0  0  0  0  0  0  0  0  0  0  0
   20.9722   17.2319   22.7327 H   0  0  0  0  0  0  0  0  0  0  0  0
   21.0697   17.7289   20.6244 C   0  0  0  0  0  0  0  0  0  0  0  0
   21.1017   16.6750   20.3189 H   0  0  0  0  0  0  0  0  0  0  0  0
   22.0996   18.1088   20.6243 H   0  0  0  0  0  0  0  0  0  0  0  0
   20.5023   18.2772   19.8618 H   0  0  0  0  0  0  0  0  0  0  0  0
  1  2  1  0  0  0  0
  1  3  1  0  0  0  0
  1  4  1  0  0  0  0
  1  5  1  0  0  0  0
  5  6  1  0  0  0  0
  5  7  1  0  0  0  0
  5  8  1  0  0  0  0
  8  9  1  0  0  0  0
  8 10  1  0  0  0  0
  8 11  1  0  0  0  0
 11 12  1  0  0  0  0
 11 13  1  0  0  0  0
 11 14  1  0  0  0  0
 14 15  1  0  0  0  0
 14 16  1  0  0  0  0
 14 17  1  0  0  0  0
M  END
> <VConfSearch Rank>
504

> <Conf_Id>
43

> <Delta U+W>
0.642

> <U+W>
-15.222

> <U>
45.697

> <W>
-60.919

> <W(PB)>
-62.631

> <W(SA)>
1.712

> <Valence>
1.262

> <Coulomb>
44.179

> <VdW>
0.255

> <VdW6>
-3.552

> <VdW12>
3.807

> <Bond>
0.125

> <Angle>
0.616

> <Pdih>
0.521

> <Idih>
0.000

> <Tether>
0.000

$$$$
VeraChem MOL file


 17 16  0  0  0  0  0  0  0  0999 V2000     
   22.4621   19.0466   22.1584 N   0  3  0  0  0  0  0  0  0  0  0  0
   22.3764   18.8076   23.1509 H   0  0  0  0  0  0  0  0  0  0  0  0
   22.6157   20.0582   22.1049 H   0  0  0  0  0  0  0  0  0  0  0  0
   23.3193   18.5985   21.8187 H   0  0  0  0  0  0  0  0  0  0  0  0
   21.2467   18.6138   21.3629 C   0  0  0  0  0  0  0  0  0  0  0  0
   21.1629   17.5263   21.4393 H   0  0  0  0  0  0  0  0  0  0  0  0
   21.4203   18.8710   20.3145 H   0  0  0  0  0  0  0  0  0  0  0  0
   19.9401   19.2687   21.8469 C   0  0  0  0  0  0  0  0  0  0  0  0
   19.7771   19.0209   22.9042 H   0  0  0  0  0  0  0  0  0  0  0  0
   20.0335   20.3610   21.7831 H   0  0  0  0  0  0  0  0  0  0  0  0
   18.7283   18.8013   21.0111 C   0  0  0  0  0  0  0  0  0  0  0  0
   18.6362   17.7076   21.0718 H   0  0  0  0  0  0  0  0  0  0  0  0
   18.8923   19.0462   19.9521 H   0  0  0  0  0  0  0  0  0  0  0  0
   17.4139   19.4541   21.4909 C   0  0  0  0  0  0  0  0  0  0  0  0
   16.5659   19.1094   20.8850 H   0  0  0  0  0  0  0  0  0  0  0  0
   17.4629   20.5478   21.4093 H   0  0  0  0  0  0  0  0  0  0  0  0
   17.2048   19.1987   22.5379 H   0  0  0  0  0  0  0  0  0  0  0  0
  1  2  1  0  0  0  0
  1  3  1  0  0  0  0
  1  4  1  0  0  0  0
  1  5  1  0  0  0  0
  5  6  1  0  0  0  0
  5  7  1  0  0  0  0
  5  8  1  0  0  0  0
  8  9  1  0  0  0  0
  8 10  1  0  0  0  0
  8 11  1  0  0  0  0
 11 12  1  0  0  0  0
 11 13  1  0  0  0  0
 11 14  1  0  0  0  0
 14 15  1  0  0  0  0
 14 16  1  0  0  0  0
 14 17  1  0  0  0  0
M  END
> <VConfSearch Rank>
505

> <Conf_Id>
7

> <Delta U+W>
0.000

> <U+W>
-15.865

> <U>
44.664

> <W>
-60.529

> <W(PB)>
-62.309

> <W(SA)>
1.780

> <Valence>
0.872

> <Coulomb>
43.648

> <VdW>
0.144

> <VdW6>
-2.370

> <VdW12>
2.515

> <Bond>
0.080

> <Angle>
0.376

> <Pdih>
0.416

> <Idih>
0.000

> <Tether>
0.000

$$$$
VeraChem MOL file


 17 16  0  0  0  0  0  0  0  0999 V2000     
   19.8348   16.7510   21.0552 N   0  3  0  0  0  0  0  0  0  0  0  0
   20.7909   16.3858   21.0089 H   0  0  0  0  0  0  0  0  0  0  0  0
   19.5047   16.8526   20.0906 H   0  0  0  0  0  0  0  0  0  0  0  0
   19.2600   16.0220   21.4899 H   0  0  0  0  0  0  0  0  0  0  0  0
   19.7622   18.0572   21.8206 C   0  0  0  0  0  0  0  0  0  0  0  0
   20.0988   17.8686   22.8436 H   0  0  0  0  0  0  0  0  0  0  0  0
   18.7149   18.3681   21.8559 H   0  0  0  0  0  0  0  0  0  0  0  0
   20.6156   19.1763   21.1932 C   0  0  0  0  0  0  0  0  0  0  0  0
   21.6583   18.8386   21.1257 H   0  0  0  0  0  0  0  0  0  0  0  0
   20.2787   19.3645   20.1652 H   0  0  0  0  0  0  0  0  0  0  0  0
   20.5642   20.4918   22.0049 C   0  0  0  0  0  0  0  0  0  0  0  0
   21.2530   21.2182   21.5513 H   0  0  0  0  0  0  0  0  0  0  0  0
   20.9326   20.3122   23.0248 H   0  0  0  0  0  0  0  0  0  0  0  0
   19.1483   21.1094   22.0656 C   0  0  0  0  0  0  0  0  0  0  0  0
   18.7540   21.2934   21.0577 H   0  0  0  0  0  0  0  0  0  0  0  0
   19.1697   22.0697   22.5970 H   0  0  0  0  0  0  0  0  0  0  0  0
   18.4447   20.4544   22.5947 H   0  0  0  0  0  0  0  0  0  0  0  0
  1  2  1  0  0  0  0
  1  3  1  0  0  0  0
  1  4  1  0  0  0  0
  1  5  1  0  0  0  0
  5  6  1  0  0  0  0
  5  7  1  0  0  0  0
  5  8  1  0  0  0  0
  8  9  1  0  0  0  0
  8 10  1  0  0  0  0
  8 11  1  0  0  0  0
 11 12  1  0  0  0  0
 11 13  1  0  0  0  0
 11 14  1  0  0  0  0
 14 15  1  0  0  0  0
 14 16  1  0  0  0  0
 14 17  1  0  0  0  0
M  END
> <VConfSearch Rank>
506

> <Conf_Id>
36

> <Delta U+W>
0.275

> <U+W>
-15.590

> <U>
45.174

> <W>
-60.765

> <W(PB)>
-62.518

> <W(SA)>
1.754

> <Valence>
1.161

> <Coulomb>
43.789

> <VdW>
0.224

> <VdW6>
-2.897

> <VdW12>
3.121

> <Bond>
0.100

> <Angle>
0.500

> <Pdih>
0.561

> <Idih>
0.000

> <Tether>
0.000

$$$$
VeraChem MOL file


 17 16  0  0  0  0  0  0  0  0999 V2000     
   19.5847   17.9612   23.1105 N   0  3  0  0  0  0  0  0  0  0  0  0
   18.7222   18.3288   22.7007 H   0  0  0  0  0  0  0  0  0  0  0  0
   19.8122   18.5533   23.9150 H   0  0  0  0  0  0  0  0  0  0  0  0
   19.3712   17.0287   23.4786 H   0  0  0  0  0  0  0  0  0  0  0  0
   20.7156   17.9238   22.1007 C   0  0  0  0  0  0  0  0  0  0  0  0
   20.4465   17.2270   21.3023 H   0  0  0  0  0  0  0  0  0  0  0  0
   21.5923   17.5236   22.6171 H   0  0  0  0  0  0  0  0  0  0  0  0
   21.0721   19.2983   21.4962 C   0  0  0  0  0  0  0  0  0  0  0  0
   21.0999   20.0603   22.2863 H   0  0  0  0  0  0  0  0  0  0  0  0
   22.0952   19.2356   21.1022 H   0  0  0  0  0  0  0  0  0  0  0  0
   20.1437   19.7528   20.3412 C   0  0  0  0  0  0  0  0  0  0  0  0
   20.1737   19.0123   19.5296 H   0  0  0  0  0  0  0  0  0  0  0  0
   20.5476   20.6834   19.9184 H   0  0  0  0  0  0  0  0  0  0  0  0
   18.6763   19.9988   20.7599 C   0  0  0  0  0  0  0  0  0  0  0  0
   18.1618   19.0595   20.9937 H   0  0  0  0  0  0  0  0  0  0  0  0
   18.1216   20.4747   19.9408 H   0  0  0  0  0  0  0  0  0  0  0  0
   18.6166   20.6626   21.6322 H   0  0  0  0  0  0  0  0  0  0  0  0
  1  2  1  0  0  0  0
  1  3  1  0  0  0  0
  1  4  1  0  0  0  0
  1  5  1  0  0  0  0
  5  6  1  0  0  0  0
  5  7  1  0  0  0  0
  5  8  1  0  0  0  0
  8  9  1  0  0  0  0
  8 10  1  0  0  0  0
  8 11  1  0  0  0  0
 11 12  1  0  0  0  0
 11 13  1  0  0  0  0
 11 14  1  0  0  0  0
 14 15  1  0  0  0  0
 14 16  1  0  0  0  0
 14 17  1  0  0  0  0
M  END
> <VConfSearch Rank>
507

> <Conf_Id>
19

> <Delta U+W>
2.662

> <U+W>
-13.203

> <U>
47.423

> <W>
-60.626

> <W(PB)>
-62.328

> <W(SA)>
1.702

> <Valence>
2.414

> <Coulomb>
44.831

> <VdW>
0.178

> <VdW6>
-3.743

> <VdW12>
3.921

> <Bond>
0.138

> <Angle>
0.941

> <Pdih>
1.335

> <Idih>
0.000

> <Tether>
0.000

$$$$
VeraChem MOL file


 17 16  0  0  0  0  0  0  0  0999 V2000     
   20.0142   19.0438   19.7465 N   0  3  0  0  0  0  0  0  0  0  0  0
   19.6086   18.7160   18.8639 H   0  0  0  0  0  0  0  0  0  0  0  0
   20.9409   19.4205   19.5258 H   0  0  0  0  0  0  0  0  0  0  0  0
   19.4404   19.8267   20.0701 H   0  0  0  0  0  0  0  0  0  0  0  0
   20.0876   17.9358   20.7795 C   0  0  0  0  0  0  0  0  0  0  0  0
   20.7159   17.1466   20.3578 H   0  0  0  0  0  0  0  0  0  0  0  0
   19.0838   17.5275   20.9240 H   0  0  0  0  0  0  0  0  0  0  0  0
   20.6742   18.3732   22.1383 C   0  0  0  0  0  0  0  0  0  0  0  0
   21.0324   17.4723   22.6540 H   0  0  0  0  0  0  0  0  0  0  0  0
   21.5603   19.0019   21.9800 H   0  0  0  0  0  0  0  0  0  0  0  0
   19.6658   19.0883   23.0734 C   0  0  0  0  0  0  0  0  0  0  0  0
   20.1541   19.2589   24.0431 H   0  0  0  0  0  0  0  0  0  0  0  0
   18.8136   18.4241   23.2751 H   0  0  0  0  0  0  0  0  0  0  0  0
   19.1477   20.4426   22.5383 C   0  0  0  0  0  0  0  0  0  0  0  0
   19.9771   21.0960   22.2375 H   0  0  0  0  0  0  0  0  0  0  0  0
   18.5770   20.9660   23.3165 H   0  0  0  0  0  0  0  0  0  0  0  0
   18.4757   20.3068   21.6830 H   0  0  0  0  0  0  0  0  0  0  0  0
  1  2  1  0  0  0  0
  1  3  1  0  0  0  0
  1  4  1  0  0  0  0
  1  5  1  0  0  0  0
  5  6  1  0  0  0  0
  5  7  1  0  0  0  0
  5  8  1  0  0  0  0
  8  9  1  0  0  0  0
  8 10  1  0  0  0  0
  8 11  1  0  0  0  0
 11 12  1  0  0  0  0
 11 13  1  0  0  0  0
 11 14  1  0  0  0  0
 14 15  1  0  0  0  0
 14 16  1  0  0  0  0
 14 17  1  0  0  0  0
M  END
> <VConfSearch Rank>
508

> <Conf_Id>
44

> <Delta U+W>
2.712

> <U+W>
-13.153

> <U>
47.423

> <W>
-60.576

> <W(PB)>
-62.262

> <W(SA)>
1.687

> <Valence>
2.414

> <Coulomb>
44.831

> <VdW>
0.178

> <VdW6>
-3.743

> <VdW12>
3.922

> <Bond>
0.138

> <Angle>
0.941

> <Pdih>
1.335

> <Idih>
0.000

> <Tether>
0.000

$$$$
VeraChem MOL file


 17 16  0  0  0  0  0  0  0  0999 V2000     
   20.2170   19.2139   19.6431 N   0  3  0  0  0  0  0  0  0  0  0  0
   20.6165   18.3155   19.9292 H   0  0  0  0  0  0  0  0  0  0  0  0
   20.9998   19.8415   19.4367 H   0  0  0  0  0  0  0  0  0  0  0  0
   19.7229   19.0537   18.7594 H   0  0  0  0  0  0  0  0  0  0  0  0
   19.2992   19.7849   20.7068 C   0  0  0  0  0  0  0  0  0  0  0  0
   18.4747   19.0831   20.8562 H   0  0  0  0  0  0  0  0  0  0  0  0
   18.8822   20.7189   20.3203 H   0  0  0  0  0  0  0  0  0  0  0  0
   20.0008   20.0576   22.0535 C   0  0  0  0  0  0  0  0  0  0  0  0
   20.8008   20.7940   21.9005 H   0  0  0  0  0  0  0  0  0  0  0  0
   19.2800   20.5267   22.7363 H   0  0  0  0  0  0  0  0  0  0  0  0
   20.5890   18.7917   22.7251 C   0  0  0  0  0  0  0  0  0  0  0  0
   21.0780   19.0846   23.6647 H   0  0  0  0  0  0  0  0  0  0  0  0
   21.3784   18.3616   22.0939 H   0  0  0  0  0  0  0  0  0  0  0  0
   19.5213   17.7158   23.0288 C   0  0  0  0  0  0  0  0  0  0  0  0
   18.7204   18.1219   23.6604 H   0  0  0  0  0  0  0  0  0  0  0  0
   19.9701   16.8676   23.5618 H   0  0  0  0  0  0  0  0  0  0  0  0
   19.0676   17.3259   22.1090 H   0  0  0  0  0  0  0  0  0  0  0  0
  1  2  1  0  0  0  0
  1  3  1  0  0  0  0
  1  4  1  0  0  0  0
  1  5  1  0  0  0  0
  5  6  1  0  0  0  0
  5  7  1  0  0  0  0
  5  8  1  0  0  0  0
  8  9  1  0  0  0  0
  8 10  1  0  0  0  0
  8 11  1  0  0  0  0
 11 12  1  0  0  0  0
 11 13  1  0  0  0  0
 11 14  1  0  0  0  0
 14 15  1  0  0  0  0
 14 16  1  0  0  0  0
 14 17  1  0  0  0  0
M  END
> <VConfSearch Rank>
509

> <Conf_Id>
1

> <Delta U+W>
0.685

> <U+W>
-15.179

> <U>
45.697

> <W>
-60.876

> <W(PB)>
-62.586

> <W(SA)>
1.710

> <Valence>
1.263

> <Coulomb>
44.179

> <VdW>
0.255

> <VdW6>
-3.552

> <VdW12>
3.807

> <Bond>
0.125

> <Angle>
0.616

> <Pdih>
0.521

> <Idih>
0.000

> <Tether>
0.000

$$$$
VeraChem MOL file


 17 16  0  0  0  0  0  0  0  0999 V2000     
   17.9612   18.8976   21.3372 N   0  3  0  0  0  0  0  0  0  0  0  0
   17.5085   18.4190   22.1217 H   0  0  0  0  0  0  0  0  0  0  0  0
   18.3922   18.1771   20.7511 H   0  0  0  0  0  0  0  0  0  0  0  0
   17.2156   19.3288   20.7815 H   0  0  0  0  0  0  0  0  0  0  0  0
   18.9769   19.9204   21.8084 C   0  0  0  0  0  0  0  0  0  0  0  0
   18.4433   20.6746   22.3932 H   0  0  0  0  0  0  0  0  0  0  0  0
   19.3978   20.4117   20.9273 H   0  0  0  0  0  0  0  0  0  0  0  0
   20.1133   19.3216   22.6628 C   0  0  0  0  0  0  0  0  0  0  0  0
   20.7594   20.1387   23.0102 H   0  0  0  0  0  0  0  0  0  0  0  0
   19.6842   18.8664   23.5652 H   0  0  0  0  0  0  0  0  0  0  0  0
   20.9755   18.2721   21.9179 C   0  0  0  0  0  0  0  0  0  0  0  0
   20.3606   17.4042   21.6438 H   0  0  0  0  0  0  0  0  0  0  0  0
   21.7445   17.8936   22.6058 H   0  0  0  0  0  0  0  0  0  0  0  0
   21.6657   18.8404   20.6568 C   0  0  0  0  0  0  0  0  0  0  0  0
   22.3157   18.0833   20.1994 H   0  0  0  0  0  0  0  0  0  0  0  0
   22.2882   19.7098   20.9055 H   0  0  0  0  0  0  0  0  0  0  0  0
   20.9336   19.1488   19.8999 H   0  0  0  0  0  0  0  0  0  0  0  0
  1  2  1  0  0  0  0
  1  3  1  0  0  0  0
  1  4  1  0  0  0  0
  1  5  1  0  0  0  0
  5  6  1  0  0  0  0
  5  7  1  0  0  0  0
  5  8  1  0  0  0  0
  8  9  1  0  0  0  0
  8 10  1  0  0  0  0
  8 11  1  0  0  0  0
 11 12  1  0  0  0  0
 11 13  1  0  0  0  0
 11 14  1  0  0  0  0
 14 15  1  0  0  0  0
 14 16  1  0  0  0  0
 14 17  1  0  0  0  0
M  END
> <VConfSearch Rank>
510

> <Conf_Id>
43

> <Delta U+W>
0.642

> <U+W>
-15.222

> <U>
45.697

> <W>
-60.919

> <W(PB)>
-62.631

> <W(SA)>
1.712

> <Valence>
1.262

> <Coulomb>
44.179

> <VdW>
0.255

> <VdW6>
-3.552

> <VdW12>
3.807

> <Bond>
0.125

> <Angle>
0.616

> <Pdih>
0.521

> <Idih>
0.000

> <Tether>
0.000

$$$$
VeraChem MOL file


 17 16  0  0  0  0  0  0  0  0999 V2000     
   17.8917   17.6921   20.9308 N   0  3  0  0  0  0  0  0  0  0  0  0
   17.7388   17.2315   21.8331 H   0  0  0  0  0  0  0  0  0  0  0  0
   18.3707   17.0177   20.3263 H   0  0  0  0  0  0  0  0  0  0  0  0
   16.9665   17.8533   20.5199 H   0  0  0  0  0  0  0  0  0  0  0  0
   18.6759   18.9809   21.0768 C   0  0  0  0  0  0  0  0  0  0  0  0
   18.0942   19.6607   21.7053 H   0  0  0  0  0  0  0  0  0  0  0  0
   18.7737   19.4308   20.0850 H   0  0  0  0  0  0  0  0  0  0  0  0
   20.0723   18.7752   21.6916 C   0  0  0  0  0  0  0  0  0  0  0  0
   19.9709   18.3091   22.6808 H   0  0  0  0  0  0  0  0  0  0  0  0
   20.6481   18.0801   21.0660 H   0  0  0  0  0  0  0  0  0  0  0  0
   20.8365   20.1110   21.8226 C   0  0  0  0  0  0  0  0  0  0  0  0
   20.2590   20.8083   22.4460 H   0  0  0  0  0  0  0  0  0  0  0  0
   20.9355   20.5796   20.8332 H   0  0  0  0  0  0  0  0  0  0  0  0
   22.2383   19.9124   22.4387 C   0  0  0  0  0  0  0  0  0  0  0  0
   22.7643   20.8722   22.5232 H   0  0  0  0  0  0  0  0  0  0  0  0
   22.8520   19.2462   21.8185 H   0  0  0  0  0  0  0  0  0  0  0  0
   22.1702   19.4767   23.4440 H   0  0  0  0  0  0  0  0  0  0  0  0
  1  2  1  0  0  0  0
  1  3  1  0  0  0  0
  1  4  1  0  0  0  0
  1  5  1  0  0  0  0
  5  6  1  0  0  0  0
  5  7  1  0  0  0  0
  5  8  1  0  0  0  0
  8  9  1  0  0  0  0
  8 10  1  0  0  0  0
  8 11  1  0  0  0  0
 11 12  1  0  0  0  0
 11 13  1  0  0  0  0
 11 14  1  0  0  0  0
 14 15  1  0  0  0  0
 14 16  1  0  0  0  0
 14 17  1  0  0  0  0
M  END
> <VConfSearch Rank>
511

> <Conf_Id>
7

> <Delta U+W>
0.000

> <U+W>
-15.865

> <U>
44.664

> <W>
-60.529

> <W(PB)>
-62.309

> <W(SA)>
1.780

> <Valence>
0.872

> <Coulomb>
43.648

> <VdW>
0.144

> <VdW6>
-2.370

> <VdW12>
2.515

> <Bond>
0.080

> <Angle>
0.376

> <Pdih>
0.416

> <Idih>
0.000

> <Tether>
0.000

$$$$
VeraChem MOL file


 17 16  0  0  0  0  0  0  0  0999 V2000     
   21.0500   21.0212   20.6909 N   0  3  0  0  0  0  0  0  0  0  0  0
   20.4138   21.8233   20.7315 H   0  0  0  0  0  0  0  0  0  0  0  0
   21.0785   20.7091   19.7154 H   0  0  0  0  0  0  0  0  0  0  0  0
   21.9858   21.3737   20.9167 H   0  0  0  0  0  0  0  0  0  0  0  0
   20.6241   19.9105   21.6301 C   0  0  0  0  0  0  0  0  0  0  0  0
   20.6453   20.3036   22.6500 H   0  0  0  0  0  0  0  0  0  0  0  0
   21.3619   19.1073   21.5567 H   0  0  0  0  0  0  0  0  0  0  0  0
   19.2204   19.3569   21.3180 C   0  0  0  0  0  0  0  0  0  0  0  0
   18.4931   20.1788   21.3550 H   0  0  0  0  0  0  0  0  0  0  0  0
   19.1987   18.9636   20.2930 H   0  0  0  0  0  0  0  0  0  0  0  0
   18.7817   18.2518   22.3070 C   0  0  0  0  0  0  0  0  0  0  0  0
   17.7470   17.9592   22.0792 H   0  0  0  0  0  0  0  0  0  0  0  0
   18.7708   18.6534   23.3301 H   0  0  0  0  0  0  0  0  0  0  0  0
   19.6841   16.9978   22.2511 C   0  0  0  0  0  0  0  0  0  0  0  0
   19.7171   16.5797   21.2365 H   0  0  0  0  0  0  0  0  0  0  0  0
   19.3014   16.2179   22.9221 H   0  0  0  0  0  0  0  0  0  0  0  0
   20.7116   17.2260   22.5614 H   0  0  0  0  0  0  0  0  0  0  0  0
  1  2  1  0  0  0  0
  1  3  1  0  0  0  0
  1  4  1  0  0  0  0
  1  5  1  0  0  0  0
  5  6  1  0  0  0  0
  5  7  1  0  0  0  0
  5  8  1  0  0  0  0
  8  9  1  0  0  0  0
  8 10  1  0  0  0  0
  8 11  1  0  0  0  0
 11 12  1  0  0  0  0
 11 13  1  0  0  0  0
 11 14  1  0  0  0  0
 14 15  1  0  0  0  0
 14 16  1  0  0  0  0
 14 17  1  0  0  0  0
M  END
> <VConfSearch Rank>
512

> <Conf_Id>
36

> <Delta U+W>
0.275

> <U+W>
-15.590

> <U>
45.174

> <W>
-60.765

> <W(PB)>
-62.518

> <W(SA)>
1.754

> <Valence>
1.161

> <Coulomb>
43.789

> <VdW>
0.224

> <VdW6>
-2.897

> <VdW12>
3.121

> <Bond>
0.100

> <Angle>
0.500

> <Pdih>
0.561

> <Idih>
0.000

> <Tether>
0.000

$$$$
VeraChem MOL file


 17 16  0  0  0  0  0  0  0  0999 V2000     
   18.3522   18.0605   21.3184 N   0  3  0  0  0  0  0  0  0  0  0  0
   18.8818   17.6613   22.0976 H   0  0  0  0  0  0  0  0  0  0  0  0
   18.5162   17.4610   20.5041 H   0  0  0  0  0  0  0  0  0  0  0  0
   17.3581   17.9767   21.5539 H   0  0  0  0  0  0  0  0  0  0  0  0
   18.7486   19.4992   21.0479 C   0  0  0  0  0  0  0  0  0  0  0  0
   18.4890   20.1021   21.9223 H   0  0  0  0  0  0  0  0  0  0  0  0
   18.1418   19.8453   20.2068 H   0  0  0  0  0  0  0  0  0  0  0  0
   20.2407   19.6924   20.7045 C   0  0  0  0  0  0  0  0  0  0  0  0
   20.5670   18.9172   19.9986 H   0  0  0  0  0  0  0  0  0  0  0  0
   20.3406   20.6469   20.1709 H   0  0  0  0  0  0  0  0  0  0  0  0
   21.1832   19.7330   21.9344 C   0  0  0  0  0  0  0  0  0  0  0  0
   20.8845   20.5534   22.6020 H   0  0  0  0  0  0  0  0  0  0  0  0
   22.1963   19.9786   21.5860 H   0  0  0  0  0  0  0  0  0  0  0  0
   21.2450   18.4131   22.7361 C   0  0  0  0  0  0  0  0  0  0  0  0
   20.3111   18.2284   23.2796 H   0  0  0  0  0  0  0  0  0  0  0  0
   22.0486   18.4585   23.4826 H   0  0  0  0  0  0  0  0  0  0  0  0
   21.4486   17.5571   22.0796 H   0  0  0  0  0  0  0  0  0  0  0  0
  1  2  1  0  0  0  0
  1  3  1  0  0  0  0
  1  4  1  0  0  0  0
  1  5  1  0  0  0  0
  5  6  1  0  0  0  0
  5  7  1  0  0  0  0
  5  8  1  0  0  0  0
  8  9  1  0  0  0  0
  8 10  1  0  0  0  0
  8 11  1  0  0  0  0
 11 12  1  0  0  0  0
 11 13  1  0  0  0  0
 11 14  1  0  0  0  0
 14 15  1  0  0  0  0
 14 16  1  0  0  0  0
 14 17  1  0  0  0  0
M  END
> <VConfSearch Rank>
513

> <Conf_Id>
19

> <Delta U+W>
2.662

> <U+W>
-13.203

> <U>
47.423

> <W>
-60.626

> <W(PB)>
-62.328

> <W(SA)>
1.702

> <Valence>
2.414

> <Coulomb>
44.831

> <VdW>
0.178

> <VdW6>
-3.743

> <VdW12>
3.921

> <Bond>
0.138

> <Angle>
0.941

> <Pdih>
1.335

> <Idih>
0.000

> <Tether>
0.000

$$$$
VeraChem MOL file


 17 16  0  0  0  0  0  0  0  0999 V2000     
   20.1504   20.8379   22.0766 N   0  3  0  0  0  0  0  0  0  0  0  0
   19.7359   21.6898   22.4682 H   0  0  0  0  0  0  0  0  0  0  0  0
   21.0530   21.1054   21.6726 H   0  0  0  0  0  0  0  0  0  0  0  0
   20.3458   20.2095   22.8600 H   0  0  0  0  0  0  0  0  0  0  0  0
   19.2428   20.1899   21.0488 C   0  0  0  0  0  0  0  0  0  0  0  0
   19.0879   20.9224   20.2519 H   0  0  0  0  0  0  0  0  0  0  0  0
   18.2750   19.9895   21.5162 H   0  0  0  0  0  0  0  0  0  0  0  0
   19.8056   18.8906   20.4350 C   0  0  0  0  0  0  0  0  0  0  0  0
   19.2929   18.7227   19.4785 H   0  0  0  0  0  0  0  0  0  0  0  0
   20.8676   19.0209   20.1885 H   0  0  0  0  0  0  0  0  0  0  0  0
   19.6063   17.6272   21.3106 C   0  0  0  0  0  0  0  0  0  0  0  0
   19.9446   16.7523   20.7378 H   0  0  0  0  0  0  0  0  0  0  0  0
   18.5343   17.4722   21.4972 H   0  0  0  0  0  0  0  0  0  0  0  0
   20.3644   17.6569   22.6572 C   0  0  0  0  0  0  0  0  0  0  0  0
   21.4241   17.9044   22.5127 H   0  0  0  0  0  0  0  0  0  0  0  0
   20.3154   16.6738   23.1432 H   0  0  0  0  0  0  0  0  0  0  0  0
   19.9230   18.3813   23.3515 H   0  0  0  0  0  0  0  0  0  0  0  0
  1  2  1  0  0  0  0
  1  3  1  0  0  0  0
  1  4  1  0  0  0  0
  1  5  1  0  0  0  0
  5  6  1  0  0  0  0
  5  7  1  0  0  0  0
  5  8  1  0  0  0  0
  8  9  1  0  0  0  0
  8 10  1  0  0  0  0
  8 11  1  0  0  0  0
 11 12  1  0  0  0  0
 11 13  1  0  0  0  0
 11 14  1  0  0  0  0
 14 15  1  0  0  0  0
 14 16  1  0  0  0  0
 14 17  1  0  0  0  0
M  END
> <VConfSearch Rank>
514

> <Conf_Id>
44

> <Delta U+W>
2.712

> <U+W>
-13.153

> <U>
47.423

> <W>
-60.576

> <W(PB)>
-62.262

> <W(SA)>
1.687

> <Valence>
2.414

> <Coulomb>
44.831

> <VdW>
0.178

> <VdW6>
-3.743

> <VdW12>
3.922

> <Bond>
0.138

> <Angle>
0.941

> <Pdih>
1.335

> <Idih>
0.000

> <Tether>
0.000

$$$$
VeraChem MOL file


 17 16  0  0  0  0  0  0  0  0999 V2000     
   20.5140   20.6332   20.5749 N   0  3  0  0  0  0  0  0  0  0  0  0
   19.5109   20.5220   20.4024 H   0  0  0  0  0  0  0  0  0  0  0  0
   21.0008   20.3669   19.7138 H   0  0  0  0  0  0  0  0  0  0  0  0
   20.6842   21.6342   20.7156 H   0  0  0  0  0  0  0  0  0  0  0  0
   20.9744   19.8105   21.7627 C   0  0  0  0  0  0  0  0  0  0  0  0
   20.4402   20.1642   22.6483 H   0  0  0  0  0  0  0  0  0  0  0  0
   22.0400   20.0062   21.9104 H   0  0  0  0  0  0  0  0  0  0  0  0
   20.7526   18.2933   21.5929 C   0  0  0  0  0  0  0  0  0  0  0  0
   21.3256   17.9402   20.7252 H   0  0  0  0  0  0  0  0  0  0  0  0
   21.1720   17.7770   22.4666 H   0  0  0  0  0  0  0  0  0  0  0  0
   19.2667   17.8885   21.4269 C   0  0  0  0  0  0  0  0  0  0  0  0
   19.2091   16.7985   21.2986 H   0  0  0  0  0  0  0  0  0  0  0  0
   18.8573   18.3240   20.5053 H   0  0  0  0  0  0  0  0  0  0  0  0
   18.3890   18.2994   22.6314 C   0  0  0  0  0  0  0  0  0  0  0  0
   18.7778   17.8747   23.5660 H   0  0  0  0  0  0  0  0  0  0  0  0
   17.3614   17.9361   22.5007 H   0  0  0  0  0  0  0  0  0  0  0  0
   18.3426   19.3898   22.7440 H   0  0  0  0  0  0  0  0  0  0  0  0
  1  2  1  0  0  0  0
  1  3  1  0  0  0  0
  1  4  1  0  0  0  0
  1  5  1  0  0  0  0
  5  6  1  0  0  0  0
  5  7  1  0  0  0  0
  5  8  1  0  0  0  0
  8  9  1  0  0  0  0
  8 10  1  0  0  0  0
  8 11  1  0  0  0  0
 11 12  1  0  0  0  0
 11 13  1  0  0  0  0
 11 14  1  0  0  0  0
 14 15  1  0  0  0  0
 14 16  1  0  0  0  0
 14 17  1  0  0  0  0
M  END
> <VConfSearch Rank>
515

> <Conf_Id>
1

> <Delta U+W>
0.685

> <U+W>
-15.179

> <U>
45.697

> <W>
-60.876

> <W(PB)>
-62.586

> <W(SA)>
1.710

> <Valence>
1.263

> <Coulomb>
44.179

> <VdW>
0.255

> <VdW6>
-3.552

> <VdW12>
3.807

> <Bond>
0.125

> <Angle>
0.616

> <Pdih>
0.521

> <Idih>
0.000

> <Tether>
0.000

$$$$
VeraChem MOL file


 17 16  0  0  0  0  0  0  0  0999 V2000     
   19.7118   20.4006   23.0208 N   0  3  0  0  0  0  0  0  0  0  0  0
   20.2713   21.2360   22.8249 H   0  0  0  0  0  0  0  0  0  0  0  0
   20.3500   19.6871   23.3842 H   0  0  0  0  0  0  0  0  0  0  0  0
   19.0702   20.6440   23.7823 H   0  0  0  0  0  0  0  0  0  0  0  0
   18.9690   19.9159   21.7907 C   0  0  0  0  0  0  0  0  0  0  0  0
   18.2829   20.7093   21.4819 H   0  0  0  0  0  0  0  0  0  0  0  0
   18.3724   19.0454   22.0755 H   0  0  0  0  0  0  0  0  0  0  0  0
   19.8918   19.5504   20.6097 C   0  0  0  0  0  0  0  0  0  0  0  0
   19.2682   19.2744   19.7491 H   0  0  0  0  0  0  0  0  0  0  0  0
   20.4567   20.4412   20.3047 H   0  0  0  0  0  0  0  0  0  0  0  0
   20.8783   18.3958   20.9150 C   0  0  0  0  0  0  0  0  0  0  0  0
   21.5709   18.6923   21.7144 H   0  0  0  0  0  0  0  0  0  0  0  0
   21.4998   18.2172   20.0263 H   0  0  0  0  0  0  0  0  0  0  0  0
   20.1677   17.0790   21.3036 C   0  0  0  0  0  0  0  0  0  0  0  0
   20.9001   16.2740   21.4466 H   0  0  0  0  0  0  0  0  0  0  0  0
   19.4696   16.7608   20.5185 H   0  0  0  0  0  0  0  0  0  0  0  0
   19.6053   17.1846   22.2398 H   0  0  0  0  0  0  0  0  0  0  0  0
  1  2  1  0  0  0  0
  1  3  1  0  0  0  0
  1  4  1  0  0  0  0
  1  5  1  0  0  0  0
  5  6  1  0  0  0  0
  5  7  1  0  0  0  0
  5  8  1  0  0  0  0
  8  9  1  0  0  0  0
  8 10  1  0  0  0  0
  8 11  1  0  0  0  0
 11 12  1  0  0  0  0
 11 13  1  0  0  0  0
 11 14  1  0  0  0  0
 14 15  1  0  0  0  0
 14 16  1  0  0  0  0
 14 17  1  0  0  0  0
M  END
> <VConfSearch Rank>
516

> <Conf_Id>
43

> <Delta U+W>
0.642

> <U+W>
-15.222

> <U>
45.697

> <W>
-60.919

> <W(PB)>
-62.631

> <W(SA)>
1.712

> <Valence>
1.262

> <Coulomb>
44.179

> <VdW>
0.255

> <VdW6>
-3.552

> <VdW12>
3.807

> <Bond>
0.125

> <Angle>
0.616

> <Pdih>
0.521

> <Idih>
0.000

> <Tether>
0.000

$$$$
VeraChem MOL file


 17 16  0  0  0  0  0  0  0  0999 V2000     
   19.6457   21.0094   23.2442 N   0  3  0  0  0  0  0  0  0  0  0  0
   19.0939   21.6147   22.6288 H   0  0  0  0  0  0  0  0  0  0  0  0
   20.6095   21.3564   23.2220 H   0  0  0  0  0  0  0  0  0  0  0  0
   19.2985   21.1601   24.1969 H   0  0  0  0  0  0  0  0  0  0  0  0
   19.5573   19.5524   22.8360 C   0  0  0  0  0  0  0  0  0  0  0  0
   18.5112   19.2433   22.9125 H   0  0  0  0  0  0  0  0  0  0  0  0
   20.1409   18.9656   23.5505 H   0  0  0  0  0  0  0  0  0  0  0  0
   20.0713   19.2899   21.4087 C   0  0  0  0  0  0  0  0  0  0  0  0
   19.4931   19.8925   20.6956 H   0  0  0  0  0  0  0  0  0  0  0  0
   21.1172   19.6156   21.3315 H   0  0  0  0  0  0  0  0  0  0  0  0
   19.9635   17.7956   21.0332 C   0  0  0  0  0  0  0  0  0  0  0  0
   18.9173   17.4681   21.1136 H   0  0  0  0  0  0  0  0  0  0  0  0
   20.5394   17.1915   21.7486 H   0  0  0  0  0  0  0  0  0  0  0  0
   20.4773   17.5246   19.6027 C   0  0  0  0  0  0  0  0  0  0  0  0
   20.3923   16.4585   19.3554 H   0  0  0  0  0  0  0  0  0  0  0  0
   21.5324   17.8103   19.5008 H   0  0  0  0  0  0  0  0  0  0  0  0
   19.8975   18.0891   18.8608 H   0  0  0  0  0  0  0  0  0  0  0  0
  1  2  1  0  0  0  0
  1  3  1  0  0  0  0
  1  4  1  0  0  0  0
  1  5  1  0  0  0  0
  5  6  1  0  0  0  0
  5  7  1  0  0  0  0
  5  8  1  0  0  0  0
  8  9  1  0  0  0  0
  8 10  1  0  0  0  0
  8 11  1  0  0  0  0
 11 12  1  0  0  0  0
 11 13  1  0  0  0  0
 11 14  1  0  0  0  0
 14 15  1  0  0  0  0
 14 16  1  0  0  0  0
 14 17  1  0  0  0  0
M  END
> <VConfSearch Rank>
517

> <Conf_Id>
7

> <Delta U+W>
0.000

> <U+W>
-15.865

> <U>
44.664

> <W>
-60.529

> <W(PB)>
-62.309

> <W(SA)>
1.780

> <Valence>
0.872

> <Coulomb>
43.648

> <VdW>
0.144

> <VdW6>
-2.370

> <VdW12>
2.515

> <Bond>
0.080

> <Angle>
0.376

> <Pdih>
0.416

> <Idih>
0.000

> <Tether>
0.000

$$$$
VeraChem MOL file


 17 16  0  0  0  0  0  0  0  0999 V2000     
   20.5835   17.4006   23.2090 N   0  3  0  0  0  0  0  0  0  0  0  0
   20.7523   16.5252   22.7042 H   0  0  0  0  0  0  0  0  0  0  0  0
   19.6832   17.3026   23.6881 H   0  0  0  0  0  0  0  0  0  0  0  0
   21.3015   17.4655   23.9377 H   0  0  0  0  0  0  0  0  0  0  0  0
   20.6072   18.6023   22.2855 C   0  0  0  0  0  0  0  0  0  0  0  0
   21.6013   18.6620   21.8342 H   0  0  0  0  0  0  0  0  0  0  0  0
   20.4527   19.4968   22.8944 H   0  0  0  0  0  0  0  0  0  0  0  0
   19.5389   18.5369   21.1772 C   0  0  0  0  0  0  0  0  0  0  0  0
   19.6784   17.6152   20.5969 H   0  0  0  0  0  0  0  0  0  0  0  0
   18.5406   18.4752   21.6305 H   0  0  0  0  0  0  0  0  0  0  0  0
   19.5991   19.7491   20.2186 C   0  0  0  0  0  0  0  0  0  0  0  0
   18.8694   19.6014   19.4101 H   0  0  0  0  0  0  0  0  0  0  0  0
   20.5870   19.7930   19.7386 H   0  0  0  0  0  0  0  0  0  0  0  0
   19.3045   21.0927   20.9242 C   0  0  0  0  0  0  0  0  0  0  0  0
   18.3242   21.0732   21.4177 H   0  0  0  0  0  0  0  0  0  0  0  0
   19.2971   21.9156   20.1976 H   0  0  0  0  0  0  0  0  0  0  0  0
   20.0645   21.3264   21.6805 H   0  0  0  0  0  0  0  0  0  0  0  0
  1  2  1  0  0  0  0
  1  3  1  0  0  0  0
  1  4  1  0  0  0  0
  1  5  1  0  0  0  0
  5  6  1  0  0  0  0
  5  7  1  0  0  0  0
  5  8  1  0  0  0  0
  8  9  1  0  0  0  0
  8 10  1  0  0  0  0
  8 11  1  0  0  0  0
 11 12  1  0  0  0  0
 11 13  1  0  0  0  0
 11 14  1  0  0  0  0
 14 15  1  0  0  0  0
 14 16  1  0  0  0  0
 14 17  1  0  0  0  0
M  END
> <VConfSearch Rank>
518

> <Conf_Id>
36

> <Delta U+W>
0.275

> <U+W>
-15.590

> <U>
45.174

> <W>
-60.765

> <W(PB)>
-62.518

> <W(SA)>
1.754

> <Valence>
1.161

> <Coulomb>
43.789

> <VdW>
0.224

> <VdW6>
-2.897

> <VdW12>
3.121

> <Bond>
0.100

> <Angle>
0.500

> <Pdih>
0.561

> <Idih>
0.000

> <Tether>
0.000

$$$$
VeraChem MOL file


 17 16  0  0  0  0  0  0  0  0999 V2000     
   20.9502   20.5210   21.3198 N   0  3  0  0  0  0  0  0  0  0  0  0
   20.6506   20.1057   20.4340 H   0  0  0  0  0  0  0  0  0  0  0  0
   21.9263   20.2469   21.4662 H   0  0  0  0  0  0  0  0  0  0  0  0
   20.9426   21.5384   21.1948 H   0  0  0  0  0  0  0  0  0  0  0  0
   20.0643   20.0876   22.4720 C   0  0  0  0  0  0  0  0  0  0  0  0
   19.0535   20.4647   22.2949 H   0  0  0  0  0  0  0  0  0  0  0  0
   20.4521   20.5709   23.3728 H   0  0  0  0  0  0  0  0  0  0  0  0
   20.0203   18.5618   22.6993 C   0  0  0  0  0  0  0  0  0  0  0  0
   21.0328   18.1424   22.6300 H   0  0  0  0  0  0  0  0  0  0  0  0
   19.6919   18.3866   23.7324 H   0  0  0  0  0  0  0  0  0  0  0  0
   19.0550   17.7991   21.7565 C   0  0  0  0  0  0  0  0  0  0  0  0
   18.0338   18.1857   21.8816 H   0  0  0  0  0  0  0  0  0  0  0  0
   19.0222   16.7469   22.0724 H   0  0  0  0  0  0  0  0  0  0  0  0
   19.4463   17.8523   20.2622 C   0  0  0  0  0  0  0  0  0  0  0  0
   19.2935   18.8530   19.8416 H   0  0  0  0  0  0  0  0  0  0  0  0
   18.8234   17.1600   19.6809 H   0  0  0  0  0  0  0  0  0  0  0  0
   20.4944   17.5615   20.1140 H   0  0  0  0  0  0  0  0  0  0  0  0
  1  2  1  0  0  0  0
  1  3  1  0  0  0  0
  1  4  1  0  0  0  0
  1  5  1  0  0  0  0
  5  6  1  0  0  0  0
  5  7  1  0  0  0  0
  5  8  1  0  0  0  0
  8  9  1  0  0  0  0
  8 10  1  0  0  0  0
  8 11  1  0  0  0  0
 11 12  1  0  0  0  0
 11 13  1  0  0  0  0
 11 14  1  0  0  0  0
 14 15  1  0  0  0  0
 14 16  1  0  0  0  0
 14 17  1  0  0  0  0
M  END
> <VConfSearch Rank>
519

> <Conf_Id>
19

> <Delta U+W>
2.662

> <U+W>
-13.203

> <U>
47.423

> <W>
-60.626

> <W(PB)>
-62.328

> <W(SA)>
1.702

> <Valence>
2.414

> <Coulomb>
44.831

> <VdW>
0.178

> <VdW6>
-3.743

> <VdW12>
3.921

> <Bond>
0.138

> <Angle>
0.941

> <Pdih>
1.335

> <Idih>
0.000

> <Tether>
0.000

$$$$
VeraChem MOL file


 17 16  0  0  0  0  0  0  0  0999 V2000     
   18.1746   18.3734   21.8674 N   0  3  0  0  0  0  0  0  0  0  0  0
   17.3858   18.2726   22.5142 H   0  0  0  0  0  0  0  0  0  0  0  0
   18.0021   17.7332   21.0864 H   0  0  0  0  0  0  0  0  0  0  0  0
   18.1370   19.3241   21.4911 H   0  0  0  0  0  0  0  0  0  0  0  0
   19.5007   18.0895   22.5463 C   0  0  0  0  0  0  0  0  0  0  0  0
   19.4575   17.0610   22.9149 H   0  0  0  0  0  0  0  0  0  0  0  0
   19.5992   18.7536   23.4092 H   0  0  0  0  0  0  0  0  0  0  0  0
   20.7302   18.2427   21.6262 C   0  0  0  0  0  0  0  0  0  0  0  0
   21.5542   17.6685   22.0701 H   0  0  0  0  0  0  0  0  0  0  0  0
   20.5301   17.7781   20.6516 H   0  0  0  0  0  0  0  0  0  0  0  0
   21.2142   19.7032   21.4382 C   0  0  0  0  0  0  0  0  0  0  0  0
   22.1476   19.6864   20.8581 H   0  0  0  0  0  0  0  0  0  0  0  0
   21.4715   20.1360   22.4151 H   0  0  0  0  0  0  0  0  0  0  0  0
   20.2032   20.6236   20.7173 C   0  0  0  0  0  0  0  0  0  0  0  0
   19.8529   20.1736   19.7792 H   0  0  0  0  0  0  0  0  0  0  0  0
   20.6727   21.5848   20.4704 H   0  0  0  0  0  0  0  0  0  0  0  0
   19.3358   20.8426   21.3507 H   0  0  0  0  0  0  0  0  0  0  0  0
  1  2  1  0  0  0  0
  1  3  1  0  0  0  0
  1  4  1  0  0  0  0
  1  5  1  0  0  0  0
  5  6  1  0  0  0  0
  5  7  1  0  0  0  0
  5  8  1  0  0  0  0
  8  9  1  0  0  0  0
  8 10  1  0  0  0  0
  8 11  1  0  0  0  0
 11 12  1  0  0  0  0
 11 13  1  0  0  0  0
 11 14  1  0  0  0  0
 14 15  1  0  0  0  0
 14 16  1  0  0  0  0
 14 17  1  0  0  0  0
M  END
> <VConfSearch Rank>
520

> <Conf_Id>
44

> <Delta U+W>
2.712

> <U+W>
-13.153

> <U>
47.423

> <W>
-60.576

> <W(PB)>
-62.262

> <W(SA)>
1.687

> <Valence>
2.414

> <Coulomb>
44.831

> <VdW>
0.178

> <VdW6>
-3.743

> <VdW12>
3.922

> <Bond>
0.138

> <Angle>
0.941

> <Pdih>
1.335

> <Idih>
0.000

> <Tether>
0.000

$$$$
VeraChem MOL file


 17 16  0  0  0  0  0  0  0  0999 V2000     
   19.4101   18.3656   23.3975 N   0  3  0  0  0  0  0  0  0  0  0  0
   20.1127   17.7219   23.0228 H   0  0  0  0  0  0  0  0  0  0  0  0
   18.5097   17.8774   23.3755 H   0  0  0  0  0  0  0  0  0  0  0  0
   19.6412   18.5195   24.3842 H   0  0  0  0  0  0  0  0  0  0  0  0
   19.3676   19.6662   22.6187 C   0  0  0  0  0  0  0  0  0  0  0  0
   20.3451   20.1472   22.7077 H   0  0  0  0  0  0  0  0  0  0  0  0
   18.6272   20.3151   23.0943 H   0  0  0  0  0  0  0  0  0  0  0  0
   19.0090   19.4885   21.1288 C   0  0  0  0  0  0  0  0  0  0  0  0
   18.0088   19.0422   21.0496 H   0  0  0  0  0  0  0  0  0  0  0  0
   18.9386   20.4807   20.6637 H   0  0  0  0  0  0  0  0  0  0  0  0
   20.0214   18.6250   20.3357 C   0  0  0  0  0  0  0  0  0  0  0  0
   19.6774   18.5427   19.2951 H   0  0  0  0  0  0  0  0  0  0  0  0
   20.0359   17.6006   20.7319 H   0  0  0  0  0  0  0  0  0  0  0  0
   21.4533   19.2077   20.3466 C   0  0  0  0  0  0  0  0  0  0  0  0
   21.4653   20.2325   19.9534 H   0  0  0  0  0  0  0  0  0  0  0  0
   22.1205   18.6013   19.7205 H   0  0  0  0  0  0  0  0  0  0  0  0
   21.8748   19.2245   21.3595 H   0  0  0  0  0  0  0  0  0  0  0  0
  1  2  1  0  0  0  0
  1  3  1  0  0  0  0
  1  4  1  0  0  0  0
  1  5  1  0  0  0  0
  5  6  1  0  0  0  0
  5  7  1  0  0  0  0
  5  8  1  0  0  0  0
  8  9  1  0  0  0  0
  8 10  1  0  0  0  0
  8 11  1  0  0  0  0
 11 12  1  0  0  0  0
 11 13  1  0  0  0  0
 11 14  1  0  0  0  0
 14 15  1  0  0  0  0
 14 16  1  0  0  0  0
 14 17  1  0  0  0  0
M  END
> <VConfSearch Rank>
521

> <Conf_Id>
1

> <Delta U+W>
0.685

> <U+W>
-15.179

> <U>
45.697

> <W>
-60.876

> <W(PB)>
-62.586

> <W(SA)>
1.710

> <Valence>
1.263

> <Coulomb>
44.179

> <VdW>
0.255

> <VdW6>
-3.552

> <VdW12>
3.807

> <Bond>
0.125

> <Angle>
0.616

> <Pdih>
0.521

> <Idih>
0.000

> <Tether>
0.000

$$$$
VeraChem MOL file


 17 16  0  0  0  0  0  0  0  0999 V2000     
   18.8546   18.6775   19.9640 N   0  3  0  0  0  0  0  0  0  0  0  0
   18.5421   17.7029   19.9219 H   0  0  0  0  0  0  0  0  0  0  0  0
   19.8388   18.6923   19.6818 H   0  0  0  0  0  0  0  0  0  0  0  0
   18.3302   19.1894   19.2473 H   0  0  0  0  0  0  0  0  0  0  0  0
   18.6565   19.2762   21.3432 C   0  0  0  0  0  0  0  0  0  0  0  0
   17.5852   19.2621   21.5615 H   0  0  0  0  0  0  0  0  0  0  0  0
   18.9808   20.3195   21.3101 H   0  0  0  0  0  0  0  0  0  0  0  0
   19.4153   18.5307   22.4605 C   0  0  0  0  0  0  0  0  0  0  0  0
   19.1627   18.9917   23.4246 H   0  0  0  0  0  0  0  0  0  0  0  0
   19.0537   17.4952   22.5128 H   0  0  0  0  0  0  0  0  0  0  0  0
   20.9543   18.5295   22.2844 C   0  0  0  0  0  0  0  0  0  0  0  0
   21.2290   17.9898   21.3678 H   0  0  0  0  0  0  0  0  0  0  0  0
   21.4049   17.9668   23.1140 H   0  0  0  0  0  0  0  0  0  0  0  0
   21.5614   19.9508   22.2534 C   0  0  0  0  0  0  0  0  0  0  0  0
   22.6563   19.9006   22.1935 H   0  0  0  0  0  0  0  0  0  0  0  0
   21.3013   20.5108   23.1611 H   0  0  0  0  0  0  0  0  0  0  0  0
   21.2085   20.5221   21.3857 H   0  0  0  0  0  0  0  0  0  0  0  0
  1  2  1  0  0  0  0
  1  3  1  0  0  0  0
  1  4  1  0  0  0  0
  1  5  1  0  0  0  0
  5  6  1  0  0  0  0
  5  7  1  0  0  0  0
  5  8  1  0  0  0  0
  8  9  1  0  0  0  0
  8 10  1  0  0  0  0
  8 11  1  0  0  0  0
 11 12  1  0  0  0  0
 11 13  1  0  0  0  0
 11 14  1  0  0  0  0
 14 15  1  0  0  0  0
 14 16  1  0  0  0  0
 14 17  1  0  0  0  0
M  END
> <VConfSearch Rank>
522

> <Conf_Id>
43

> <Delta U+W>
0.642

> <U+W>
-15.222

> <U>
45.697

> <W>
-60.919

> <W(PB)>
-62.631

> <W(SA)>
1.712

> <Valence>
1.262

> <Coulomb>
44.179

> <VdW>
0.255

> <VdW6>
-3.552

> <VdW12>
3.807

> <Bond>
0.125

> <Angle>
0.616

> <Pdih>
0.521

> <Idih>
0.000

> <Tether>
0.000

$$$$
VeraChem MOL file


 17 16  0  0  0  0  0  0  0  0999 V2000     
   21.4849   17.5759   20.1721 N   0  3  0  0  0  0  0  0  0  0  0  0
   22.0065   17.1434   20.9406 H   0  0  0  0  0  0  0  0  0  0  0  0
   22.0749   18.3215   19.7904 H   0  0  0  0  0  0  0  0  0  0  0  0
   21.3942   16.8653   19.4388 H   0  0  0  0  0  0  0  0  0  0  0  0
   20.1345   18.0953   20.6237 C   0  0  0  0  0  0  0  0  0  0  0  0
   19.5507   17.2456   20.9881 H   0  0  0  0  0  0  0  0  0  0  0  0
   19.6242   18.5124   19.7513 H   0  0  0  0  0  0  0  0  0  0  0  0
   20.2338   19.1656   21.7259 C   0  0  0  0  0  0  0  0  0  0  0  0
   20.7603   18.7479   22.5944 H   0  0  0  0  0  0  0  0  0  0  0  0
   20.8335   20.0104   21.3618 H   0  0  0  0  0  0  0  0  0  0  0  0
   18.8378   19.6670   22.1566 C   0  0  0  0  0  0  0  0  0  0  0  0
   18.2359   18.8212   22.5181 H   0  0  0  0  0  0  0  0  0  0  0  0
   18.3090   20.0823   21.2871 H   0  0  0  0  0  0  0  0  0  0  0  0
   18.9295   20.7409   23.2622 C   0  0  0  0  0  0  0  0  0  0  0  0
   17.9282   21.0836   23.5539 H   0  0  0  0  0  0  0  0  0  0  0  0
   19.4971   21.6152   22.9180 H   0  0  0  0  0  0  0  0  0  0  0  0
   19.4235   20.3442   24.1587 H   0  0  0  0  0  0  0  0  0  0  0  0
  1  2  1  0  0  0  0
  1  3  1  0  0  0  0
  1  4  1  0  0  0  0
  1  5  1  0  0  0  0
  5  6  1  0  0  0  0
  5  7  1  0  0  0  0
  5  8  1  0  0  0  0
  8  9  1  0  0  0  0
  8 10  1  0  0  0  0
  8 11  1  0  0  0  0
 11 12  1  0  0  0  0
 11 13  1  0  0  0  0
 11 14  1  0  0  0  0
 14 15  1  0  0  0  0
 14 16  1  0  0  0  0
 14 17  1  0  0  0  0
M  END
> <VConfSearch Rank>
523

> <Conf_Id>
7

> <Delta U+W>
0.000

> <U+W>
-15.865

> <U>
44.664

> <W>
-60.529

> <W(PB)>
-62.309

> <W(SA)>
1.780

> <Valence>
0.872

> <Coulomb>
43.648

> <VdW>
0.144

> <VdW6>
-2.370

> <VdW12>
2.515

> <Bond>
0.080

> <Angle>
0.376

> <Pdih>
0.416

> <Idih>
0.000

> <Tether>
0.000

$$$$
VeraChem MOL file


 17 16  0  0  0  0  0  0  0  0999 V2000     
   19.1751   17.0066   20.6748 N   0  3  0  0  0  0  0  0  0  0  0  0
   19.0053   17.1415   19.6735 H   0  0  0  0  0  0  0  0  0  0  0  0
   18.2593   16.9682   21.1325 H   0  0  0  0  0  0  0  0  0  0  0  0
   19.5987   16.0792   20.7812 H   0  0  0  0  0  0  0  0  0  0  0  0
   20.0536   18.0976   21.2538 C   0  0  0  0  0  0  0  0  0  0  0  0
   21.0193   18.0608   20.7424 H   0  0  0  0  0  0  0  0  0  0  0  0
   20.2166   17.8719   22.3109 H   0  0  0  0  0  0  0  0  0  0  0  0
   19.4457   19.5061   21.1108 C   0  0  0  0  0  0  0  0  0  0  0  0
   19.2488   19.7069   20.0493 H   0  0  0  0  0  0  0  0  0  0  0  0
   18.4750   19.5425   21.6231 H   0  0  0  0  0  0  0  0  0  0  0  0
   20.3689   20.6138   21.6698 C   0  0  0  0  0  0  0  0  0  0  0  0
   19.9152   21.5937   21.4649 H   0  0  0  0  0  0  0  0  0  0  0  0
   21.3292   20.6003   21.1351 H   0  0  0  0  0  0  0  0  0  0  0  0
   20.6191   20.4820   23.1897 C   0  0  0  0  0  0  0  0  0  0  0  0
   19.6736   20.4867   23.7476 H   0  0  0  0  0  0  0  0  0  0  0  0
   21.2268   21.3205   23.5539 H   0  0  0  0  0  0  0  0  0  0  0  0
   21.1552   19.5556   23.4315 H   0  0  0  0  0  0  0  0  0  0  0  0
  1  2  1  0  0  0  0
  1  3  1  0  0  0  0
  1  4  1  0  0  0  0
  1  5  1  0  0  0  0
  5  6  1  0  0  0  0
  5  7  1  0  0  0  0
  5  8  1  0  0  0  0
  8  9  1  0  0  0  0
  8 10  1  0  0  0  0
  8 11  1  0  0  0  0
 11 12  1  0  0  0  0
 11 13  1  0  0  0  0
 11 14  1  0  0  0  0
 14 15  1  0  0  0  0
 14 16  1  0  0  0  0
 14 17  1  0  0  0  0
M  END
> <VConfSearch Rank>
524

> <Conf_Id>
36

> <Delta U+W>
0.275

> <U+W>
-15.590

> <U>
45.174

> <W>
-60.765

> <W(PB)>
-62.518

> <W(SA)>
1.754

> <Valence>
1.161

> <Coulomb>
43.789

> <VdW>
0.224

> <VdW6>
-2.897

> <VdW12>
3.121

> <Bond>
0.100

> <Angle>
0.500

> <Pdih>
0.561

> <Idih>
0.000

> <Tether>
0.000

$$$$
VeraChem MOL file


 17 16  0  0  0  0  0  0  0  0999 V2000     
   19.6874   17.3718   22.4858 N   0  3  0  0  0  0  0  0  0  0  0  0
   18.7973   17.7633   22.1676 H   0  0  0  0  0  0  0  0  0  0  0  0
   19.7683   17.5808   23.4854 H   0  0  0  0  0  0  0  0  0  0  0  0
   19.6176   16.3527   22.3999 H   0  0  0  0  0  0  0  0  0  0  0  0
   20.8589   17.9254   21.6977 C   0  0  0  0  0  0  0  0  0  0  0  0
   20.7547   17.6149   20.6547 H   0  0  0  0  0  0  0  0  0  0  0  0
   21.7631   17.4604   22.0999 H   0  0  0  0  0  0  0  0  0  0  0  0
   21.0062   19.4597   21.7737 C   0  0  0  0  0  0  0  0  0  0  0  0
   20.8623   19.8001   22.8077 H   0  0  0  0  0  0  0  0  0  0  0  0
   22.0440   19.7097   21.5161 H   0  0  0  0  0  0  0  0  0  0  0  0
   20.0750   20.2432   20.8137 C   0  0  0  0  0  0  0  0  0  0  0  0
   20.2732   19.9388   19.7763 H   0  0  0  0  0  0  0  0  0  0  0  0
   20.3354   21.3093   20.8725 H   0  0  0  0  0  0  0  0  0  0  0  0
   18.5675   20.0873   21.1170 C   0  0  0  0  0  0  0  0  0  0  0  0
   18.2096   19.0807   20.8712 H   0  0  0  0  0  0  0  0  0  0  0  0
   17.9828   20.7935   20.5131 H   0  0  0  0  0  0  0  0  0  0  0  0
   18.3500   20.2930   22.1732 H   0  0  0  0  0  0  0  0  0  0  0  0
  1  2  1  0  0  0  0
  1  3  1  0  0  0  0
  1  4  1  0  0  0  0
  1  5  1  0  0  0  0
  5  6  1  0  0  0  0
  5  7  1  0  0  0  0
  5  8  1  0  0  0  0
  8  9  1  0  0  0  0
  8 10  1  0  0  0  0
  8 11  1  0  0  0  0
 11 12  1  0  0  0  0
 11 13  1  0  0  0  0
 11 14  1  0  0  0  0
 14 15  1  0  0  0  0
 14 16  1  0  0  0  0
 14 17  1  0  0  0  0
M  END
> <VConfSearch Rank>
525

> <Conf_Id>
19

> <Delta U+W>
2.662

> <U+W>
-13.203

> <U>
47.423

> <W>
-60.626

> <W(PB)>
-62.328

> <W(SA)>
1.702

> <Valence>
2.414

> <Coulomb>
44.831

> <VdW>
0.178

> <VdW6>
-3.743

> <VdW12>
3.921

> <Bond>
0.138

> <Angle>
0.941

> <Pdih>
1.335

> <Idih>
0.000

> <Tether>
0.000

$$$$
VeraChem MOL file


 17 16  0  0  0  0  0  0  0  0999 V2000     
   21.4226   19.8447   22.2815 N   0  3  0  0  0  0  0  0  0  0  0  0
   21.8219   20.4731   22.9861 H   0  0  0  0  0  0  0  0  0  0  0  0
   22.1605   19.6609   21.5950 H   0  0  0  0  0  0  0  0  0  0  0  0
   21.2188   18.9576   22.7489 H   0  0  0  0  0  0  0  0  0  0  0  0
   20.1853   20.4364   21.6341 C   0  0  0  0  0  0  0  0  0  0  0  0
   20.4897   21.3733   21.1597 H   0  0  0  0  0  0  0  0  0  0  0  0
   19.4620   20.6744   22.4186 H   0  0  0  0  0  0  0  0  0  0  0  0
   19.5270   19.5272   20.5751 C   0  0  0  0  0  0  0  0  0  0  0  0
   18.9140   20.1629   19.9225 H   0  0  0  0  0  0  0  0  0  0  0  0
   20.2968   19.0856   19.9284 H   0  0  0  0  0  0  0  0  0  0  0  0
   18.6121   18.4199   21.1577 C   0  0  0  0  0  0  0  0  0  0  0  0
   18.1171   17.9050   20.3224 H   0  0  0  0  0  0  0  0  0  0  0  0
   17.8086   18.8786   21.7509 H   0  0  0  0  0  0  0  0  0  0  0  0
   19.3499   17.3677   22.0166 C   0  0  0  0  0  0  0  0  0  0  0  0
   20.2187   16.9577   21.4853 H   0  0  0  0  0  0  0  0  0  0  0  0
   18.6791   16.5314   22.2530 H   0  0  0  0  0  0  0  0  0  0  0  0
   19.6853   17.7907   22.9707 H   0  0  0  0  0  0  0  0  0  0  0  0
  1  2  1  0  0  0  0
  1  3  1  0  0  0  0
  1  4  1  0  0  0  0
  1  5  1  0  0  0  0
  5  6  1  0  0  0  0
  5  7  1  0  0  0  0
  5  8  1  0  0  0  0
  8  9  1  0  0  0  0
  8 10  1  0  0  0  0
  8 11  1  0  0  0  0
 11 12  1  0  0  0  0
 11 13  1  0  0  0  0
 11 14  1  0  0  0  0
 14 15  1  0  0  0  0
 14 16  1  0  0  0  0
 14 17  1  0  0  0  0
M  END
> <VConfSearch Rank>
526

> <Conf_Id>
44

> <Delta U+W>
2.712

> <U+W>
-13.153

> <U>
47.423

> <W>
-60.576

> <W(PB)>
-62.262

> <W(SA)>
1.687

> <Valence>
2.414

> <Coulomb>
44.831

> <VdW>
0.178

> <VdW6>
-3.743

> <VdW12>
3.922

> <Bond>
0.138

> <Angle>
0.941

> <Pdih>
1.335

> <Idih>
0.000

> <Tether>
0.000

$$$$
VeraChem MOL file


 17 16  0  0  0  0  0  0  0  0999 V2000     
   20.6643   20.1833   23.0414 N   0  3  0  0  0  0  0  0  0  0  0  0
   20.7159   20.7223   22.1724 H   0  0  0  0  0  0  0  0  0  0  0  0
   21.6205   19.9075   23.2840 H   0  0  0  0  0  0  0  0  0  0  0  0
   20.3450   20.8258   23.7735 H   0  0  0  0  0  0  0  0  0  0  0  0
   19.7468   18.9835   22.9046 C   0  0  0  0  0  0  0  0  0  0  0  0
   18.7423   19.3486   22.6758 H   0  0  0  0  0  0  0  0  0  0  0  0
   19.7105   18.4799   23.8744 H   0  0  0  0  0  0  0  0  0  0  0  0
   20.1937   17.9779   21.8233 C   0  0  0  0  0  0  0  0  0  0  0  0
   21.1861   17.5864   22.0834 H   0  0  0  0  0  0  0  0  0  0  0  0
   19.5116   17.1175   21.8405 H   0  0  0  0  0  0  0  0  0  0  0  0
   20.2328   18.5682   20.3917 C   0  0  0  0  0  0  0  0  0  0  0  0
   20.5740   17.7882   19.6967 H   0  0  0  0  0  0  0  0  0  0  0  0
   20.9793   19.3721   20.3350 H   0  0  0  0  0  0  0  0  0  0  0  0
   18.8602   19.0980   19.9174 C   0  0  0  0  0  0  0  0  0  0  0  0
   18.0960   18.3113   19.9640 H   0  0  0  0  0  0  0  0  0  0  0  0
   18.9198   19.4455   18.8779 H   0  0  0  0  0  0  0  0  0  0  0  0
   18.5198   19.9427   20.5295 H   0  0  0  0  0  0  0  0  0  0  0  0
  1  2  1  0  0  0  0
  1  3  1  0  0  0  0
  1  4  1  0  0  0  0
  1  5  1  0  0  0  0
  5  6  1  0  0  0  0
  5  7  1  0  0  0  0
  5  8  1  0  0  0  0
  8  9  1  0  0  0  0
  8 10  1  0  0  0  0
  8 11  1  0  0  0  0
 11 12  1  0  0  0  0
 11 13  1  0  0  0  0
 11 14  1  0  0  0  0
 14 15  1  0  0  0  0
 14 16  1  0  0  0  0
 14 17  1  0  0  0  0
M  END
> <VConfSearch Rank>
527

> <Conf_Id>
1

> <Delta U+W>
0.685

> <U+W>
-15.179

> <U>
45.697

> <W>
-60.876

> <W(PB)>
-62.586

> <W(SA)>
1.710

> <Valence>
1.263

> <Coulomb>
44.179

> <VdW>
0.255

> <VdW6>
-3.552

> <VdW12>
3.807

> <Bond>
0.125

> <Angle>
0.616

> <Pdih>
0.521

> <Idih>
0.000

> <Tether>
0.000

$$$$
VeraChem MOL file


 17 16  0  0  0  0  0  0  0  0999 V2000     
   20.8966   20.6427   20.9656 N   0  3  0  0  0  0  0  0  0  0  0  0
   21.7130   20.8442   21.5506 H   0  0  0  0  0  0  0  0  0  0  0  0
   20.0708   20.9694   21.4754 H   0  0  0  0  0  0  0  0  0  0  0  0
   20.9804   21.2257   20.1267 H   0  0  0  0  0  0  0  0  0  0  0  0
   20.7974   19.1692   20.6207 C   0  0  0  0  0  0  0  0  0  0  0  0
   21.6894   18.9004   20.0484 H   0  0  0  0  0  0  0  0  0  0  0  0
   19.9268   19.0297   19.9746 H   0  0  0  0  0  0  0  0  0  0  0  0
   20.6840   18.2476   21.8527 C   0  0  0  0  0  0  0  0  0  0  0  0
   20.6827   17.2038   21.5115 H   0  0  0  0  0  0  0  0  0  0  0  0
   21.5816   18.3648   22.4743 H   0  0  0  0  0  0  0  0  0  0  0  0
   19.4237   18.5026   22.7164 C   0  0  0  0  0  0  0  0  0  0  0  0
   19.4556   19.5151   23.1413 H   0  0  0  0  0  0  0  0  0  0  0  0
   19.4365   17.8140   23.5728 H   0  0  0  0  0  0  0  0  0  0  0  0
   18.1043   18.3074   21.9348 C   0  0  0  0  0  0  0  0  0  0  0  0
   17.2403   18.4336   22.6001 H   0  0  0  0  0  0  0  0  0  0  0  0
   18.0481   17.3007   21.5006 H   0  0  0  0  0  0  0  0  0  0  0  0
   18.0048   19.0372   21.1214 H   0  0  0  0  0  0  0  0  0  0  0  0
  1  2  1  0  0  0  0
  1  3  1  0  0  0  0
  1  4  1  0  0  0  0
  1  5  1  0  0  0  0
  5  6  1  0  0  0  0
  5  7  1  0  0  0  0
  5  8  1  0  0  0  0
  8  9  1  0  0  0  0
  8 10  1  0  0  0  0
  8 11  1  0  0  0  0
 11 12  1  0  0  0  0
 11 13  1  0  0  0  0
 11 14  1  0  0  0  0
 14 15  1  0  0  0  0
 14 16  1  0  0  0  0
 14 17  1  0  0  0  0
M  END
> <VConfSearch Rank>
528

> <Conf_Id>
43

> <Delta U+W>
0.642

> <U+W>
-15.222

> <U>
45.697

> <W>
-60.919

> <W(PB)>
-62.631

> <W(SA)>
1.712

> <Valence>
1.262

> <Coulomb>
44.179

> <VdW>
0.255

> <VdW6>
-3.552

> <VdW12>
3.807

> <Bond>
0.125

> <Angle>
0.616

> <Pdih>
0.521

> <Idih>
0.000

> <Tether>
0.000

$$$$
VeraChem MOL file


 17 16  0  0  0  0  0  0  0  0999 V2000     
   21.9513   19.6652   20.1047 N   0  3  0  0  0  0  0  0  0  0  0  0
   22.5724   20.0090   20.8434 H   0  0  0  0  0  0  0  0  0  0  0  0
   21.5355   20.4866   19.6550 H   0  0  0  0  0  0  0  0  0  0  0  0
   22.5469   19.2133   19.4034 H   0  0  0  0  0  0  0  0  0  0  0  0
   20.8975   18.7185   20.6436 C   0  0  0  0  0  0  0  0  0  0  0  0
   21.4094   17.8559   21.0789 H   0  0  0  0  0  0  0  0  0  0  0  0
   20.2945   18.3695   19.8009 H   0  0  0  0  0  0  0  0  0  0  0  0
   19.9840   19.3655   21.7006 C   0  0  0  0  0  0  0  0  0  0  0  0
   20.5946   19.7286   22.5381 H   0  0  0  0  0  0  0  0  0  0  0  0
   19.4833   20.2402   21.2645 H   0  0  0  0  0  0  0  0  0  0  0  0
   18.9264   18.3684   22.2228 C   0  0  0  0  0  0  0  0  0  0  0  0
   19.4269   17.4910   22.6564 H   0  0  0  0  0  0  0  0  0  0  0  0
   18.3170   18.0021   21.3844 H   0  0  0  0  0  0  0  0  0  0  0  0
   18.0064   19.0105   23.2836 C   0  0  0  0  0  0  0  0  0  0  0  0
   17.2629   18.2865   23.6415 H   0  0  0  0  0  0  0  0  0  0  0  0
   17.4653   19.8710   22.8689 H   0  0  0  0  0  0  0  0  0  0  0  0
   18.5840   19.3559   24.1509 H   0  0  0  0  0  0  0  0  0  0  0  0
  1  2  1  0  0  0  0
  1  3  1  0  0  0  0
  1  4  1  0  0  0  0
  1  5  1  0  0  0  0
  5  6  1  0  0  0  0
  5  7  1  0  0  0  0
  5  8  1  0  0  0  0
  8  9  1  0  0  0  0
  8 10  1  0  0  0  0
  8 11  1  0  0  0  0
 11 12  1  0  0  0  0
 11 13  1  0  0  0  0
 11 14  1  0  0  0  0
 14 15  1  0  0  0  0
 14 16  1  0  0  0  0
 14 17  1  0  0  0  0
M  END
> <VConfSearch Rank>
529

> <Conf_Id>
7

> <Delta U+W>
0.000

> <U+W>
-15.865

> <U>
44.664

> <W>
-60.529

> <W(PB)>
-62.309

> <W(SA)>
1.780

> <Valence>
0.872

> <Coulomb>
43.648

> <VdW>
0.144

> <VdW6>
-2.370

> <VdW12>
2.515

> <Bond>
0.080

> <Angle>
0.376

> <Pdih>
0.416

> <Idih>
0.000

> <Tether>
0.000

$$$$
VeraChem MOL file


 17 16  0  0  0  0  0  0  0  0999 V2000     
   19.1125   17.0999   20.5354 N   0  3  0  0  0  0  0  0  0  0  0  0
   19.8302   16.3720   20.6040 H   0  0  0  0  0  0  0  0  0  0  0  0
   19.1283   17.4479   19.5719 H   0  0  0  0  0  0  0  0  0  0  0  0
   18.2076   16.6371   20.6686 H   0  0  0  0  0  0  0  0  0  0  0  0
   19.3316   18.2102   21.5437 C   0  0  0  0  0  0  0  0  0  0  0  0
   19.2721   17.7744   22.5446 H   0  0  0  0  0  0  0  0  0  0  0  0
   18.5157   18.9294   21.4338 H   0  0  0  0  0  0  0  0  0  0  0  0
   20.6840   18.9281   21.3714 C   0  0  0  0  0  0  0  0  0  0  0  0
   21.4945   18.1907   21.4435 H   0  0  0  0  0  0  0  0  0  0  0  0
   20.7443   19.3644   20.3655 H   0  0  0  0  0  0  0  0  0  0  0  0
   20.9123   20.0321   22.4301 C   0  0  0  0  0  0  0  0  0  0  0  0
   21.9221   20.4466   22.3016 H   0  0  0  0  0  0  0  0  0  0  0  0
   20.8854   19.5913   23.4367 H   0  0  0  0  0  0  0  0  0  0  0  0
   19.8808   21.1800   22.3383 C   0  0  0  0  0  0  0  0  0  0  0  0
   19.8833   21.6344   21.3390 H   0  0  0  0  0  0  0  0  0  0  0  0
   20.1165   21.9683   23.0650 H   0  0  0  0  0  0  0  0  0  0  0  0
   18.8641   20.8268   22.5518 H   0  0  0  0  0  0  0  0  0  0  0  0
  1  2  1  0  0  0  0
  1  3  1  0  0  0  0
  1  4  1  0  0  0  0
  1  5  1  0  0  0  0
  5  6  1  0  0  0  0
  5  7  1  0  0  0  0
  5  8  1  0  0  0  0
  8  9  1  0  0  0  0
  8 10  1  0  0  0  0
  8 11  1  0  0  0  0
 11 12  1  0  0  0  0
 11 13  1  0  0  0  0
 11 14  1  0  0  0  0
 14 15  1  0  0  0  0
 14 16  1  0  0  0  0
 14 17  1  0  0  0  0
M  END
> <VConfSearch Rank>
530

> <Conf_Id>
36

> <Delta U+W>
0.275

> <U+W>
-15.590

> <U>
45.174

> <W>
-60.765

> <W(PB)>
-62.518

> <W(SA)>
1.754

> <Valence>
1.161

> <Coulomb>
43.789

> <VdW>
0.224

> <VdW6>
-2.897

> <VdW12>
3.121

> <Bond>
0.100

> <Angle>
0.500

> <Pdih>
0.561

> <Idih>
0.000

> <Tether>
0.000

$$$$
VeraChem MOL file


 17 16  0  0  0  0  0  0  0  0999 V2000     
   19.8471   20.8247   21.3356 N   0  3  0  0  0  0  0  0  0  0  0  0
   20.6142   20.5783   21.9663 H   0  0  0  0  0  0  0  0  0  0  0  0
   19.0728   21.1569   21.9184 H   0  0  0  0  0  0  0  0  0  0  0  0
   20.1611   21.6235   20.7751 H   0  0  0  0  0  0  0  0  0  0  0  0
   19.4354   19.6523   20.4661 C   0  0  0  0  0  0  0  0  0  0  0  0
   20.2762   19.3859   19.8201 H   0  0  0  0  0  0  0  0  0  0  0  0
   18.6166   19.9984   19.8295 H   0  0  0  0  0  0  0  0  0  0  0  0
   18.9688   18.4106   21.2548 C   0  0  0  0  0  0  0  0  0  0  0  0
   18.3041   18.7142   22.0745 H   0  0  0  0  0  0  0  0  0  0  0  0
   18.3556   17.7972   20.5814 H   0  0  0  0  0  0  0  0  0  0  0  0
   20.1187   17.5221   21.7941 C   0  0  0  0  0  0  0  0  0  0  0  0
   20.7398   17.1731   20.9571 H   0  0  0  0  0  0  0  0  0  0  0  0
   19.6783   16.6203   22.2422 H   0  0  0  0  0  0  0  0  0  0  0  0
   21.0154   18.2084   22.8495 C   0  0  0  0  0  0  0  0  0  0  0  0
   21.6392   18.9900   22.4006 H   0  0  0  0  0  0  0  0  0  0  0  0
   21.6947   17.4764   23.3056 H   0  0  0  0  0  0  0  0  0  0  0  0
   20.4153   18.6522   23.6545 H   0  0  0  0  0  0  0  0  0  0  0  0
  1  2  1  0  0  0  0
  1  3  1  0  0  0  0
  1  4  1  0  0  0  0
  1  5  1  0  0  0  0
  5  6  1  0  0  0  0
  5  7  1  0  0  0  0
  5  8  1  0  0  0  0
  8  9  1  0  0  0  0
  8 10  1  0  0  0  0
  8 11  1  0  0  0  0
 11 12  1  0  0  0  0
 11 13  1  0  0  0  0
 11 14  1  0  0  0  0
 14 15  1  0  0  0  0
 14 16  1  0  0  0  0
 14 17  1  0  0  0  0
M  END
> <VConfSearch Rank>
531

> <Conf_Id>
19

> <Delta U+W>
2.662

> <U+W>
-13.203

> <U>
47.423

> <W>
-60.626

> <W(PB)>
-62.328

> <W(SA)>
1.702

> <Valence>
2.414

> <Coulomb>
44.831

> <VdW>
0.178

> <VdW6>
-3.743

> <VdW12>
3.921

> <Bond>
0.138

> <Angle>
0.941

> <Pdih>
1.335

> <Idih>
0.000

> <Tether>
0.000

$$$$
VeraChem MOL file


 17 16  0  0  0  0  0  0  0  0999 V2000     
   20.2610   19.5711   23.3470 N   0  3  0  0  0  0  0  0  0  0  0  0
   20.8857   19.4606   24.1522 H   0  0  0  0  0  0  0  0  0  0  0  0
   19.4395   20.0867   23.6769 H   0  0  0  0  0  0  0  0  0  0  0  0
   20.7418   20.1710   22.6720 H   0  0  0  0  0  0  0  0  0  0  0  0
   19.8809   18.2341   22.7403 C   0  0  0  0  0  0  0  0  0  0  0  0
   19.3744   17.6608   23.5216 H   0  0  0  0  0  0  0  0  0  0  0  0
   20.7966   17.7014   22.4702 H   0  0  0  0  0  0  0  0  0  0  0  0
   18.9539   18.3361   21.5106 C   0  0  0  0  0  0  0  0  0  0  0  0
   18.4470   17.3692   21.3923 H   0  0  0  0  0  0  0  0  0  0  0  0
   18.1602   19.0712   21.6985 H   0  0  0  0  0  0  0  0  0  0  0  0
   19.6830   18.6577   20.1811 C   0  0  0  0  0  0  0  0  0  0  0  0
   18.9511   18.6023   19.3630 H   0  0  0  0  0  0  0  0  0  0  0  0
   20.4312   17.8802   19.9724 H   0  0  0  0  0  0  0  0  0  0  0  0
   20.3594   20.0469   20.1431 C   0  0  0  0  0  0  0  0  0  0  0  0
   19.6600   20.8391   20.4404 H   0  0  0  0  0  0  0  0  0  0  0  0
   20.7063   20.2735   19.1265 H   0  0  0  0  0  0  0  0  0  0  0  0
   21.2372   20.0851   20.7985 H   0  0  0  0  0  0  0  0  0  0  0  0
  1  2  1  0  0  0  0
  1  3  1  0  0  0  0
  1  4  1  0  0  0  0
  1  5  1  0  0  0  0
  5  6  1  0  0  0  0
  5  7  1  0  0  0  0
  5  8  1  0  0  0  0
  8  9  1  0  0  0  0
  8 10  1  0  0  0  0
  8 11  1  0  0  0  0
 11 12  1  0  0  0  0
 11 13  1  0  0  0  0
 11 14  1  0  0  0  0
 14 15  1  0  0  0  0
 14 16  1  0  0  0  0
 14 17  1  0  0  0  0
M  END
> <VConfSearch Rank>
532

> <Conf_Id>
44

> <Delta U+W>
2.712

> <U+W>
-13.153

> <U>
47.423

> <W>
-60.576

> <W(PB)>
-62.262

> <W(SA)>
1.687

> <Valence>
2.414

> <Coulomb>
44.831

> <VdW>
0.178

> <VdW6>
-3.743

> <VdW12>
3.922

> <Bond>
0.138

> <Angle>
0.941

> <Pdih>
1.335

> <Idih>
0.000

> <Tether>
0.000

$$$$
VeraChem MOL file


 17 16  0  0  0  0  0  0  0  0999 V2000     
   18.4373   18.1169   22.5486 N   0  3  0  0  0  0  0  0  0  0  0  0
   18.9863   17.3945   22.0741 H   0  0  0  0  0  0  0  0  0  0  0  0
   17.5520   18.2067   22.0412 H   0  0  0  0  0  0  0  0  0  0  0  0
   18.2108   17.7564   23.4810 H   0  0  0  0  0  0  0  0  0  0  0  0
   19.1848   19.4346   22.6197 C   0  0  0  0  0  0  0  0  0  0  0  0
   20.0996   19.2752   23.1962 H   0  0  0  0  0  0  0  0  0  0  0  0
   18.5587   20.1433   23.1685 H   0  0  0  0  0  0  0  0  0  0  0  0
   19.5364   20.0263   21.2390 C   0  0  0  0  0  0  0  0  0  0  0  0
   18.6093   20.2207   20.6836 H   0  0  0  0  0  0  0  0  0  0  0  0
   20.0145   21.0037   21.3873 H   0  0  0  0  0  0  0  0  0  0  0  0
   20.4674   19.1280   20.3871 C   0  0  0  0  0  0  0  0  0  0  0  0
   20.6494   19.6216   19.4222 H   0  0  0  0  0  0  0  0  0  0  0  0
   19.9655   18.1795   20.1523 H   0  0  0  0  0  0  0  0  0  0  0  0
   21.8250   18.8436   21.0697 C   0  0  0  0  0  0  0  0  0  0  0  0
   22.3473   19.7778   21.3138 H   0  0  0  0  0  0  0  0  0  0  0  0
   22.4754   18.2604   20.4050 H   0  0  0  0  0  0  0  0  0  0  0  0
   21.6989   18.2695   21.9962 H   0  0  0  0  0  0  0  0  0  0  0  0
  1  2  1  0  0  0  0
  1  3  1  0  0  0  0
  1  4  1  0  0  0  0
  1  5  1  0  0  0  0
  5  6  1  0  0  0  0
  5  7  1  0  0  0  0
  5  8  1  0  0  0  0
  8  9  1  0  0  0  0
  8 10  1  0  0  0  0
  8 11  1  0  0  0  0
 11 12  1  0  0  0  0
 11 13  1  0  0  0  0
 11 14  1  0  0  0  0
 14 15  1  0  0  0  0
 14 16  1  0  0  0  0
 14 17  1  0  0  0  0
M  END
> <VConfSearch Rank>
533

> <Conf_Id>
1

> <Delta U+W>
0.685

> <U+W>
-15.179

> <U>
45.697

> <W>
-60.876

> <W(PB)>
-62.586

> <W(SA)>
1.710

> <Valence>
1.263

> <Coulomb>
44.179

> <VdW>
0.255

> <VdW6>
-3.552

> <VdW12>
3.807

> <Bond>
0.125

> <Angle>
0.616

> <Pdih>
0.521

> <Idih>
0.000

> <Tether>
0.000

$$$$
VeraChem MOL file


 17 16  0  0  0  0  0  0  0  0999 V2000     
   21.2852   20.4148   22.0225 N   0  3  0  0  0  0  0  0  0  0  0  0
   22.2243   20.1183   21.7404 H   0  0  0  0  0  0  0  0  0  0  0  0
   21.0653   19.9314   22.8979 H   0  0  0  0  0  0  0  0  0  0  0  0
   21.3414   21.4151   22.2389 H   0  0  0  0  0  0  0  0  0  0  0  0
   20.2546   20.1273   20.9478 C   0  0  0  0  0  0  0  0  0  0  0  0
   20.5306   20.7020   20.0595 H   0  0  0  0  0  0  0  0  0  0  0  0
   19.2864   20.4931   21.2993 H   0  0  0  0  0  0  0  0  0  0  0  0
   20.1427   18.6343   20.5757 C   0  0  0  0  0  0  0  0  0  0  0  0
   19.4248   18.5306   19.7513 H   0  0  0  0  0  0  0  0  0  0  0  0
   21.1085   18.2867   20.1855 H   0  0  0  0  0  0  0  0  0  0  0  0
   19.7048   17.7235   21.7498 C   0  0  0  0  0  0  0  0  0  0  0  0
   20.4606   17.7452   22.5466 H   0  0  0  0  0  0  0  0  0  0  0  0
   19.6672   16.6837   21.3959 H   0  0  0  0  0  0  0  0  0  0  0  0
   18.3244   18.1065   22.3309 C   0  0  0  0  0  0  0  0  0  0  0  0
   18.0260   17.3971   23.1136 H   0  0  0  0  0  0  0  0  0  0  0  0
   17.5505   18.0910   21.5525 H   0  0  0  0  0  0  0  0  0  0  0  0
   18.3387   19.1076   22.7797 H   0  0  0  0  0  0  0  0  0  0  0  0
  1  2  1  0  0  0  0
  1  3  1  0  0  0  0
  1  4  1  0  0  0  0
  1  5  1  0  0  0  0
  5  6  1  0  0  0  0
  5  7  1  0  0  0  0
  5  8  1  0  0  0  0
  8  9  1  0  0  0  0
  8 10  1  0  0  0  0
  8 11  1  0  0  0  0
 11 12  1  0  0  0  0
 11 13  1  0  0  0  0
 11 14  1  0  0  0  0
 14 15  1  0  0  0  0
 14 16  1  0  0  0  0
 14 17  1  0  0  0  0
M  END
> <VConfSearch Rank>
534

> <Conf_Id>
43

> <Delta U+W>
0.642

> <U+W>
-15.222

> <U>
45.697

> <W>
-60.919

> <W(PB)>
-62.631

> <W(SA)>
1.712

> <Valence>
1.262

> <Coulomb>
44.179

> <VdW>
0.255

> <VdW6>
-3.552

> <VdW12>
3.807

> <Bond>
0.125

> <Angle>
0.616

> <Pdih>
0.521

> <Idih>
0.000

> <Tether>
0.000

$$$$
VeraChem MOL file


 17 16  0  0  0  0  0  0  0  0999 V2000     
   21.2326   21.2868   21.6730 N   0  3  0  0  0  0  0  0  0  0  0  0
   22.1640   20.9122   21.4689 H   0  0  0  0  0  0  0  0  0  0  0  0
   21.1837   21.4357   22.6855 H   0  0  0  0  0  0  0  0  0  0  0  0
   21.1830   22.2123   21.2348 H   0  0  0  0  0  0  0  0  0  0  0  0
   20.1310   20.3700   21.1799 C   0  0  0  0  0  0  0  0  0  0  0  0
   20.2258   20.2819   20.0942 H   0  0  0  0  0  0  0  0  0  0  0  0
   19.1716   20.8449   21.4025 H   0  0  0  0  0  0  0  0  0  0  0  0
   20.1757   18.9698   21.8185 C   0  0  0  0  0  0  0  0  0  0  0  0
   21.1464   18.5022   21.6060 H   0  0  0  0  0  0  0  0  0  0  0  0
   20.0956   19.0633   22.9098 H   0  0  0  0  0  0  0  0  0  0  0  0
   19.0382   18.0689   21.2895 C   0  0  0  0  0  0  0  0  0  0  0  0
   19.1159   17.9776   20.1968 H   0  0  0  0  0  0  0  0  0  0  0  0
   18.0664   18.5379   21.4990 H   0  0  0  0  0  0  0  0  0  0  0  0
   19.0767   16.6625   21.9257 C   0  0  0  0  0  0  0  0  0  0  0  0
   18.2614   16.0386   21.5370 H   0  0  0  0  0  0  0  0  0  0  0  0
   18.9663   16.7189   23.0165 H   0  0  0  0  0  0  0  0  0  0  0  0
   20.0241   16.1541   21.7040 H   0  0  0  0  0  0  0  0  0  0  0  0
  1  2  1  0  0  0  0
  1  3  1  0  0  0  0
  1  4  1  0  0  0  0
  1  5  1  0  0  0  0
  5  6  1  0  0  0  0
  5  7  1  0  0  0  0
  5  8  1  0  0  0  0
  8  9  1  0  0  0  0
  8 10  1  0  0  0  0
  8 11  1  0  0  0  0
 11 12  1  0  0  0  0
 11 13  1  0  0  0  0
 11 14  1  0  0  0  0
 14 15  1  0  0  0  0
 14 16  1  0  0  0  0
 14 17  1  0  0  0  0
M  END
> <VConfSearch Rank>
535

> <Conf_Id>
7

> <Delta U+W>
0.000

> <U+W>
-15.865

> <U>
44.664

> <W>
-60.529

> <W(PB)>
-62.309

> <W(SA)>
1.780

> <Valence>
0.872

> <Coulomb>
43.648

> <VdW>
0.144

> <VdW6>
-2.370

> <VdW12>
2.515

> <Bond>
0.080

> <Angle>
0.376

> <Pdih>
0.416

> <Idih>
0.000

> <Tether>
0.000

$$$$
VeraChem MOL file


 17 16  0  0  0  0  0  0  0  0999 V2000     
   19.9431   17.3591   23.2967 N   0  3  0  0  0  0  0  0  0  0  0  0
   18.9924   17.2467   23.6614 H   0  0  0  0  0  0  0  0  0  0  0  0
   20.4821   17.8584   24.0108 H   0  0  0  0  0  0  0  0  0  0  0  0
   20.3458   16.4192   23.2247 H   0  0  0  0  0  0  0  0  0  0  0  0
   19.9586   18.0825   21.9648 C   0  0  0  0  0  0  0  0  0  0  0  0
   19.3933   17.4816   21.2473 H   0  0  0  0  0  0  0  0  0  0  0  0
   20.9958   18.1372   21.6244 H   0  0  0  0  0  0  0  0  0  0  0  0
   19.3599   19.5003   22.0375 C   0  0  0  0  0  0  0  0  0  0  0  0
   18.3319   19.4377   22.4184 H   0  0  0  0  0  0  0  0  0  0  0  0
   19.9266   20.1033   22.7593 H   0  0  0  0  0  0  0  0  0  0  0  0
   19.3455   20.2128   20.6648 C   0  0  0  0  0  0  0  0  0  0  0  0
   18.8358   21.1808   20.7704 H   0  0  0  0  0  0  0  0  0  0  0  0
   18.7506   19.6270   19.9498 H   0  0  0  0  0  0  0  0  0  0  0  0
   20.7617   20.4486   20.0915 C   0  0  0  0  0  0  0  0  0  0  0  0
   21.3795   21.0274   20.7903 H   0  0  0  0  0  0  0  0  0  0  0  0
   20.7072   21.0094   19.1495 H   0  0  0  0  0  0  0  0  0  0  0  0
   21.2755   19.5016   19.8832 H   0  0  0  0  0  0  0  0  0  0  0  0
  1  2  1  0  0  0  0
  1  3  1  0  0  0  0
  1  4  1  0  0  0  0
  1  5  1  0  0  0  0
  5  6  1  0  0  0  0
  5  7  1  0  0  0  0
  5  8  1  0  0  0  0
  8  9  1  0  0  0  0
  8 10  1  0  0  0  0
  8 11  1  0  0  0  0
 11 12  1  0  0  0  0
 11 13  1  0  0  0  0
 11 14  1  0  0  0  0
 14 15  1  0  0  0  0
 14 16  1  0  0  0  0
 14 17  1  0  0  0  0
M  END
> <VConfSearch Rank>
536

> <Conf_Id>
36

> <Delta U+W>
0.275

> <U+W>
-15.590

> <U>
45.174

> <W>
-60.765

> <W(PB)>
-62.518

> <W(SA)>
1.754

> <Valence>
1.161

> <Coulomb>
43.789

> <VdW>
0.224

> <VdW6>
-2.897

> <VdW12>
3.121

> <Bond>
0.100

> <Angle>
0.500

> <Pdih>
0.561

> <Idih>
0.000

> <Tether>
0.000

$$$$
VeraChem MOL file


 17 16  0  0  0  0  0  0  0  0999 V2000     
   21.4585   19.7219   20.8237 N   0  3  0  0  0  0  0  0  0  0  0  0
   21.6407   18.7793   21.1774 H   0  0  0  0  0  0  0  0  0  0  0  0
   21.8380   20.3802   21.5108 H   0  0  0  0  0  0  0  0  0  0  0  0
   22.0100   19.8355   19.9671 H   0  0  0  0  0  0  0  0  0  0  0  0
   19.9801   19.9541   20.5778 C   0  0  0  0  0  0  0  0  0  0  0  0
   19.6469   19.2726   19.7904 H   0  0  0  0  0  0  0  0  0  0  0  0
   19.8745   20.9770   20.2063 H   0  0  0  0  0  0  0  0  0  0  0  0
   19.0937   19.7796   21.8290 C   0  0  0  0  0  0  0  0  0  0  0  0
   19.5641   20.2667   22.6934 H   0  0  0  0  0  0  0  0  0  0  0  0
   18.1548   20.3210   21.6524 H   0  0  0  0  0  0  0  0  0  0  0  0
   18.7395   18.3086   22.1658 C   0  0  0  0  0  0  0  0  0  0  0  0
   18.2130   17.8515   21.3162 H   0  0  0  0  0  0  0  0  0  0  0  0
   18.0260   18.3072   23.0018 H   0  0  0  0  0  0  0  0  0  0  0  0
   19.9522   17.4318   22.5524 C   0  0  0  0  0  0  0  0  0  0  0  0
   20.5937   17.2283   21.6871 H   0  0  0  0  0  0  0  0  0  0  0  0
   19.6127   16.4612   22.9371 H   0  0  0  0  0  0  0  0  0  0  0  0
   20.5548   17.9083   23.3365 H   0  0  0  0  0  0  0  0  0  0  0  0
  1  2  1  0  0  0  0
  1  3  1  0  0  0  0
  1  4  1  0  0  0  0
  1  5  1  0  0  0  0
  5  6  1  0  0  0  0
  5  7  1  0  0  0  0
  5  8  1  0  0  0  0
  8  9  1  0  0  0  0
  8 10  1  0  0  0  0
  8 11  1  0  0  0  0
 11 12  1  0  0  0  0
 11 13  1  0  0  0  0
 11 14  1  0  0  0  0
 14 15  1  0  0  0  0
 14 16  1  0  0  0  0
 14 17  1  0  0  0  0
M  END
> <VConfSearch Rank>
537

> <Conf_Id>
19

> <Delta U+W>
2.662

> <U+W>
-13.203

> <U>
47.423

> <W>
-60.626

> <W(PB)>
-62.328

> <W(SA)>
1.702

> <Valence>
2.414

> <Coulomb>
44.831

> <VdW>
0.178

> <VdW6>
-3.743

> <VdW12>
3.921

> <Bond>
0.138

> <Angle>
0.941

> <Pdih>
1.335

> <Idih>
0.000

> <Tether>
0.000

$$$$
VeraChem MOL file


 17 16  0  0  0  0  0  0  0  0999 V2000     
   20.8577   20.5888   21.1908 N   0  3  0  0  0  0  0  0  0  0  0  0
   21.5789   21.2494   21.4980 H   0  0  0  0  0  0  0  0  0  0  0  0
   20.4039   21.0041   20.3716 H   0  0  0  0  0  0  0  0  0  0  0  0
   21.3384   19.7436   20.8723 H   0  0  0  0  0  0  0  0  0  0  0  0
   19.8620   20.2872   22.2943 C   0  0  0  0  0  0  0  0  0  0  0  0
   19.3956   21.2363   22.5723 H   0  0  0  0  0  0  0  0  0  0  0  0
   20.4087   19.9121   23.1635 H   0  0  0  0  0  0  0  0  0  0  0  0
   18.7598   19.2828   21.8971 C   0  0  0  0  0  0  0  0  0  0  0  0
   17.9150   19.4235   22.5844 H   0  0  0  0  0  0  0  0  0  0  0  0
   18.3767   19.5219   20.8962 H   0  0  0  0  0  0  0  0  0  0  0  0
   19.1897   17.7952   21.9687 C   0  0  0  0  0  0  0  0  0  0  0  0
   18.3075   17.1702   21.7709 H   0  0  0  0  0  0  0  0  0  0  0  0
   19.5111   17.5522   22.9913 H   0  0  0  0  0  0  0  0  0  0  0  0
   20.3040   17.4034   20.9718 C   0  0  0  0  0  0  0  0  0  0  0  0
   20.0543   17.7193   19.9506 H   0  0  0  0  0  0  0  0  0  0  0  0
   20.4379   16.3138   20.9599 H   0  0  0  0  0  0  0  0  0  0  0  0
   21.2681   17.8429   21.2529 H   0  0  0  0  0  0  0  0  0  0  0  0
  1  2  1  0  0  0  0
  1  3  1  0  0  0  0
  1  4  1  0  0  0  0
  1  5  1  0  0  0  0
  5  6  1  0  0  0  0
  5  7  1  0  0  0  0
  5  8  1  0  0  0  0
  8  9  1  0  0  0  0
  8 10  1  0  0  0  0
  8 11  1  0  0  0  0
 11 12  1  0  0  0  0
 11 13  1  0  0  0  0
 11 14  1  0  0  0  0
 14 15  1  0  0  0  0
 14 16  1  0  0  0  0
 14 17  1  0  0  0  0
M  END
> <VConfSearch Rank>
538

> <Conf_Id>
44

> <Delta U+W>
2.712

> <U+W>
-13.153

> <U>
47.423

> <W>
-60.576

> <W(PB)>
-62.262

> <W(SA)>
1.687

> <Valence>
2.414

> <Coulomb>
44.831

> <VdW>
0.178

> <VdW6>
-3.743

> <VdW12>
3.922

> <Bond>
0.138

> <Angle>
0.941

> <Pdih>
1.335

> <Idih>
0.000

> <Tether>
0.000

$$$$
VeraChem MOL file


 17 16  0  0  0  0  0  0  0  0999 V2000     
   21.5671   19.6282   20.6604 N   0  3  0  0  0  0  0  0  0  0  0  0
   21.4428   18.6330   20.4540 H   0  0  0  0  0  0  0  0  0  0  0  0
   22.3593   19.7072   21.3050 H   0  0  0  0  0  0  0  0  0  0  0  0
   21.8488   20.0822   19.7856 H   0  0  0  0  0  0  0  0  0  0  0  0
   20.3063   20.2446   21.2351 C   0  0  0  0  0  0  0  0  0  0  0  0
   19.5130   20.1530   20.4887 H   0  0  0  0  0  0  0  0  0  0  0  0
   20.4989   21.3090   21.3946 H   0  0  0  0  0  0  0  0  0  0  0  0
   19.8488   19.6040   22.5618 C   0  0  0  0  0  0  0  0  0  0  0  0
   20.6355   19.7369   23.3163 H   0  0  0  0  0  0  0  0  0  0  0  0
   18.9733   20.1528   22.9333 H   0  0  0  0  0  0  0  0  0  0  0  0
   19.4959   18.1001   22.4466 C   0  0  0  0  0  0  0  0  0  0  0  0
   19.1971   17.7299   23.4373 H   0  0  0  0  0  0  0  0  0  0  0  0
   20.3873   17.5237   22.1639 H   0  0  0  0  0  0  0  0  0  0  0  0
   18.3552   17.8212   21.4412 C   0  0  0  0  0  0  0  0  0  0  0  0
   17.4512   18.3862   21.7034 H   0  0  0  0  0  0  0  0  0  0  0  0
   18.0948   16.7548   21.4405 H   0  0  0  0  0  0  0  0  0  0  0  0
   18.6435   18.0920   20.4178 H   0  0  0  0  0  0  0  0  0  0  0  0
  1  2  1  0  0  0  0
  1  3  1  0  0  0  0
  1  4  1  0  0  0  0
  1  5  1  0  0  0  0
  5  6  1  0  0  0  0
  5  7  1  0  0  0  0
  5  8  1  0  0  0  0
  8  9  1  0  0  0  0
  8 10  1  0  0  0  0
  8 11  1  0  0  0  0
 11 12  1  0  0  0  0
 11 13  1  0  0  0  0
 11 14  1  0  0  0  0
 14 15  1  0  0  0  0
 14 16  1  0  0  0  0
 14 17  1  0  0  0  0
M  END
> <VConfSearch Rank>
539

> <Conf_Id>
1

> <Delta U+W>
0.685

> <U+W>
-15.179

> <U>
45.697

> <W>
-60.876

> <W(PB)>
-62.586

> <W(SA)>
1.710

> <Valence>
1.263

> <Coulomb>
44.179

> <VdW>
0.255

> <VdW6>
-3.552

> <VdW12>
3.807

> <Bond>
0.125

> <Angle>
0.616

> <Pdih>
0.521

> <Idih>
0.000

> <Tether>
0.000

$$$$
VeraChem MOL file


 17 16  0  0  0  0  0  0  0  0999 V2000     
   18.4600   20.1878   22.2750 N   0  3  0  0  0  0  0  0  0  0  0  0
   18.8247   20.9862   22.8032 H   0  0  0  0  0  0  0  0  0  0  0  0
   18.5065   19.3709   22.8907 H   0  0  0  0  0  0  0  0  0  0  0  0
   17.4675   20.3749   22.1004 H   0  0  0  0  0  0  0  0  0  0  0  0
   19.2271   19.9642   20.9861 C   0  0  0  0  0  0  0  0  0  0  0  0
   19.1032   20.8561   20.3658 H   0  0  0  0  0  0  0  0  0  0  0  0
   18.7701   19.1215   20.4609 H   0  0  0  0  0  0  0  0  0  0  0  0
   20.7312   19.6927   21.1956 C   0  0  0  0  0  0  0  0  0  0  0  0
   21.2132   19.6083   20.2125 H   0  0  0  0  0  0  0  0  0  0  0  0
   21.1892   20.5614   21.6868 H   0  0  0  0  0  0  0  0  0  0  0  0
   21.0322   18.4173   22.0215 C   0  0  0  0  0  0  0  0  0  0  0  0
   20.6348   18.5245   23.0400 H   0  0  0  0  0  0  0  0  0  0  0  0
   22.1210   18.3149   22.1302 H   0  0  0  0  0  0  0  0  0  0  0  0
   20.4688   17.1307   21.3757 C   0  0  0  0  0  0  0  0  0  0  0  0
   20.7609   16.2476   21.9585 H   0  0  0  0  0  0  0  0  0  0  0  0
   20.8529   17.0005   20.3556 H   0  0  0  0  0  0  0  0  0  0  0  0
   19.3726   17.1486   21.3292 H   0  0  0  0  0  0  0  0  0  0  0  0
  1  2  1  0  0  0  0
  1  3  1  0  0  0  0
  1  4  1  0  0  0  0
  1  5  1  0  0  0  0
  5  6  1  0  0  0  0
  5  7  1  0  0  0  0
  5  8  1  0  0  0  0
  8  9  1  0  0  0  0
  8 10  1  0  0  0  0
  8 11  1  0  0  0  0
 11 12  1  0  0  0  0
 11 13  1  0  0  0  0
 11 14  1  0  0  0  0
 14 15  1  0  0  0  0
 14 16  1  0  0  0  0
 14 17  1  0  0  0  0
M  END
> <VConfSearch Rank>
540

> <Conf_Id>
43

> <Delta U+W>
0.642

> <U+W>
-15.222

> <U>
45.697

> <W>
-60.919

> <W(PB)>
-62.631

> <W(SA)>
1.712

> <Valence>
1.262

> <Coulomb>
44.179

> <VdW>
0.255

> <VdW6>
-3.552

> <VdW12>
3.807

> <Bond>
0.125

> <Angle>
0.616

> <Pdih>
0.521

> <Idih>
0.000

> <Tether>
0.000

$$$$
VeraChem MOL file


 17 16  0  0  0  0  0  0  0  0999 V2000     
   17.4089   19.2992   21.8067 N   0  3  0  0  0  0  0  0  0  0  0  0
   17.3283   19.0228   22.7899 H   0  0  0  0  0  0  0  0  0  0  0  0
   17.1538   18.4826   21.2429 H   0  0  0  0  0  0  0  0  0  0  0  0
   16.6905   20.0110   21.6392 H   0  0  0  0  0  0  0  0  0  0  0  0
   18.7964   19.8093   21.4720 C   0  0  0  0  0  0  0  0  0  0  0  0
   18.9878   20.6940   22.0853 H   0  0  0  0  0  0  0  0  0  0  0  0
   18.8001   20.1132   20.4217 H   0  0  0  0  0  0  0  0  0  0  0  0
   19.9013   18.7643   21.7122 C   0  0  0  0  0  0  0  0  0  0  0  0
   19.8844   18.4501   22.7643 H   0  0  0  0  0  0  0  0  0  0  0  0
   19.6975   17.8713   21.1064 H   0  0  0  0  0  0  0  0  0  0  0  0
   21.2970   19.3238   21.3595 C   0  0  0  0  0  0  0  0  0  0  0  0
   21.5003   20.2197   21.9632 H   0  0  0  0  0  0  0  0  0  0  0  0
   21.3135   19.6415   20.3073 H   0  0  0  0  0  0  0  0  0  0  0  0
   22.4105   18.2811   21.5980 C   0  0  0  0  0  0  0  0  0  0  0  0
   23.3933   18.6977   21.3418 H   0  0  0  0  0  0  0  0  0  0  0  0
   22.2533   17.3867   20.9812 H   0  0  0  0  0  0  0  0  0  0  0  0
   22.4414   17.9693   22.6502 H   0  0  0  0  0  0  0  0  0  0  0  0
  1  2  1  0  0  0  0
  1  3  1  0  0  0  0
  1  4  1  0  0  0  0
  1  5  1  0  0  0  0
  5  6  1  0  0  0  0
  5  7  1  0  0  0  0
  5  8  1  0  0  0  0
  8  9  1  0  0  0  0
  8 10  1  0  0  0  0
  8 11  1  0  0  0  0
 11 12  1  0  0  0  0
 11 13  1  0  0  0  0
 11 14  1  0  0  0  0
 14 15  1  0  0  0  0
 14 16  1  0  0  0  0
 14 17  1  0  0  0  0
M  END
> <VConfSearch Rank>
541

> <Conf_Id>
7

> <Delta U+W>
0.000

> <U+W>
-15.865

> <U>
44.664

> <W>
-60.529

> <W(PB)>
-62.309

> <W(SA)>
1.780

> <Valence>
0.872

> <Coulomb>
43.648

> <VdW>
0.144

> <VdW6>
-2.370

> <VdW12>
2.515

> <Bond>
0.080

> <Angle>
0.376

> <Pdih>
0.416

> <Idih>
0.000

> <Tether>
0.000

$$$$
VeraChem MOL file


 17 16  0  0  0  0  0  0  0  0999 V2000     
   18.3821   17.3839   20.9101 N   0  3  0  0  0  0  0  0  0  0  0  0
   17.4314   17.7637   20.9482 H   0  0  0  0  0  0  0  0  0  0  0  0
   18.4880   16.7576   21.7140 H   0  0  0  0  0  0  0  0  0  0  0  0
   18.4340   16.7990   20.0699 H   0  0  0  0  0  0  0  0  0  0  0  0
   19.4308   18.4781   20.9010 C   0  0  0  0  0  0  0  0  0  0  0  0
   19.2769   19.0862   20.0055 H   0  0  0  0  0  0  0  0  0  0  0  0
   20.4121   18.0021   20.8278 H   0  0  0  0  0  0  0  0  0  0  0  0
   19.3810   19.3768   22.1515 C   0  0  0  0  0  0  0  0  0  0  0  0
   18.3792   19.8182   22.2377 H   0  0  0  0  0  0  0  0  0  0  0  0
   19.5339   18.7657   23.0511 H   0  0  0  0  0  0  0  0  0  0  0  0
   20.4298   20.5128   22.1119 C   0  0  0  0  0  0  0  0  0  0  0  0
   20.2878   21.1604   22.9885 H   0  0  0  0  0  0  0  0  0  0  0  0
   20.2574   21.1453   21.2296 H   0  0  0  0  0  0  0  0  0  0  0  0
   21.8851   19.9915   22.1006 C   0  0  0  0  0  0  0  0  0  0  0  0
   22.0821   19.3508   22.9700 H   0  0  0  0  0  0  0  0  0  0  0  0
   22.5942   20.8288   22.1344 H   0  0  0  0  0  0  0  0  0  0  0  0
   22.0995   19.4132   21.1930 H   0  0  0  0  0  0  0  0  0  0  0  0
  1  2  1  0  0  0  0
  1  3  1  0  0  0  0
  1  4  1  0  0  0  0
  1  5  1  0  0  0  0
  5  6  1  0  0  0  0
  5  7  1  0  0  0  0
  5  8  1  0  0  0  0
  8  9  1  0  0  0  0
  8 10  1  0  0  0  0
  8 11  1  0  0  0  0
 11 12  1  0  0  0  0
 11 13  1  0  0  0  0
 11 14  1  0  0  0  0
 14 15  1  0  0  0  0
 14 16  1  0  0  0  0
 14 17  1  0  0  0  0
M  END
> <VConfSearch Rank>
542

> <Conf_Id>
36

> <Delta U+W>
0.275

> <U+W>
-15.590

> <U>
45.174

> <W>
-60.765

> <W(PB)>
-62.518

> <W(SA)>
1.754

> <Valence>
1.161

> <Coulomb>
43.789

> <VdW>
0.224

> <VdW6>
-2.897

> <VdW12>
3.121

> <Bond>
0.100

> <Angle>
0.500

> <Pdih>
0.561

> <Idih>
0.000

> <Tether>
0.000

$$$$
VeraChem MOL file


 17 16  0  0  0  0  0  0  0  0999 V2000     
   19.8413   18.4230   19.8331 N   0  3  0  0  0  0  0  0  0  0  0  0
   19.5583   17.6794   20.4764 H   0  0  0  0  0  0  0  0  0  0  0  0
   20.8044   18.2232   19.5465 H   0  0  0  0  0  0  0  0  0  0  0  0
   19.2577   18.3362   18.9949 H   0  0  0  0  0  0  0  0  0  0  0  0
   19.7155   19.7943   20.4686 C   0  0  0  0  0  0  0  0  0  0  0  0
   18.6612   19.9797   20.6904 H   0  0  0  0  0  0  0  0  0  0  0  0
   20.0368   20.5241   19.7205 H   0  0  0  0  0  0  0  0  0  0  0  0
   20.5590   19.9806   21.7475 C   0  0  0  0  0  0  0  0  0  0  0  0
   21.5631   19.5616   21.5996 H   0  0  0  0  0  0  0  0  0  0  0  0
   20.7021   21.0586   21.9001 H   0  0  0  0  0  0  0  0  0  0  0  0
   19.9157   19.3987   23.0321 C   0  0  0  0  0  0  0  0  0  0  0  0
   18.9388   19.8724   23.2035 H   0  0  0  0  0  0  0  0  0  0  0  0
   20.5433   19.6778   23.8902 H   0  0  0  0  0  0  0  0  0  0  0  0
   19.7487   17.8622   23.0236 C   0  0  0  0  0  0  0  0  0  0  0  0
   18.9700   17.5460   22.3198 H   0  0  0  0  0  0  0  0  0  0  0  0
   19.4481   17.5066   24.0177 H   0  0  0  0  0  0  0  0  0  0  0  0
   20.6892   17.3605   22.7610 H   0  0  0  0  0  0  0  0  0  0  0  0
  1  2  1  0  0  0  0
  1  3  1  0  0  0  0
  1  4  1  0  0  0  0
  1  5  1  0  0  0  0
  5  6  1  0  0  0  0
  5  7  1  0  0  0  0
  5  8  1  0  0  0  0
  8  9  1  0  0  0  0
  8 10  1  0  0  0  0
  8 11  1  0  0  0  0
 11 12  1  0  0  0  0
 11 13  1  0  0  0  0
 11 14  1  0  0  0  0
 14 15  1  0  0  0  0
 14 16  1  0  0  0  0
 14 17  1  0  0  0  0
M  END
> <VConfSearch Rank>
543

> <Conf_Id>
19

> <Delta U+W>
2.662

> <U+W>
-13.203

> <U>
47.423

> <W>
-60.626

> <W(PB)>
-62.328

> <W(SA)>
1.702

> <Valence>
2.414

> <Coulomb>
44.831

> <VdW>
0.178

> <VdW6>
-3.743

> <VdW12>
3.921

> <Bond>
0.138

> <Angle>
0.941

> <Pdih>
1.335

> <Idih>
0.000

> <Tether>
0.000

$$$$
VeraChem MOL file


 17 16  0  0  0  0  0  0  0  0999 V2000     
   18.9101   17.6506   20.8776 N   0  3  0  0  0  0  0  0  0  0  0  0
   18.9359   16.8013   20.3041 H   0  0  0  0  0  0  0  0  0  0  0  0
   17.9227   17.8861   21.0153 H   0  0  0  0  0  0  0  0  0  0  0  0
   19.2922   17.4072   21.7950 H   0  0  0  0  0  0  0  0  0  0  0  0
   19.6766   18.7897   20.2334 C   0  0  0  0  0  0  0  0  0  0  0  0
   19.2056   18.9856   19.2663 H   0  0  0  0  0  0  0  0  0  0  0  0
   20.7021   18.4587   20.0488 H   0  0  0  0  0  0  0  0  0  0  0  0
   19.6892   20.0931   21.0597 C   0  0  0  0  0  0  0  0  0  0  0  0
   19.9140   20.9216   20.3748 H   0  0  0  0  0  0  0  0  0  0  0  0
   18.6859   20.2952   21.4576 H   0  0  0  0  0  0  0  0  0  0  0  0
   20.7376   20.1205   22.2011 C   0  0  0  0  0  0  0  0  0  0  0  0
   20.7329   21.1231   22.6512 H   0  0  0  0  0  0  0  0  0  0  0  0
   21.7439   19.9803   21.7820 H   0  0  0  0  0  0  0  0  0  0  0  0
   20.4947   19.0789   23.3169 C   0  0  0  0  0  0  0  0  0  0  0  0
   19.4644   19.1298   23.6923 H   0  0  0  0  0  0  0  0  0  0  0  0
   21.1673   19.2653   24.1643 H   0  0  0  0  0  0  0  0  0  0  0  0
   20.6941   18.0597   22.9662 H   0  0  0  0  0  0  0  0  0  0  0  0
  1  2  1  0  0  0  0
  1  3  1  0  0  0  0
  1  4  1  0  0  0  0
  1  5  1  0  0  0  0
  5  6  1  0  0  0  0
  5  7  1  0  0  0  0
  5  8  1  0  0  0  0
  8  9  1  0  0  0  0
  8 10  1  0  0  0  0
  8 11  1  0  0  0  0
 11 12  1  0  0  0  0
 11 13  1  0  0  0  0
 11 14  1  0  0  0  0
 14 15  1  0  0  0  0
 14 16  1  0  0  0  0
 14 17  1  0  0  0  0
M  END
> <VConfSearch Rank>
544

> <Conf_Id>
44

> <Delta U+W>
2.712

> <U+W>
-13.153

> <U>
47.423

> <W>
-60.576

> <W(PB)>
-62.262

> <W(SA)>
1.687

> <Valence>
2.414

> <Coulomb>
44.831

> <VdW>
0.178

> <VdW6>
-3.743

> <VdW12>
3.922

> <Bond>
0.138

> <Angle>
0.941

> <Pdih>
1.335

> <Idih>
0.000

> <Tether>
0.000

$$$$
VeraChem MOL file


 17 16  0  0  0  0  0  0  0  0999 V2000     
   19.0174   20.4820   22.6241 N   0  3  0  0  0  0  0  0  0  0  0  0
   18.3187   20.0795   21.9930 H   0  0  0  0  0  0  0  0  0  0  0  0
   19.2572   21.4086   22.2590 H   0  0  0  0  0  0  0  0  0  0  0  0
   18.5557   20.6284   23.5274 H   0  0  0  0  0  0  0  0  0  0  0  0
   20.2380   19.5912   22.7523 C   0  0  0  0  0  0  0  0  0  0  0  0
   19.9175   18.6345   23.1727 H   0  0  0  0  0  0  0  0  0  0  0  0
   20.9203   20.0619   23.4653 H   0  0  0  0  0  0  0  0  0  0  0  0
   20.9773   19.3522   21.4195 C   0  0  0  0  0  0  0  0  0  0  0  0
   21.3307   20.3145   21.0258 H   0  0  0  0  0  0  0  0  0  0  0  0
   21.8768   18.7548   21.6190 H   0  0  0  0  0  0  0  0  0  0  0  0
   20.1211   18.6396   20.3431 C   0  0  0  0  0  0  0  0  0  0  0  0
   20.7227   18.5266   19.4303 H   0  0  0  0  0  0  0  0  0  0  0  0
   19.2642   19.2682   20.0652 H   0  0  0  0  0  0  0  0  0  0  0  0
   19.6217   17.2469   20.7910 C   0  0  0  0  0  0  0  0  0  0  0  0
   20.4615   16.5986   21.0733 H   0  0  0  0  0  0  0  0  0  0  0  0
   19.0769   16.7528   19.9761 H   0  0  0  0  0  0  0  0  0  0  0  0
   18.9409   17.3184   21.6485 H   0  0  0  0  0  0  0  0  0  0  0  0
  1  2  1  0  0  0  0
  1  3  1  0  0  0  0
  1  4  1  0  0  0  0
  1  5  1  0  0  0  0
  5  6  1  0  0  0  0
  5  7  1  0  0  0  0
  5  8  1  0  0  0  0
  8  9  1  0  0  0  0
  8 10  1  0  0  0  0
  8 11  1  0  0  0  0
 11 12  1  0  0  0  0
 11 13  1  0  0  0  0
 11 14  1  0  0  0  0
 14 15  1  0  0  0  0
 14 16  1  0  0  0  0
 14 17  1  0  0  0  0
M  END
> <VConfSearch Rank>
545

> <Conf_Id>
1

> <Delta U+W>
0.685

> <U+W>
-15.179

> <U>
45.697

> <W>
-60.876

> <W(PB)>
-62.586

> <W(SA)>
1.710

> <Valence>
1.263

> <Coulomb>
44.179

> <VdW>
0.255

> <VdW6>
-3.552

> <VdW12>
3.807

> <Bond>
0.125

> <Angle>
0.616

> <Pdih>
0.521

> <Idih>
0.000

> <Tether>
0.000

$$$$
VeraChem MOL file


 17 16  0  0  0  0  0  0  0  0999 V2000     
   20.1148   19.8111   23.4157 N   0  3  0  0  0  0  0  0  0  0  0  0
   20.5112   19.1357   24.0761 H   0  0  0  0  0  0  0  0  0  0  0  0
   19.1272   19.5705   23.2929 H   0  0  0  0  0  0  0  0  0  0  0  0
   20.1449   20.7277   23.8735 H   0  0  0  0  0  0  0  0  0  0  0  0
   20.8604   19.8155   22.0951 C   0  0  0  0  0  0  0  0  0  0  0  0
   21.8924   20.1155   22.2964 H   0  0  0  0  0  0  0  0  0  0  0  0
   20.4074   20.5745   21.4520 H   0  0  0  0  0  0  0  0  0  0  0  0
   20.8565   18.4522   21.3731 C   0  0  0  0  0  0  0  0  0  0  0  0
   21.4698   18.5334   20.4659 H   0  0  0  0  0  0  0  0  0  0  0  0
   21.3498   17.7058   22.0098 H   0  0  0  0  0  0  0  0  0  0  0  0
   19.4434   17.9468   20.9891 C   0  0  0  0  0  0  0  0  0  0  0  0
   18.8459   17.7724   21.8942 H   0  0  0  0  0  0  0  0  0  0  0  0
   19.5393   16.9692   20.4961 H   0  0  0  0  0  0  0  0  0  0  0  0
   18.6904   18.9130   20.0461 C   0  0  0  0  0  0  0  0  0  0  0  0
   17.7240   18.4856   19.7487 H   0  0  0  0  0  0  0  0  0  0  0  0
   19.2680   19.1024   19.1321 H   0  0  0  0  0  0  0  0  0  0  0  0
   18.4906   19.8768   20.5310 H   0  0  0  0  0  0  0  0  0  0  0  0
  1  2  1  0  0  0  0
  1  3  1  0  0  0  0
  1  4  1  0  0  0  0
  1  5  1  0  0  0  0
  5  6  1  0  0  0  0
  5  7  1  0  0  0  0
  5  8  1  0  0  0  0
  8  9  1  0  0  0  0
  8 10  1  0  0  0  0
  8 11  1  0  0  0  0
 11 12  1  0  0  0  0
 11 13  1  0  0  0  0
 11 14  1  0  0  0  0
 14 15  1  0  0  0  0
 14 16  1  0  0  0  0
 14 17  1  0  0  0  0
M  END
> <VConfSearch Rank>
546

> <Conf_Id>
43

> <Delta U+W>
0.642

> <U+W>
-15.222

> <U>
45.697

> <W>
-60.919

> <W(PB)>
-62.631

> <W(SA)>
1.712

> <Valence>
1.262

> <Coulomb>
44.179

> <VdW>
0.255

> <VdW6>
-3.552

> <VdW12>
3.807

> <Bond>
0.125

> <Angle>
0.616

> <Pdih>
0.521

> <Idih>
0.000

> <Tether>
0.000

$$$$
VeraChem MOL file


 17 16  0  0  0  0  0  0  0  0999 V2000     
   18.0556   20.7698   21.8373 N   0  3  0  0  0  0  0  0  0  0  0  0
   18.4725   21.3296   22.5873 H   0  0  0  0  0  0  0  0  0  0  0  0
   17.3697   20.1461   22.2734 H   0  0  0  0  0  0  0  0  0  0  0  0
   17.5301   21.4175   21.2412 H   0  0  0  0  0  0  0  0  0  0  0  0
   19.1014   20.0036   21.0520 C   0  0  0  0  0  0  0  0  0  0  0  0
   19.7771   20.7297   20.5919 H   0  0  0  0  0  0  0  0  0  0  0  0
   18.5912   19.4570   20.2543 H   0  0  0  0  0  0  0  0  0  0  0  0
   19.9103   19.0203   21.9176 C   0  0  0  0  0  0  0  0  0  0  0  0
   20.4087   19.5706   22.7268 H   0  0  0  0  0  0  0  0  0  0  0  0
   19.2269   18.3022   22.3902 H   0  0  0  0  0  0  0  0  0  0  0  0
   20.9631   18.2616   21.0802 C   0  0  0  0  0  0  0  0  0  0  0  0
   21.6454   18.9800   20.6042 H   0  0  0  0  0  0  0  0  0  0  0  0
   20.4651   17.7131   20.2681 H   0  0  0  0  0  0  0  0  0  0  0  0
   21.7785   17.2734   21.9419 C   0  0  0  0  0  0  0  0  0  0  0  0
   22.5202   16.7450   21.3289 H   0  0  0  0  0  0  0  0  0  0  0  0
   21.1265   16.5206   22.4039 H   0  0  0  0  0  0  0  0  0  0  0  0
   22.3161   17.7975   22.7427 H   0  0  0  0  0  0  0  0  0  0  0  0
  1  2  1  0  0  0  0
  1  3  1  0  0  0  0
  1  4  1  0  0  0  0
  1  5  1  0  0  0  0
  5  6  1  0  0  0  0
  5  7  1  0  0  0  0
  5  8  1  0  0  0  0
  8  9  1  0  0  0  0
  8 10  1  0  0  0  0
  8 11  1  0  0  0  0
 11 12  1  0  0  0  0
 11 13  1  0  0  0  0
 11 14  1  0  0  0  0
 14 15  1  0  0  0  0
 14 16  1  0  0  0  0
 14 17  1  0  0  0  0
M  END
> <VConfSearch Rank>
547

> <Conf_Id>
7

> <Delta U+W>
0.000

> <U+W>
-15.865

> <U>
44.664

> <W>
-60.529

> <W(PB)>
-62.309

> <W(SA)>
1.780

> <Valence>
0.872

> <Coulomb>
43.648

> <VdW>
0.144

> <VdW6>
-2.370

> <VdW12>
2.515

> <Bond>
0.080

> <Angle>
0.376

> <Pdih>
0.416

> <Idih>
0.000

> <Tether>
0.000

$$$$
VeraChem MOL file


 17 16  0  0  0  0  0  0  0  0999 V2000     
   21.7928   19.5930   23.0713 N   0  3  0  0  0  0  0  0  0  0  0  0
   22.4809   18.8380   22.9922 H   0  0  0  0  0  0  0  0  0  0  0  0
   21.3105   19.4677   23.9665 H   0  0  0  0  0  0  0  0  0  0  0  0
   22.3208   20.4691   23.1390 H   0  0  0  0  0  0  0  0  0  0  0  0
   20.8270   19.6058   21.9032 C   0  0  0  0  0  0  0  0  0  0  0  0
   21.4039   19.7726   20.9895 H   0  0  0  0  0  0  0  0  0  0  0  0
   20.1473   20.4510   22.0386 H   0  0  0  0  0  0  0  0  0  0  0  0
   20.0159   18.3023   21.7722 C   0  0  0  0  0  0  0  0  0  0  0  0
   20.7086   17.4556   21.6769 H   0  0  0  0  0  0  0  0  0  0  0  0
   19.4378   18.1339   22.6905 H   0  0  0  0  0  0  0  0  0  0  0  0
   19.0631   18.3126   20.5541 C   0  0  0  0  0  0  0  0  0  0  0  0
   18.5776   17.3299   20.4724 H   0  0  0  0  0  0  0  0  0  0  0  0
   19.6438   18.4477   19.6307 H   0  0  0  0  0  0  0  0  0  0  0  0
   17.9746   19.4064   20.6476 C   0  0  0  0  0  0  0  0  0  0  0  0
   17.3829   19.2975   21.5658 H   0  0  0  0  0  0  0  0  0  0  0  0
   17.2859   19.3379   19.7955 H   0  0  0  0  0  0  0  0  0  0  0  0
   18.4121   20.4127   20.6390 H   0  0  0  0  0  0  0  0  0  0  0  0
  1  2  1  0  0  0  0
  1  3  1  0  0  0  0
  1  4  1  0  0  0  0
  1  5  1  0  0  0  0
  5  6  1  0  0  0  0
  5  7  1  0  0  0  0
  5  8  1  0  0  0  0
  8  9  1  0  0  0  0
  8 10  1  0  0  0  0
  8 11  1  0  0  0  0
 11 12  1  0  0  0  0
 11 13  1  0  0  0  0
 11 14  1  0  0  0  0
 14 15  1  0  0  0  0
 14 16  1  0  0  0  0
 14 17  1  0  0  0  0
M  END
> <VConfSearch Rank>
548

> <Conf_Id>
36

> <Delta U+W>
0.275

> <U+W>
-15.590

> <U>
45.174

> <W>
-60.765

> <W(PB)>
-62.518

> <W(SA)>
1.754

> <Valence>
1.161

> <Coulomb>
43.789

> <VdW>
0.224

> <VdW6>
-2.897

> <VdW12>
3.121

> <Bond>
0.100

> <Angle>
0.500

> <Pdih>
0.561

> <Idih>
0.000

> <Tether>
0.000

$$$$
VeraChem MOL file


 17 16  0  0  0  0  0  0  0  0999 V2000     
   20.5015   20.0045   23.0518 N   0  3  0  0  0  0  0  0  0  0  0  0
   19.5827   19.5886   23.2241 H   0  0  0  0  0  0  0  0  0  0  0  0
   20.3451   20.9824   22.7894 H   0  0  0  0  0  0  0  0  0  0  0  0
   21.0022   20.0132   23.9463 H   0  0  0  0  0  0  0  0  0  0  0  0
   21.2687   19.2500   21.9831 C   0  0  0  0  0  0  0  0  0  0  0  0
   21.4651   18.2373   22.3451 H   0  0  0  0  0  0  0  0  0  0  0  0
   22.2295   19.7574   21.8609 H   0  0  0  0  0  0  0  0  0  0  0  0
   20.5560   19.1869   20.6157 C   0  0  0  0  0  0  0  0  0  0  0  0
   20.1373   20.1705   20.3646 H   0  0  0  0  0  0  0  0  0  0  0  0
   21.3163   18.9792   19.8511 H   0  0  0  0  0  0  0  0  0  0  0  0
   19.4630   18.0929   20.5105 C   0  0  0  0  0  0  0  0  0  0  0  0
   19.9080   17.1063   20.7018 H   0  0  0  0  0  0  0  0  0  0  0  0
   19.0990   18.0660   19.4737 H   0  0  0  0  0  0  0  0  0  0  0  0
   18.2548   18.3041   21.4509 C   0  0  0  0  0  0  0  0  0  0  0  0
   18.5260   18.1327   22.4991 H   0  0  0  0  0  0  0  0  0  0  0  0
   17.4532   17.5953   21.2055 H   0  0  0  0  0  0  0  0  0  0  0  0
   17.8448   19.3176   21.3517 H   0  0  0  0  0  0  0  0  0  0  0  0
  1  2  1  0  0  0  0
  1  3  1  0  0  0  0
  1  4  1  0  0  0  0
  1  5  1  0  0  0  0
  5  6  1  0  0  0  0
  5  7  1  0  0  0  0
  5  8  1  0  0  0  0
  8  9  1  0  0  0  0
  8 10  1  0  0  0  0
  8 11  1  0  0  0  0
 11 12  1  0  0  0  0
 11 13  1  0  0  0  0
 11 14  1  0  0  0  0
 14 15  1  0  0  0  0
 14 16  1  0  0  0  0
 14 17  1  0  0  0  0
M  END
> <VConfSearch Rank>
549

> <Conf_Id>
19

> <Delta U+W>
2.662

> <U+W>
-13.203

> <U>
47.423

> <W>
-60.626

> <W(PB)>
-62.328

> <W(SA)>
1.702

> <Valence>
2.414

> <Coulomb>
44.831

> <VdW>
0.178

> <VdW6>
-3.743

> <VdW12>
3.921

> <Bond>
0.138

> <Angle>
0.941

> <Pdih>
1.335

> <Idih>
0.000

> <Tether>
0.000

$$$$
VeraChem MOL file


 17 16  0  0  0  0  0  0  0  0999 V2000     
   19.5665   17.8116   20.2609 N   0  3  0  0  0  0  0  0  0  0  0  0
   19.6818   17.5737   19.2705 H   0  0  0  0  0  0  0  0  0  0  0  0
   18.9031   17.1368   20.6533 H   0  0  0  0  0  0  0  0  0  0  0  0
   20.4674   17.6484   20.7176 H   0  0  0  0  0  0  0  0  0  0  0  0
   19.0928   19.2404   20.4464 C   0  0  0  0  0  0  0  0  0  0  0  0
   18.1310   19.3276   19.9337 H   0  0  0  0  0  0  0  0  0  0  0  0
   19.8016   19.9092   19.9508 H   0  0  0  0  0  0  0  0  0  0  0  0
   18.9174   19.6644   21.9199 C   0  0  0  0  0  0  0  0  0  0  0  0
   18.2367   20.5258   21.9417 H   0  0  0  0  0  0  0  0  0  0  0  0
   18.4130   18.8676   22.4825 H   0  0  0  0  0  0  0  0  0  0  0  0
   20.2315   20.0774   22.6307 C   0  0  0  0  0  0  0  0  0  0  0  0
   19.9793   20.4580   23.6305 H   0  0  0  0  0  0  0  0  0  0  0  0
   20.6939   20.9175   22.0936 H   0  0  0  0  0  0  0  0  0  0  0  0
   21.2612   18.9350   22.7843 C   0  0  0  0  0  0  0  0  0  0  0  0
   20.8038   18.0437   23.2330 H   0  0  0  0  0  0  0  0  0  0  0  0
   22.0852   19.2508   23.4373 H   0  0  0  0  0  0  0  0  0  0  0  0
   21.7029   18.6591   21.8197 H   0  0  0  0  0  0  0  0  0  0  0  0
  1  2  1  0  0  0  0
  1  3  1  0  0  0  0
  1  4  1  0  0  0  0
  1  5  1  0  0  0  0
  5  6  1  0  0  0  0
  5  7  1  0  0  0  0
  5  8  1  0  0  0  0
  8  9  1  0  0  0  0
  8 10  1  0  0  0  0
  8 11  1  0  0  0  0
 11 12  1  0  0  0  0
 11 13  1  0  0  0  0
 11 14  1  0  0  0  0
 14 15  1  0  0  0  0
 14 16  1  0  0  0  0
 14 17  1  0  0  0  0
M  END
> <VConfSearch Rank>
550

> <Conf_Id>
44

> <Delta U+W>
2.712

> <U+W>
-13.153

> <U>
47.423

> <W>
-60.576

> <W(PB)>
-62.262

> <W(SA)>
1.687

> <Valence>
2.414

> <Coulomb>
44.831

> <VdW>
0.178

> <VdW6>
-3.743

> <VdW12>
3.922

> <Bond>
0.138

> <Angle>
0.941

> <Pdih>
1.335

> <Idih>
0.000

> <Tether>
0.000

$$$$
VeraChem MOL file


 17 16  0  0  0  0  0  0  0  0999 V2000     
   19.0593   20.7973   21.9379 N   0  3  0  0  0  0  0  0  0  0  0  0
   19.8060   20.9538   21.2551 H   0  0  0  0  0  0  0  0  0  0  0  0
   19.3705   21.2032   22.8255 H   0  0  0  0  0  0  0  0  0  0  0  0
   18.2504   21.3450   21.6276 H   0  0  0  0  0  0  0  0  0  0  0  0
   18.7239   19.3247   22.0761 C   0  0  0  0  0  0  0  0  0  0  0  0
   18.3726   18.9641   21.1059 H   0  0  0  0  0  0  0  0  0  0  0  0
   17.8989   19.2365   22.7882 H   0  0  0  0  0  0  0  0  0  0  0  0
   19.9073   18.4589   22.5556 C   0  0  0  0  0  0  0  0  0  0  0  0
   20.2265   18.8028   23.5483 H   0  0  0  0  0  0  0  0  0  0  0  0
   19.5564   17.4268   22.6879 H   0  0  0  0  0  0  0  0  0  0  0  0
   21.1221   18.4644   21.5945 C   0  0  0  0  0  0  0  0  0  0  0  0
   21.9155   17.8364   22.0235 H   0  0  0  0  0  0  0  0  0  0  0  0
   21.5424   19.4768   21.5230 H   0  0  0  0  0  0  0  0  0  0  0  0
   20.7780   17.9426   20.1806 C   0  0  0  0  0  0  0  0  0  0  0  0
   20.3564   16.9300   20.2255 H   0  0  0  0  0  0  0  0  0  0  0  0
   21.6792   17.9023   19.5551 H   0  0  0  0  0  0  0  0  0  0  0  0
   20.0533   18.5932   19.6752 H   0  0  0  0  0  0  0  0  0  0  0  0
  1  2  1  0  0  0  0
  1  3  1  0  0  0  0
  1  4  1  0  0  0  0
  1  5  1  0  0  0  0
  5  6  1  0  0  0  0
  5  7  1  0  0  0  0
  5  8  1  0  0  0  0
  8  9  1  0  0  0  0
  8 10  1  0  0  0  0
  8 11  1  0  0  0  0
 11 12  1  0  0  0  0
 11 13  1  0  0  0  0
 11 14  1  0  0  0  0
 14 15  1  0  0  0  0
 14 16  1  0  0  0  0
 14 17  1  0  0  0  0
M  END
> <VConfSearch Rank>
551

> <Conf_Id>
1

> <Delta U+W>
0.685

> <U+W>
-15.179

> <U>
45.697

> <W>
-60.876

> <W(PB)>
-62.586

> <W(SA)>
1.710

> <Valence>
1.263

> <Coulomb>
44.179

> <VdW>
0.255

> <VdW6>
-3.552

> <VdW12>
3.807

> <Bond>
0.125

> <Angle>
0.616

> <Pdih>
0.521

> <Idih>
0.000

> <Tether>
0.000

$$$$
VeraChem MOL file


 17 16  0  0  0  0  0  0  0  0999 V2000     
   18.9648   17.4405   22.3036 N   0  3  0  0  0  0  0  0  0  0  0  0
   17.9835   17.6535   22.5061 H   0  0  0  0  0  0  0  0  0  0  0  0
   19.5224   17.8208   23.0736 H   0  0  0  0  0  0  0  0  0  0  0  0
   19.0615   16.4206   22.3394 H   0  0  0  0  0  0  0  0  0  0  0  0
   19.4007   18.0015   20.9638 C   0  0  0  0  0  0  0  0  0  0  0  0
   18.7920   17.5262   20.1898 H   0  0  0  0  0  0  0  0  0  0  0  0
   20.4423   17.7143   20.7981 H   0  0  0  0  0  0  0  0  0  0  0  0
   19.2600   19.5339   20.8548 C   0  0  0  0  0  0  0  0  0  0  0  0
   19.5352   19.8405   19.8369 H   0  0  0  0  0  0  0  0  0  0  0  0
   18.2046   19.8089   20.9820 H   0  0  0  0  0  0  0  0  0  0  0  0
   20.1223   20.3198   21.8739 C   0  0  0  0  0  0  0  0  0  0  0  0
   19.7967   20.0930   22.8982 H   0  0  0  0  0  0  0  0  0  0  0  0
   19.9465   21.3952   21.7311 H   0  0  0  0  0  0  0  0  0  0  0  0
   21.6353   20.0353   21.7335 C   0  0  0  0  0  0  0  0  0  0  0  0
   22.2107   20.6605   22.4285 H   0  0  0  0  0  0  0  0  0  0  0  0
   21.9855   20.2558   20.7168 H   0  0  0  0  0  0  0  0  0  0  0  0
   21.8718   18.9876   21.9576 H   0  0  0  0  0  0  0  0  0  0  0  0
  1  2  1  0  0  0  0
  1  3  1  0  0  0  0
  1  4  1  0  0  0  0
  1  5  1  0  0  0  0
  5  6  1  0  0  0  0
  5  7  1  0  0  0  0
  5  8  1  0  0  0  0
  8  9  1  0  0  0  0
  8 10  1  0  0  0  0
  8 11  1  0  0  0  0
 11 12  1  0  0  0  0
 11 13  1  0  0  0  0
 11 14  1  0  0  0  0
 14 15  1  0  0  0  0
 14 16  1  0  0  0  0
 14 17  1  0  0  0  0
M  END
> <VConfSearch Rank>
552

> <Conf_Id>
43

> <Delta U+W>
0.642

> <U+W>
-15.222

> <U>
45.697

> <W>
-60.919

> <W(PB)>
-62.631

> <W(SA)>
1.712

> <Valence>
1.262

> <Coulomb>
44.179

> <VdW>
0.255

> <VdW6>
-3.552

> <VdW12>
3.807

> <Bond>
0.125

> <Angle>
0.616

> <Pdih>
0.521

> <Idih>
0.000

> <Tether>
0.000

$$$$
VeraChem MOL file


 17 16  0  0  0  0  0  0  0  0999 V2000     
   18.7439   18.5688   23.8105 N   0  3  0  0  0  0  0  0  0  0  0  0
   19.5759   18.4801   24.4018 H   0  0  0  0  0  0  0  0  0  0  0  0
   18.4341   17.6192   23.5829 H   0  0  0  0  0  0  0  0  0  0  0  0
   18.0109   18.9882   24.3917 H   0  0  0  0  0  0  0  0  0  0  0  0
   19.0162   19.3909   22.5666 C   0  0  0  0  0  0  0  0  0  0  0  0
   19.3105   20.3952   22.8834 H   0  0  0  0  0  0  0  0  0  0  0  0
   18.0826   19.4695   22.0028 H   0  0  0  0  0  0  0  0  0  0  0  0
   20.1132   18.7890   21.6697 C   0  0  0  0  0  0  0  0  0  0  0  0
   21.0449   18.6973   22.2437 H   0  0  0  0  0  0  0  0  0  0  0  0
   19.8212   17.7748   21.3660 H   0  0  0  0  0  0  0  0  0  0  0  0
   20.3591   19.6561   20.4154 C   0  0  0  0  0  0  0  0  0  0  0  0
   20.6482   20.6724   20.7187 H   0  0  0  0  0  0  0  0  0  0  0  0
   19.4260   19.7510   19.8421 H   0  0  0  0  0  0  0  0  0  0  0  0
   21.4584   19.0585   19.5108 C   0  0  0  0  0  0  0  0  0  0  0  0
   21.6179   19.6887   18.6262 H   0  0  0  0  0  0  0  0  0  0  0  0
   21.1819   18.0546   19.1631 H   0  0  0  0  0  0  0  0  0  0  0  0
   22.4137   18.9833   20.0466 H   0  0  0  0  0  0  0  0  0  0  0  0
  1  2  1  0  0  0  0
  1  3  1  0  0  0  0
  1  4  1  0  0  0  0
  1  5  1  0  0  0  0
  5  6  1  0  0  0  0
  5  7  1  0  0  0  0
  5  8  1  0  0  0  0
  8  9  1  0  0  0  0
  8 10  1  0  0  0  0
  8 11  1  0  0  0  0
 11 12  1  0  0  0  0
 11 13  1  0  0  0  0
 11 14  1  0  0  0  0
 14 15  1  0  0  0  0
 14 16  1  0  0  0  0
 14 17  1  0  0  0  0
M  END
> <VConfSearch Rank>
553

> <Conf_Id>
7

> <Delta U+W>
0.000

> <U+W>
-15.865

> <U>
44.664

> <W>
-60.529

> <W(PB)>
-62.309

> <W(SA)>
1.780

> <Valence>
0.872

> <Coulomb>
43.648

> <VdW>
0.144

> <VdW6>
-2.370

> <VdW12>
2.515

> <Bond>
0.080

> <Angle>
0.376

> <Pdih>
0.416

> <Idih>
0.000

> <Tether>
0.000

$$$$
VeraChem MOL file


 17 16  0  0  0  0  0  0  0  0999 V2000     
   20.3634   16.7222   21.5646 N   0  3  0  0  0  0  0  0  0  0  0  0
   19.7598   16.2943   20.8559 H   0  0  0  0  0  0  0  0  0  0  0  0
   19.9673   16.4859   22.4794 H   0  0  0  0  0  0  0  0  0  0  0  0
   21.2715   16.2505   21.5040 H   0  0  0  0  0  0  0  0  0  0  0  0
   20.4921   18.2200   21.3714 C   0  0  0  0  0  0  0  0  0  0  0  0
   20.9468   18.3968   20.3929 H   0  0  0  0  0  0  0  0  0  0  0  0
   21.1711   18.6005   22.1389 H   0  0  0  0  0  0  0  0  0  0  0  0
   19.1438   18.9609   21.4569 C   0  0  0  0  0  0  0  0  0  0  0  0
   18.4562   18.5440   20.7090 H   0  0  0  0  0  0  0  0  0  0  0  0
   18.6864   18.7820   22.4390 H   0  0  0  0  0  0  0  0  0  0  0  0
   19.2834   20.4827   21.2192 C   0  0  0  0  0  0  0  0  0  0  0  0
   18.2823   20.9363   21.2134 H   0  0  0  0  0  0  0  0  0  0  0  0
   19.7104   20.6643   20.2228 H   0  0  0  0  0  0  0  0  0  0  0  0
   20.1487   21.1848   22.2907 C   0  0  0  0  0  0  0  0  0  0  0  0
   19.7465   21.0137   23.2977 H   0  0  0  0  0  0  0  0  0  0  0  0
   20.1701   22.2687   22.1186 H   0  0  0  0  0  0  0  0  0  0  0  0
   21.1856   20.8262   22.2703 H   0  0  0  0  0  0  0  0  0  0  0  0
  1  2  1  0  0  0  0
  1  3  1  0  0  0  0
  1  4  1  0  0  0  0
  1  5  1  0  0  0  0
  5  6  1  0  0  0  0
  5  7  1  0  0  0  0
  5  8  1  0  0  0  0
  8  9  1  0  0  0  0
  8 10  1  0  0  0  0
  8 11  1  0  0  0  0
 11 12  1  0  0  0  0
 11 13  1  0  0  0  0
 11 14  1  0  0  0  0
 14 15  1  0  0  0  0
 14 16  1  0  0  0  0
 14 17  1  0  0  0  0
M  END
> <VConfSearch Rank>
554

> <Conf_Id>
36

> <Delta U+W>
0.275

> <U+W>
-15.590

> <U>
45.174

> <W>
-60.765

> <W(PB)>
-62.518

> <W(SA)>
1.754

> <Valence>
1.161

> <Coulomb>
43.789

> <VdW>
0.224

> <VdW6>
-2.897

> <VdW12>
3.121

> <Bond>
0.100

> <Angle>
0.500

> <Pdih>
0.561

> <Idih>
0.000

> <Tether>
0.000

$$$$
VeraChem MOL file


 17 16  0  0  0  0  0  0  0  0999 V2000     
   21.5937   19.2343   20.7927 N   0  3  0  0  0  0  0  0  0  0  0  0
   21.1073   18.4228   20.4032 H   0  0  0  0  0  0  0  0  0  0  0  0
   22.2887   18.8792   21.4563 H   0  0  0  0  0  0  0  0  0  0  0  0
   22.1126   19.6731   20.0252 H   0  0  0  0  0  0  0  0  0  0  0  0
   20.6311   20.2045   21.4501 C   0  0  0  0  0  0  0  0  0  0  0  0
   19.9593   20.6012   20.6842 H   0  0  0  0  0  0  0  0  0  0  0  0
   21.2284   21.0341   21.8381 H   0  0  0  0  0  0  0  0  0  0  0  0
   19.8064   19.5961   22.6040 C   0  0  0  0  0  0  0  0  0  0  0  0
   20.4534   18.9837   23.2459 H   0  0  0  0  0  0  0  0  0  0  0  0
   19.4522   20.4225   23.2344 H   0  0  0  0  0  0  0  0  0  0  0  0
   18.5697   18.7797   22.1492 C   0  0  0  0  0  0  0  0  0  0  0  0
   17.8992   19.4215   21.5607 H   0  0  0  0  0  0  0  0  0  0  0  0
   18.0016   18.4855   23.0429 H   0  0  0  0  0  0  0  0  0  0  0  0
   18.9067   17.5071   21.3393 C   0  0  0  0  0  0  0  0  0  0  0  0
   19.2877   17.7543   20.3416 H   0  0  0  0  0  0  0  0  0  0  0  0
   18.0055   16.8964   21.1978 H   0  0  0  0  0  0  0  0  0  0  0  0
   19.6496   16.8886   21.8596 H   0  0  0  0  0  0  0  0  0  0  0  0
  1  2  1  0  0  0  0
  1  3  1  0  0  0  0
  1  4  1  0  0  0  0
  1  5  1  0  0  0  0
  5  6  1  0  0  0  0
  5  7  1  0  0  0  0
  5  8  1  0  0  0  0
  8  9  1  0  0  0  0
  8 10  1  0  0  0  0
  8 11  1  0  0  0  0
 11 12  1  0  0  0  0
 11 13  1  0  0  0  0
 11 14  1  0  0  0  0
 14 15  1  0  0  0  0
 14 16  1  0  0  0  0
 14 17  1  0  0  0  0
M  END
> <VConfSearch Rank>
555

> <Conf_Id>
19

> <Delta U+W>
2.662

> <U+W>
-13.203

> <U>
47.423

> <W>
-60.626

> <W(PB)>
-62.328

> <W(SA)>
1.702

> <Valence>
2.414

> <Coulomb>
44.831

> <VdW>
0.178

> <VdW6>
-3.743

> <VdW12>
3.921

> <Bond>
0.138

> <Angle>
0.941

> <Pdih>
1.335

> <Idih>
0.000

> <Tether>
0.000

$$$$
VeraChem MOL file


 17 16  0  0  0  0  0  0  0  0999 V2000     
   18.4525   18.4007   20.6110 N   0  3  0  0  0  0  0  0  0  0  0  0
   17.8087   18.5596   19.8293 H   0  0  0  0  0  0  0  0  0  0  0  0
   18.0864   17.6034   21.1399 H   0  0  0  0  0  0  0  0  0  0  0  0
   19.3480   18.1103   20.2103 H   0  0  0  0  0  0  0  0  0  0  0  0
   18.5993   19.6344   21.4808 C   0  0  0  0  0  0  0  0  0  0  0  0
   17.6048   19.8733   21.8673 H   0  0  0  0  0  0  0  0  0  0  0  0
   18.9262   20.4668   20.8519 H   0  0  0  0  0  0  0  0  0  0  0  0
   19.5717   19.4625   22.6667 C   0  0  0  0  0  0  0  0  0  0  0  0
   19.3238   20.2256   23.4163 H   0  0  0  0  0  0  0  0  0  0  0  0
   19.4009   18.4940   23.1551 H   0  0  0  0  0  0  0  0  0  0  0  0
   21.0688   19.6243   22.2990 C   0  0  0  0  0  0  0  0  0  0  0  0
   21.6586   19.5886   23.2257 H   0  0  0  0  0  0  0  0  0  0  0  0
   21.2381   20.6217   21.8693 H   0  0  0  0  0  0  0  0  0  0  0  0
   21.6089   18.5478   21.3302 C   0  0  0  0  0  0  0  0  0  0  0  0
   21.3709   17.5366   21.6852 H   0  0  0  0  0  0  0  0  0  0  0  0
   22.7010   18.6234   21.2480 H   0  0  0  0  0  0  0  0  0  0  0  0
   21.2008   18.6740   20.3206 H   0  0  0  0  0  0  0  0  0  0  0  0
  1  2  1  0  0  0  0
  1  3  1  0  0  0  0
  1  4  1  0  0  0  0
  1  5  1  0  0  0  0
  5  6  1  0  0  0  0
  5  7  1  0  0  0  0
  5  8  1  0  0  0  0
  8  9  1  0  0  0  0
  8 10  1  0  0  0  0
  8 11  1  0  0  0  0
 11 12  1  0  0  0  0
 11 13  1  0  0  0  0
 11 14  1  0  0  0  0
 14 15  1  0  0  0  0
 14 16  1  0  0  0  0
 14 17  1  0  0  0  0
M  END
> <VConfSearch Rank>
556

> <Conf_Id>
44

> <Delta U+W>
2.712

> <U+W>
-13.153

> <U>
47.423

> <W>
-60.576

> <W(PB)>
-62.262

> <W(SA)>
1.687

> <Valence>
2.414

> <Coulomb>
44.831

> <VdW>
0.178

> <VdW6>
-3.743

> <VdW12>
3.922

> <Bond>
0.138

> <Angle>
0.941

> <Pdih>
1.335

> <Idih>
0.000

> <Tether>
0.000

$$$$
VeraChem MOL file


 17 16  0  0  0  0  0  0  0  0999 V2000     
   18.9480   18.2920   23.1631 N   0  3  0  0  0  0  0  0  0  0  0  0
   19.1515   17.5103   22.5338 H   0  0  0  0  0  0  0  0  0  0  0  0
   17.9418   18.4747   23.1035 H   0  0  0  0  0  0  0  0  0  0  0  0
   19.1352   17.9652   24.1164 H   0  0  0  0  0  0  0  0  0  0  0  0
   19.7676   19.5201   22.8167 C   0  0  0  0  0  0  0  0  0  0  0  0
   20.8247   19.2654   22.9285 H   0  0  0  0  0  0  0  0  0  0  0  0
   19.5282   20.2972   23.5476 H   0  0  0  0  0  0  0  0  0  0  0  0
   19.5102   20.0597   21.3945 C   0  0  0  0  0  0  0  0  0  0  0  0
   18.4552   20.3507   21.3050 H   0  0  0  0  0  0  0  0  0  0  0  0
   20.0937   20.9797   21.2570 H   0  0  0  0  0  0  0  0  0  0  0  0
   19.8648   19.0585   20.2670 C   0  0  0  0  0  0  0  0  0  0  0  0
   19.6360   19.5223   19.2972 H   0  0  0  0  0  0  0  0  0  0  0  0
   19.2237   18.1692   20.3363 H   0  0  0  0  0  0  0  0  0  0  0  0
   21.3505   18.6317   20.2814 C   0  0  0  0  0  0  0  0  0  0  0  0
   22.0125   19.5046   20.2120 H   0  0  0  0  0  0  0  0  0  0  0  0
   21.5710   17.9759   19.4292 H   0  0  0  0  0  0  0  0  0  0  0  0
   21.6039   18.0816   21.1964 H   0  0  0  0  0  0  0  0  0  0  0  0
  1  2  1  0  0  0  0
  1  3  1  0  0  0  0
  1  4  1  0  0  0  0
  1  5  1  0  0  0  0
  5  6  1  0  0  0  0
  5  7  1  0  0  0  0
  5  8  1  0  0  0  0
  8  9  1  0  0  0  0
  8 10  1  0  0  0  0
  8 11  1  0  0  0  0
 11 12  1  0  0  0  0
 11 13  1  0  0  0  0
 11 14  1  0  0  0  0
 14 15  1  0  0  0  0
 14 16  1  0  0  0  0
 14 17  1  0  0  0  0
M  END
> <VConfSearch Rank>
557

> <Conf_Id>
1

> <Delta U+W>
0.685

> <U+W>
-15.179

> <U>
45.697

> <W>
-60.876

> <W(PB)>
-62.586

> <W(SA)>
1.710

> <Valence>
1.263

> <Coulomb>
44.179

> <VdW>
0.255

> <VdW6>
-3.552

> <VdW12>
3.807

> <Bond>
0.125

> <Angle>
0.616

> <Pdih>
0.521

> <Idih>
0.000

> <Tether>
0.000

$$$$
VeraChem MOL file


 17 16  0  0  0  0  0  0  0  0999 V2000     
   19.9883   17.4160   22.7556 N   0  3  0  0  0  0  0  0  0  0  0  0
   20.9322   17.0201   22.7978 H   0  0  0  0  0  0  0  0  0  0  0  0
   19.5798   17.1299   21.8613 H   0  0  0  0  0  0  0  0  0  0  0  0
   19.4415   16.9611   23.4936 H   0  0  0  0  0  0  0  0  0  0  0  0
   20.0001   18.9246   22.9109 C   0  0  0  0  0  0  0  0  0  0  0  0
   20.4120   19.1545   23.8973 H   0  0  0  0  0  0  0  0  0  0  0  0
   18.9655   19.2764   22.8865 H   0  0  0  0  0  0  0  0  0  0  0  0
   20.8237   19.6554   21.8304 C   0  0  0  0  0  0  0  0  0  0  0  0
   20.8286   20.7294   22.0592 H   0  0  0  0  0  0  0  0  0  0  0  0
   21.8694   19.3255   21.8898 H   0  0  0  0  0  0  0  0  0  0  0  0
   20.2993   19.4443   20.3882 C   0  0  0  0  0  0  0  0  0  0  0  0
   20.3741   18.3841   20.1107 H   0  0  0  0  0  0  0  0  0  0  0  0
   20.9530   19.9870   19.6911 H   0  0  0  0  0  0  0  0  0  0  0  0
   18.8449   19.9316   20.1955 C   0  0  0  0  0  0  0  0  0  0  0  0
   18.5384   19.8234   19.1470 H   0  0  0  0  0  0  0  0  0  0  0  0
   18.7445   20.9908   20.4658 H   0  0  0  0  0  0  0  0  0  0  0  0
   18.1408   19.3537   20.8073 H   0  0  0  0  0  0  0  0  0  0  0  0
  1  2  1  0  0  0  0
  1  3  1  0  0  0  0
  1  4  1  0  0  0  0
  1  5  1  0  0  0  0
  5  6  1  0  0  0  0
  5  7  1  0  0  0  0
  5  8  1  0  0  0  0
  8  9  1  0  0  0  0
  8 10  1  0  0  0  0
  8 11  1  0  0  0  0
 11 12  1  0  0  0  0
 11 13  1  0  0  0  0
 11 14  1  0  0  0  0
 14 15  1  0  0  0  0
 14 16  1  0  0  0  0
 14 17  1  0  0  0  0
M  END
> <VConfSearch Rank>
558

> <Conf_Id>
43

> <Delta U+W>
0.642

> <U+W>
-15.222

> <U>
45.697

> <W>
-60.919

> <W(PB)>
-62.631

> <W(SA)>
1.712

> <Valence>
1.262

> <Coulomb>
44.179

> <VdW>
0.255

> <VdW6>
-3.552

> <VdW12>
3.807

> <Bond>
0.125

> <Angle>
0.616

> <Pdih>
0.521

> <Idih>
0.000

> <Tether>
0.000

$$$$
VeraChem MOL file


 17 16  0  0  0  0  0  0  0  0999 V2000     
   17.8643   20.1466   22.6187 N   0  3  0  0  0  0  0  0  0  0  0  0
   17.2081   19.3867   22.4146 H   0  0  0  0  0  0  0  0  0  0  0  0
   17.7256   20.8646   21.9012 H   0  0  0  0  0  0  0  0  0  0  0  0
   17.5720   20.5588   23.5107 H   0  0  0  0  0  0  0  0  0  0  0  0
   19.2992   19.6606   22.6660 C   0  0  0  0  0  0  0  0  0  0  0  0
   19.3798   18.9237   23.4697 H   0  0  0  0  0  0  0  0  0  0  0  0
   19.9362   20.5129   22.9177 H   0  0  0  0  0  0  0  0  0  0  0  0
   19.7718   19.0349   21.3410 C   0  0  0  0  0  0  0  0  0  0  0  0
   19.1204   18.1891   21.0836 H   0  0  0  0  0  0  0  0  0  0  0  0
   19.6751   19.7729   20.5335 H   0  0  0  0  0  0  0  0  0  0  0  0
   21.2366   18.5536   21.4320 C   0  0  0  0  0  0  0  0  0  0  0  0
   21.3347   17.8173   22.2423 H   0  0  0  0  0  0  0  0  0  0  0  0
   21.8887   19.3991   21.6928 H   0  0  0  0  0  0  0  0  0  0  0  0
   21.7176   17.9247   20.1065 C   0  0  0  0  0  0  0  0  0  0  0  0
   22.7594   17.5894   20.1918 H   0  0  0  0  0  0  0  0  0  0  0  0
   21.6637   18.6486   19.2829 H   0  0  0  0  0  0  0  0  0  0  0  0
   21.1053   17.0543   19.8367 H   0  0  0  0  0  0  0  0  0  0  0  0
  1  2  1  0  0  0  0
  1  3  1  0  0  0  0
  1  4  1  0  0  0  0
  1  5  1  0  0  0  0
  5  6  1  0  0  0  0
  5  7  1  0  0  0  0
  5  8  1  0  0  0  0
  8  9  1  0  0  0  0
  8 10  1  0  0  0  0
  8 11  1  0  0  0  0
 11 12  1  0  0  0  0
 11 13  1  0  0  0  0
 11 14  1  0  0  0  0
 14 15  1  0  0  0  0
 14 16  1  0  0  0  0
 14 17  1  0  0  0  0
M  END
> <VConfSearch Rank>
559

> <Conf_Id>
7

> <Delta U+W>
0.000

> <U+W>
-15.865

> <U>
44.664

> <W>
-60.529

> <W(PB)>
-62.309

> <W(SA)>
1.780

> <Valence>
0.872

> <Coulomb>
43.648

> <VdW>
0.144

> <VdW6>
-2.370

> <VdW12>
2.515

> <Bond>
0.080

> <Angle>
0.376

> <Pdih>
0.416

> <Idih>
0.000

> <Tether>
0.000

$$$$
VeraChem MOL file


 17 16  0  0  0  0  0  0  0  0999 V2000     
   19.0602   21.3420   21.4480 N   0  3  0  0  0  0  0  0  0  0  0  0
   18.0391   21.3059   21.5225 H   0  0  0  0  0  0  0  0  0  0  0  0
   19.2842   21.5033   20.4614 H   0  0  0  0  0  0  0  0  0  0  0  0
   19.3654   22.1752   21.9613 H   0  0  0  0  0  0  0  0  0  0  0  0
   19.7133   20.0817   21.9797 C   0  0  0  0  0  0  0  0  0  0  0  0
   19.4576   19.9896   23.0387 H   0  0  0  0  0  0  0  0  0  0  0  0
   20.7963   20.2045   21.8978 H   0  0  0  0  0  0  0  0  0  0  0  0
   19.2762   18.8090   21.2294 C   0  0  0  0  0  0  0  0  0  0  0  0
   18.1833   18.7167   21.2837 H   0  0  0  0  0  0  0  0  0  0  0  0
   19.5315   18.9022   20.1654 H   0  0  0  0  0  0  0  0  0  0  0  0
   19.9189   17.5260   21.8064 C   0  0  0  0  0  0  0  0  0  0  0  0
   19.5058   16.6529   21.2820 H   0  0  0  0  0  0  0  0  0  0  0  0
   19.6371   17.4135   22.8628 H   0  0  0  0  0  0  0  0  0  0  0  0
   21.4593   17.5104   21.6755 C   0  0  0  0  0  0  0  0  0  0  0  0
   21.7680   17.6275   20.6286 H   0  0  0  0  0  0  0  0  0  0  0  0
   21.8669   16.5587   22.0403 H   0  0  0  0  0  0  0  0  0  0  0  0
   21.9221   18.3145   22.2614 H   0  0  0  0  0  0  0  0  0  0  0  0
  1  2  1  0  0  0  0
  1  3  1  0  0  0  0
  1  4  1  0  0  0  0
  1  5  1  0  0  0  0
  5  6  1  0  0  0  0
  5  7  1  0  0  0  0
  5  8  1  0  0  0  0
  8  9  1  0  0  0  0
  8 10  1  0  0  0  0
  8 11  1  0  0  0  0
 11 12  1  0  0  0  0
 11 13  1  0  0  0  0
 11 14  1  0  0  0  0
 14 15  1  0  0  0  0
 14 16  1  0  0  0  0
 14 17  1  0  0  0  0
M  END
> <VConfSearch Rank>
560

> <Conf_Id>
36

> <Delta U+W>
0.275

> <U+W>
-15.590

> <U>
45.174

> <W>
-60.765

> <W(PB)>
-62.518

> <W(SA)>
1.754

> <Valence>
1.161

> <Coulomb>
43.789

> <VdW>
0.224

> <VdW6>
-2.897

> <VdW12>
3.121

> <Bond>
0.100

> <Angle>
0.500

> <Pdih>
0.561

> <Idih>
0.000

> <Tether>
0.000

$$$$
VeraChem MOL file


 17 16  0  0  0  0  0  0  0  0999 V2000     
   19.6303   20.6922   22.2749 N   0  3  0  0  0  0  0  0  0  0  0  0
   19.5304   20.6713   21.2569 H   0  0  0  0  0  0  0  0  0  0  0  0
   20.5534   21.0870   22.4790 H   0  0  0  0  0  0  0  0  0  0  0  0
   18.9370   21.3568   22.6333 H   0  0  0  0  0  0  0  0  0  0  0  0
   19.4592   19.3144   22.8851 C   0  0  0  0  0  0  0  0  0  0  0  0
   18.4380   18.9737   22.6946 H   0  0  0  0  0  0  0  0  0  0  0  0
   19.5821   19.4257   23.9659 H   0  0  0  0  0  0  0  0  0  0  0  0
   20.4651   18.2632   22.3704 C   0  0  0  0  0  0  0  0  0  0  0  0
   21.4731   18.6967   22.3291 H   0  0  0  0  0  0  0  0  0  0  0  0
   20.5148   17.4557   23.1129 H   0  0  0  0  0  0  0  0  0  0  0  0
   20.0930   17.6324   21.0043 C   0  0  0  0  0  0  0  0  0  0  0  0
   19.1095   17.1471   21.0769 H   0  0  0  0  0  0  0  0  0  0  0  0
   20.8122   16.8303   20.7862 H   0  0  0  0  0  0  0  0  0  0  0  0
   20.0907   18.6264   19.8208 C   0  0  0  0  0  0  0  0  0  0  0  0
   19.2508   19.3279   19.8862 H   0  0  0  0  0  0  0  0  0  0  0  0
   19.9863   18.0866   18.8707 H   0  0  0  0  0  0  0  0  0  0  0  0
   21.0273   19.1975   19.7780 H   0  0  0  0  0  0  0  0  0  0  0  0
  1  2  1  0  0  0  0
  1  3  1  0  0  0  0
  1  4  1  0  0  0  0
  1  5  1  0  0  0  0
  5  6  1  0  0  0  0
  5  7  1  0  0  0  0
  5  8  1  0  0  0  0
  8  9  1  0  0  0  0
  8 10  1  0  0  0  0
  8 11  1  0  0  0  0
 11 12  1  0  0  0  0
 11 13  1  0  0  0  0
 11 14  1  0  0  0  0
 14 15  1  0  0  0  0
 14 16  1  0  0  0  0
 14 17  1  0  0  0  0
M  END
> <VConfSearch Rank>
561

> <Conf_Id>
19

> <Delta U+W>
2.662

> <U+W>
-13.203

> <U>
47.423

> <W>
-60.626

> <W(PB)>
-62.328

> <W(SA)>
1.702

> <Valence>
2.414

> <Coulomb>
44.831

> <VdW>
0.178

> <VdW6>
-3.743

> <VdW12>
3.921

> <Bond>
0.138

> <Angle>
0.941

> <Pdih>
1.335

> <Idih>
0.000

> <Tether>
0.000

$$$$
VeraChem MOL file


 17 16  0  0  0  0  0  0  0  0999 V2000     
   18.8322   19.3923   20.1015 N   0  3  0  0  0  0  0  0  0  0  0  0
   18.2184   18.9940   19.3836 H   0  0  0  0  0  0  0  0  0  0  0  0
   19.0550   20.3474   19.8053 H   0  0  0  0  0  0  0  0  0  0  0  0
   18.2834   19.4644   20.9619 H   0  0  0  0  0  0  0  0  0  0  0  0
   20.0829   18.5580   20.3006 C   0  0  0  0  0  0  0  0  0  0  0  0
   20.6075   18.5341   19.3415 H   0  0  0  0  0  0  0  0  0  0  0  0
   19.7838   17.5358   20.5476 H   0  0  0  0  0  0  0  0  0  0  0  0
   21.0402   19.0983   21.3838 C   0  0  0  0  0  0  0  0  0  0  0  0
   22.0364   18.6789   21.1898 H   0  0  0  0  0  0  0  0  0  0  0  0
   21.1466   20.1864   21.2822 H   0  0  0  0  0  0  0  0  0  0  0  0
   20.6421   18.7287   22.8356 C   0  0  0  0  0  0  0  0  0  0  0  0
   21.4402   19.0689   23.5104 H   0  0  0  0  0  0  0  0  0  0  0  0
   20.6010   17.6354   22.9406 H   0  0  0  0  0  0  0  0  0  0  0  0
   19.3041   19.3421   23.3072 C   0  0  0  0  0  0  0  0  0  0  0  0
   19.2765   20.4247   23.1272 H   0  0  0  0  0  0  0  0  0  0  0  0
   19.1702   19.1803   24.3847 H   0  0  0  0  0  0  0  0  0  0  0  0
   18.4487   18.8773   22.8033 H   0  0  0  0  0  0  0  0  0  0  0  0
  1  2  1  0  0  0  0
  1  3  1  0  0  0  0
  1  4  1  0  0  0  0
  1  5  1  0  0  0  0
  5  6  1  0  0  0  0
  5  7  1  0  0  0  0
  5  8  1  0  0  0  0
  8  9  1  0  0  0  0
  8 10  1  0  0  0  0
  8 11  1  0  0  0  0
 11 12  1  0  0  0  0
 11 13  1  0  0  0  0
 11 14  1  0  0  0  0
 14 15  1  0  0  0  0
 14 16  1  0  0  0  0
 14 17  1  0  0  0  0
M  END
> <VConfSearch Rank>
562

> <Conf_Id>
44

> <Delta U+W>
2.712

> <U+W>
-13.153

> <U>
47.423

> <W>
-60.576

> <W(PB)>
-62.262

> <W(SA)>
1.687

> <Valence>
2.414

> <Coulomb>
44.831

> <VdW>
0.178

> <VdW6>
-3.743

> <VdW12>
3.922

> <Bond>
0.138

> <Angle>
0.941

> <Pdih>
1.335

> <Idih>
0.000

> <Tether>
0.000

$$$$
VeraChem MOL file


 17 16  0  0  0  0  0  0  0  0999 V2000     
   18.7342   20.4771   20.9108 N   0  3  0  0  0  0  0  0  0  0  0  0
   18.8463   19.7931   20.1571 H   0  0  0  0  0  0  0  0  0  0  0  0
   19.2686   21.3099   20.6460 H   0  0  0  0  0  0  0  0  0  0  0  0
   17.7460   20.7491   20.9234 H   0  0  0  0  0  0  0  0  0  0  0  0
   19.1824   19.9186   22.2476 C   0  0  0  0  0  0  0  0  0  0  0  0
   18.5551   19.0547   22.4821 H   0  0  0  0  0  0  0  0  0  0  0  0
   19.0001   20.6844   23.0064 H   0  0  0  0  0  0  0  0  0  0  0  0
   20.6689   19.5074   22.2839 C   0  0  0  0  0  0  0  0  0  0  0  0
   21.2918   20.3900   22.0874 H   0  0  0  0  0  0  0  0  0  0  0  0
   20.9175   19.1782   23.3015 H   0  0  0  0  0  0  0  0  0  0  0  0
   21.0367   18.3851   21.2815 C   0  0  0  0  0  0  0  0  0  0  0  0
   22.1112   18.1710   21.3689 H   0  0  0  0  0  0  0  0  0  0  0  0
   20.8798   18.7326   20.2513 H   0  0  0  0  0  0  0  0  0  0  0  0
   20.2437   17.0792   21.5169 C   0  0  0  0  0  0  0  0  0  0  0  0
   20.3854   16.7106   22.5412 H   0  0  0  0  0  0  0  0  0  0  0  0
   20.5823   16.2938   20.8288 H   0  0  0  0  0  0  0  0  0  0  0  0
   19.1688   17.2238   21.3506 H   0  0  0  0  0  0  0  0  0  0  0  0
  1  2  1  0  0  0  0
  1  3  1  0  0  0  0
  1  4  1  0  0  0  0
  1  5  1  0  0  0  0
  5  6  1  0  0  0  0
  5  7  1  0  0  0  0
  5  8  1  0  0  0  0
  8  9  1  0  0  0  0
  8 10  1  0  0  0  0
  8 11  1  0  0  0  0
 11 12  1  0  0  0  0
 11 13  1  0  0  0  0
 11 14  1  0  0  0  0
 14 15  1  0  0  0  0
 14 16  1  0  0  0  0
 14 17  1  0  0  0  0
M  END
> <VConfSearch Rank>
563

> <Conf_Id>
1

> <Delta U+W>
0.685

> <U+W>
-15.179

> <U>
45.697

> <W>
-60.876

> <W(PB)>
-62.586

> <W(SA)>
1.710

> <Valence>
1.263

> <Coulomb>
44.179

> <VdW>
0.255

> <VdW6>
-3.552

> <VdW12>
3.807

> <Bond>
0.125

> <Angle>
0.616

> <Pdih>
0.521

> <Idih>
0.000

> <Tether>
0.000

$$$$
VeraChem MOL file


 17 16  0  0  0  0  0  0  0  0999 V2000     
   18.1123   18.9914   22.4089 N   0  3  0  0  0  0  0  0  0  0  0  0
   18.1502   18.7567   23.4053 H   0  0  0  0  0  0  0  0  0  0  0  0
   18.2277   18.1178   21.8875 H   0  0  0  0  0  0  0  0  0  0  0  0
   17.1637   19.3301   22.2189 H   0  0  0  0  0  0  0  0  0  0  0  0
   19.1637   20.0159   22.0285 C   0  0  0  0  0  0  0  0  0  0  0  0
   18.9575   20.9298   22.5922 H   0  0  0  0  0  0  0  0  0  0  0  0
   19.0486   20.2417   20.9652 H   0  0  0  0  0  0  0  0  0  0  0  0
   20.6098   19.5579   22.3095 C   0  0  0  0  0  0  0  0  0  0  0  0
   21.2930   20.3821   22.0652 H   0  0  0  0  0  0  0  0  0  0  0  0
   20.7266   19.3729   23.3856 H   0  0  0  0  0  0  0  0  0  0  0  0
   21.0347   18.2937   21.5215 C   0  0  0  0  0  0  0  0  0  0  0  0
   20.4185   17.4358   21.8233 H   0  0  0  0  0  0  0  0  0  0  0  0
   22.0674   18.0364   21.7956 H   0  0  0  0  0  0  0  0  0  0  0  0
   20.9533   18.4797   19.9890 C   0  0  0  0  0  0  0  0  0  0  0  0
   21.3245   17.5851   19.4724 H   0  0  0  0  0  0  0  0  0  0  0  0
   21.5630   19.3320   19.6621 H   0  0  0  0  0  0  0  0  0  0  0  0
   19.9214   18.6492   19.6569 H   0  0  0  0  0  0  0  0  0  0  0  0
  1  2  1  0  0  0  0
  1  3  1  0  0  0  0
  1  4  1  0  0  0  0
  1  5  1  0  0  0  0
  5  6  1  0  0  0  0
  5  7  1  0  0  0  0
  5  8  1  0  0  0  0
  8  9  1  0  0  0  0
  8 10  1  0  0  0  0
  8 11  1  0  0  0  0
 11 12  1  0  0  0  0
 11 13  1  0  0  0  0
 11 14  1  0  0  0  0
 14 15  1  0  0  0  0
 14 16  1  0  0  0  0
 14 17  1  0  0  0  0
M  END
> <VConfSearch Rank>
564

> <Conf_Id>
43

> <Delta U+W>
0.642

> <U+W>
-15.222

> <U>
45.697

> <W>
-60.919

> <W(PB)>
-62.631

> <W(SA)>
1.712

> <Valence>
1.262

> <Coulomb>
44.179

> <VdW>
0.255

> <VdW6>
-3.552

> <VdW12>
3.807

> <Bond>
0.125

> <Angle>
0.616

> <Pdih>
0.521

> <Idih>
0.000

> <Tether>
0.000

$$$$
VeraChem MOL file


 17 16  0  0  0  0  0  0  0  0999 V2000     
   21.9723   18.8771   23.1805 N   0  3  0  0  0  0  0  0  0  0  0  0
   22.5623   18.2983   22.5750 H   0  0  0  0  0  0  0  0  0  0  0  0
   21.5443   18.2517   23.8700 H   0  0  0  0  0  0  0  0  0  0  0  0
   22.6003   19.5017   23.6966 H   0  0  0  0  0  0  0  0  0  0  0  0
   20.9333   19.6487   22.3916 C   0  0  0  0  0  0  0  0  0  0  0  0
   21.4590   20.3141   21.7014 H   0  0  0  0  0  0  0  0  0  0  0  0
   20.3644   20.2640   23.0940 H   0  0  0  0  0  0  0  0  0  0  0  0
   19.9721   18.7403   21.6034 C   0  0  0  0  0  0  0  0  0  0  0  0
   20.5483   18.1130   20.9101 H   0  0  0  0  0  0  0  0  0  0  0  0
   19.4573   18.0632   22.2979 H   0  0  0  0  0  0  0  0  0  0  0  0
   18.9313   19.5651   20.8148 C   0  0  0  0  0  0  0  0  0  0  0  0
   19.4461   20.2455   20.1217 H   0  0  0  0  0  0  0  0  0  0  0  0
   18.3564   20.1957   21.5078 H   0  0  0  0  0  0  0  0  0  0  0  0
   17.9636   18.6605   20.0215 C   0  0  0  0  0  0  0  0  0  0  0  0
   17.2328   19.2650   19.4687 H   0  0  0  0  0  0  0  0  0  0  0  0
   17.4082   17.9918   20.6920 H   0  0  0  0  0  0  0  0  0  0  0  0
   18.5065   18.0420   19.2950 H   0  0  0  0  0  0  0  0  0  0  0  0
  1  2  1  0  0  0  0
  1  3  1  0  0  0  0
  1  4  1  0  0  0  0
  1  5  1  0  0  0  0
  5  6  1  0  0  0  0
  5  7  1  0  0  0  0
  5  8  1  0  0  0  0
  8  9  1  0  0  0  0
  8 10  1  0  0  0  0
  8 11  1  0  0  0  0
 11 12  1  0  0  0  0
 11 13  1  0  0  0  0
 11 14  1  0  0  0  0
 14 15  1  0  0  0  0
 14 16  1  0  0  0  0
 14 17  1  0  0  0  0
M  END
> <VConfSearch Rank>
565

> <Conf_Id>
7

> <Delta U+W>
0.000

> <U+W>
-15.865

> <U>
44.664

> <W>
-60.529

> <W(PB)>
-62.309

> <W(SA)>
1.780

> <Valence>
0.872

> <Coulomb>
43.648

> <VdW>
0.144

> <VdW6>
-2.370

> <VdW12>
2.515

> <Bond>
0.080

> <Angle>
0.376

> <Pdih>
0.416

> <Idih>
0.000

> <Tether>
0.000

$$$$
VeraChem MOL file


 17 16  0  0  0  0  0  0  0  0999 V2000     
   19.5125   20.4840   23.5512 N   0  3  0  0  0  0  0  0  0  0  0  0
   19.5312   21.4661   23.2599 H   0  0  0  0  0  0  0  0  0  0  0  0
   20.3902   20.3007   24.0469 H   0  0  0  0  0  0  0  0  0  0  0  0
   18.7587   20.3936   24.2399 H   0  0  0  0  0  0  0  0  0  0  0  0
   19.3179   19.5467   22.3760 C   0  0  0  0  0  0  0  0  0  0  0  0
   18.3537   19.7780   21.9154 H   0  0  0  0  0  0  0  0  0  0  0  0
   19.2766   18.5257   22.7640 H   0  0  0  0  0  0  0  0  0  0  0  0
   20.4351   19.6568   21.3207 C   0  0  0  0  0  0  0  0  0  0  0  0
   20.4948   20.6947   20.9668 H   0  0  0  0  0  0  0  0  0  0  0  0
   21.4038   19.4262   21.7837 H   0  0  0  0  0  0  0  0  0  0  0  0
   20.2046   18.7243   20.1085 C   0  0  0  0  0  0  0  0  0  0  0  0
   20.9890   18.9096   19.3613 H   0  0  0  0  0  0  0  0  0  0  0  0
   19.2507   18.9760   19.6238 H   0  0  0  0  0  0  0  0  0  0  0  0
   20.2144   17.2258   20.4886 C   0  0  0  0  0  0  0  0  0  0  0  0
   21.1557   16.9492   20.9809 H   0  0  0  0  0  0  0  0  0  0  0  0
   20.1091   16.6007   19.5923 H   0  0  0  0  0  0  0  0  0  0  0  0
   19.3873   16.9757   21.1650 H   0  0  0  0  0  0  0  0  0  0  0  0
  1  2  1  0  0  0  0
  1  3  1  0  0  0  0
  1  4  1  0  0  0  0
  1  5  1  0  0  0  0
  5  6  1  0  0  0  0
  5  7  1  0  0  0  0
  5  8  1  0  0  0  0
  8  9  1  0  0  0  0
  8 10  1  0  0  0  0
  8 11  1  0  0  0  0
 11 12  1  0  0  0  0
 11 13  1  0  0  0  0
 11 14  1  0  0  0  0
 14 15  1  0  0  0  0
 14 16  1  0  0  0  0
 14 17  1  0  0  0  0
M  END
> <VConfSearch Rank>
566

> <Conf_Id>
36

> <Delta U+W>
0.275

> <U+W>
-15.590

> <U>
45.174

> <W>
-60.765

> <W(PB)>
-62.518

> <W(SA)>
1.754

> <Valence>
1.161

> <Coulomb>
43.789

> <VdW>
0.224

> <VdW6>
-2.897

> <VdW12>
3.121

> <Bond>
0.100

> <Angle>
0.500

> <Pdih>
0.561

> <Idih>
0.000

> <Tether>
0.000

$$$$
VeraChem MOL file


 17 16  0  0  0  0  0  0  0  0999 V2000     
   21.7734   19.0434   21.8929 N   0  3  0  0  0  0  0  0  0  0  0  0
   21.2593   19.4370   22.6851 H   0  0  0  0  0  0  0  0  0  0  0  0
   22.1238   19.8313   21.3397 H   0  0  0  0  0  0  0  0  0  0  0  0
   22.5930   18.5601   22.2742 H   0  0  0  0  0  0  0  0  0  0  0  0
   20.9057   18.1152   21.0648 C   0  0  0  0  0  0  0  0  0  0  0  0
   20.6183   17.2619   21.6849 H   0  0  0  0  0  0  0  0  0  0  0  0
   21.5267   17.7434   20.2453 H   0  0  0  0  0  0  0  0  0  0  0  0
   19.6442   18.7822   20.4770 C   0  0  0  0  0  0  0  0  0  0  0  0
   19.8977   19.7684   20.0661 H   0  0  0  0  0  0  0  0  0  0  0  0
   19.3121   18.1766   19.6234 H   0  0  0  0  0  0  0  0  0  0  0  0
   18.4582   18.8996   21.4681 C   0  0  0  0  0  0  0  0  0  0  0  0
   18.1732   17.8994   21.8236 H   0  0  0  0  0  0  0  0  0  0  0  0
   17.5873   19.2872   20.9211 H   0  0  0  0  0  0  0  0  0  0  0  0
   18.7272   19.8198   22.6805 C   0  0  0  0  0  0  0  0  0  0  0  0
   19.4475   19.3710   23.3743 H   0  0  0  0  0  0  0  0  0  0  0  0
   17.7999   19.9885   23.2433 H   0  0  0  0  0  0  0  0  0  0  0  0
   19.1056   20.7996   22.3610 H   0  0  0  0  0  0  0  0  0  0  0  0
  1  2  1  0  0  0  0
  1  3  1  0  0  0  0
  1  4  1  0  0  0  0
  1  5  1  0  0  0  0
  5  6  1  0  0  0  0
  5  7  1  0  0  0  0
  5  8  1  0  0  0  0
  8  9  1  0  0  0  0
  8 10  1  0  0  0  0
  8 11  1  0  0  0  0
 11 12  1  0  0  0  0
 11 13  1  0  0  0  0
 11 14  1  0  0  0  0
 14 15  1  0  0  0  0
 14 16  1  0  0  0  0
 14 17  1  0  0  0  0
M  END
> <VConfSearch Rank>
567

> <Conf_Id>
19

> <Delta U+W>
2.662

> <U+W>
-13.203

> <U>
47.423

> <W>
-60.626

> <W(PB)>
-62.328

> <W(SA)>
1.702

> <Valence>
2.414

> <Coulomb>
44.831

> <VdW>
0.178

> <VdW6>
-3.743

> <VdW12>
3.921

> <Bond>
0.138

> <Angle>
0.941

> <Pdih>
1.335

> <Idih>
0.000

> <Tether>
0.000

$$$$
VeraChem MOL file


 17 16  0  0  0  0  0  0  0  0999 V2000     
   19.9957   20.9154   21.6732 N   0  3  0  0  0  0  0  0  0  0  0  0
   19.7645   21.7657   22.1970 H   0  0  0  0  0  0  0  0  0  0  0  0
   20.3250   21.2151   20.7506 H   0  0  0  0  0  0  0  0  0  0  0  0
   20.7884   20.4750   22.1472 H   0  0  0  0  0  0  0  0  0  0  0  0
   18.8095   19.9760   21.5704 C   0  0  0  0  0  0  0  0  0  0  0  0
   18.0144   20.5203   21.0537 H   0  0  0  0  0  0  0  0  0  0  0  0
   18.4598   19.7451   22.5802 H   0  0  0  0  0  0  0  0  0  0  0  0
   19.1012   18.6671   20.8066 C   0  0  0  0  0  0  0  0  0  0  0  0
   18.1414   18.2590   20.4629 H   0  0  0  0  0  0  0  0  0  0  0  0
   19.6792   18.8830   19.8983 H   0  0  0  0  0  0  0  0  0  0  0  0
   19.8089   17.5753   21.6492 C   0  0  0  0  0  0  0  0  0  0  0  0
   19.8715   16.6589   21.0457 H   0  0  0  0  0  0  0  0  0  0  0  0
   19.1900   17.3227   22.5217 H   0  0  0  0  0  0  0  0  0  0  0  0
   21.2319   17.9532   22.1193 C   0  0  0  0  0  0  0  0  0  0  0  0
   21.8491   18.3021   21.2811 H   0  0  0  0  0  0  0  0  0  0  0  0
   21.7314   17.0805   22.5598 H   0  0  0  0  0  0  0  0  0  0  0  0
   21.2074   18.7327   22.8897 H   0  0  0  0  0  0  0  0  0  0  0  0
  1  2  1  0  0  0  0
  1  3  1  0  0  0  0
  1  4  1  0  0  0  0
  1  5  1  0  0  0  0
  5  6  1  0  0  0  0
  5  7  1  0  0  0  0
  5  8  1  0  0  0  0
  8  9  1  0  0  0  0
  8 10  1  0  0  0  0
  8 11  1  0  0  0  0
 11 12  1  0  0  0  0
 11 13  1  0  0  0  0
 11 14  1  0  0  0  0
 14 15  1  0  0  0  0
 14 16  1  0  0  0  0
 14 17  1  0  0  0  0
M  END
> <VConfSearch Rank>
568

> <Conf_Id>
44

> <Delta U+W>
2.712

> <U+W>
-13.153

> <U>
47.423

> <W>
-60.576

> <W(PB)>
-62.262

> <W(SA)>
1.687

> <Valence>
2.414

> <Coulomb>
44.831

> <VdW>
0.178

> <VdW6>
-3.743

> <VdW12>
3.922

> <Bond>
0.138

> <Angle>
0.941

> <Pdih>
1.335

> <Idih>
0.000

> <Tether>
0.000

$$$$
VeraChem MOL file


 17 16  0  0  0  0  0  0  0  0999 V2000     
   21.6443   18.0956   21.3185 N   0  3  0  0  0  0  0  0  0  0  0  0
   21.7709   19.0580   20.9927 H   0  0  0  0  0  0  0  0  0  0  0  0
   21.6146   17.4963   20.4883 H   0  0  0  0  0  0  0  0  0  0  0  0
   22.4904   17.8420   21.8385 H   0  0  0  0  0  0  0  0  0  0  0  0
   20.3958   17.9493   22.1668 C   0  0  0  0  0  0  0  0  0  0  0  0
   20.5057   18.5895   23.0459 H   0  0  0  0  0  0  0  0  0  0  0  0
   20.3452   16.9119   22.5087 H   0  0  0  0  0  0  0  0  0  0  0  0
   19.0922   18.3060   21.4231 C   0  0  0  0  0  0  0  0  0  0  0  0
   18.9702   17.6310   20.5656 H   0  0  0  0  0  0  0  0  0  0  0  0
   18.2422   18.1095   22.0900 H   0  0  0  0  0  0  0  0  0  0  0  0
   19.0272   19.7746   20.9345 C   0  0  0  0  0  0  0  0  0  0  0  0
   18.0756   19.9302   20.4072 H   0  0  0  0  0  0  0  0  0  0  0  0
   19.8176   19.9618   20.1949 H   0  0  0  0  0  0  0  0  0  0  0  0
   19.1374   20.8009   22.0853 C   0  0  0  0  0  0  0  0  0  0  0  0
   18.3560   20.6349   22.8382 H   0  0  0  0  0  0  0  0  0  0  0  0
   19.0210   21.8230   21.7021 H   0  0  0  0  0  0  0  0  0  0  0  0
   20.1124   20.7441   22.5853 H   0  0  0  0  0  0  0  0  0  0  0  0
  1  2  1  0  0  0  0
  1  3  1  0  0  0  0
  1  4  1  0  0  0  0
  1  5  1  0  0  0  0
  5  6  1  0  0  0  0
  5  7  1  0  0  0  0
  5  8  1  0  0  0  0
  8  9  1  0  0  0  0
  8 10  1  0  0  0  0
  8 11  1  0  0  0  0
 11 12  1  0  0  0  0
 11 13  1  0  0  0  0
 11 14  1  0  0  0  0
 14 15  1  0  0  0  0
 14 16  1  0  0  0  0
 14 17  1  0  0  0  0
M  END
> <VConfSearch Rank>
569

> <Conf_Id>
1

> <Delta U+W>
0.685

> <U+W>
-15.179

> <U>
45.697

> <W>
-60.876

> <W(PB)>
-62.586

> <W(SA)>
1.710

> <Valence>
1.263

> <Coulomb>
44.179

> <VdW>
0.255

> <VdW6>
-3.552

> <VdW12>
3.807

> <Bond>
0.125

> <Angle>
0.616

> <Pdih>
0.521

> <Idih>
0.000

> <Tether>
0.000

$$$$
VeraChem MOL file


 17 16  0  0  0  0  0  0  0  0999 V2000     
   19.9509   17.4073   22.7447 N   0  3  0  0  0  0  0  0  0  0  0  0
   19.9304   16.5505   22.1835 H   0  0  0  0  0  0  0  0  0  0  0  0
   18.9963   17.7770   22.7675 H   0  0  0  0  0  0  0  0  0  0  0  0
   20.1873   17.1299   23.7027 H   0  0  0  0  0  0  0  0  0  0  0  0
   20.9334   18.4220   22.1925 C   0  0  0  0  0  0  0  0  0  0  0  0
   21.9308   17.9758   22.2327 H   0  0  0  0  0  0  0  0  0  0  0  0
   20.9267   19.2942   22.8513 H   0  0  0  0  0  0  0  0  0  0  0  0
   20.6281   18.8608   20.7453 C   0  0  0  0  0  0  0  0  0  0  0  0
   21.4220   19.5412   20.4098 H   0  0  0  0  0  0  0  0  0  0  0  0
   20.6773   17.9847   20.0852 H   0  0  0  0  0  0  0  0  0  0  0  0
   19.2549   19.5568   20.5744 C   0  0  0  0  0  0  0  0  0  0  0  0
   18.4440   18.8572   20.8189 H   0  0  0  0  0  0  0  0  0  0  0  0
   19.1203   19.8185   19.5155 H   0  0  0  0  0  0  0  0  0  0  0  0
   19.1140   20.8366   21.4299 C   0  0  0  0  0  0  0  0  0  0  0  0
   18.1548   21.3308   21.2283 H   0  0  0  0  0  0  0  0  0  0  0  0
   19.9139   21.5533   21.2025 H   0  0  0  0  0  0  0  0  0  0  0  0
   19.1510   20.6113   22.5031 H   0  0  0  0  0  0  0  0  0  0  0  0
  1  2  1  0  0  0  0
  1  3  1  0  0  0  0
  1  4  1  0  0  0  0
  1  5  1  0  0  0  0
  5  6  1  0  0  0  0
  5  7  1  0  0  0  0
  5  8  1  0  0  0  0
  8  9  1  0  0  0  0
  8 10  1  0  0  0  0
  8 11  1  0  0  0  0
 11 12  1  0  0  0  0
 11 13  1  0  0  0  0
 11 14  1  0  0  0  0
 14 15  1  0  0  0  0
 14 16  1  0  0  0  0
 14 17  1  0  0  0  0
M  END
> <VConfSearch Rank>
570

> <Conf_Id>
43

> <Delta U+W>
0.642

> <U+W>
-15.222

> <U>
45.697

> <W>
-60.919

> <W(PB)>
-62.631

> <W(SA)>
1.712

> <Valence>
1.262

> <Coulomb>
44.179

> <VdW>
0.255

> <VdW6>
-3.552

> <VdW12>
3.807

> <Bond>
0.125

> <Angle>
0.616

> <Pdih>
0.521

> <Idih>
0.000

> <Tether>
0.000

$$$$
VeraChem MOL file


 17 16  0  0  0  0  0  0  0  0999 V2000     
   17.9544   18.5925   23.1388 N   0  3  0  0  0  0  0  0  0  0  0  0
   18.4675   18.1069   23.8809 H   0  0  0  0  0  0  0  0  0  0  0  0
   17.5092   17.8731   22.5608 H   0  0  0  0  0  0  0  0  0  0  0  0
   17.1995   19.1157   23.5941 H   0  0  0  0  0  0  0  0  0  0  0  0
   18.8560   19.4982   22.3238 C   0  0  0  0  0  0  0  0  0  0  0  0
   19.2698   20.2553   22.9954 H   0  0  0  0  0  0  0  0  0  0  0  0
   18.2393   20.0040   21.5759 H   0  0  0  0  0  0  0  0  0  0  0  0
   20.0021   18.7440   21.6253 C   0  0  0  0  0  0  0  0  0  0  0  0
   20.6100   18.2248   22.3782 H   0  0  0  0  0  0  0  0  0  0  0  0
   19.5830   17.9744   20.9635 H   0  0  0  0  0  0  0  0  0  0  0  0
   20.8955   19.7022   20.8072 C   0  0  0  0  0  0  0  0  0  0  0  0
   21.3126   20.4748   21.4685 H   0  0  0  0  0  0  0  0  0  0  0  0
   20.2869   20.2247   20.0555 H   0  0  0  0  0  0  0  0  0  0  0  0
   22.0475   18.9527   20.1036 C   0  0  0  0  0  0  0  0  0  0  0  0
   22.6699   19.6504   19.5284 H   0  0  0  0  0  0  0  0  0  0  0  0
   21.6607   18.1959   19.4088 H   0  0  0  0  0  0  0  0  0  0  0  0
   22.6944   18.4480   20.8330 H   0  0  0  0  0  0  0  0  0  0  0  0
  1  2  1  0  0  0  0
  1  3  1  0  0  0  0
  1  4  1  0  0  0  0
  1  5  1  0  0  0  0
  5  6  1  0  0  0  0
  5  7  1  0  0  0  0
  5  8  1  0  0  0  0
  8  9  1  0  0  0  0
  8 10  1  0  0  0  0
  8 11  1  0  0  0  0
 11 12  1  0  0  0  0
 11 13  1  0  0  0  0
 11 14  1  0  0  0  0
 14 15  1  0  0  0  0
 14 16  1  0  0  0  0
 14 17  1  0  0  0  0
M  END
> <VConfSearch Rank>
571

> <Conf_Id>
7

> <Delta U+W>
0.000

> <U+W>
-15.865

> <U>
44.664

> <W>
-60.529

> <W(PB)>
-62.309

> <W(SA)>
1.780

> <Valence>
0.872

> <Coulomb>
43.648

> <VdW>
0.144

> <VdW6>
-2.370

> <VdW12>
2.515

> <Bond>
0.080

> <Angle>
0.376

> <Pdih>
0.416

> <Idih>
0.000

> <Tether>
0.000

$$$$
VeraChem MOL file


 17 16  0  0  0  0  0  0  0  0999 V2000     
   20.3857   18.5144   19.3224 N   0  3  0  0  0  0  0  0  0  0  0  0
   19.9768   17.5951   19.1288 H   0  0  0  0  0  0  0  0  0  0  0  0
   21.3977   18.3808   19.4106 H   0  0  0  0  0  0  0  0  0  0  0  0
   20.2342   19.0880   18.4865 H   0  0  0  0  0  0  0  0  0  0  0  0
   19.7874   19.1526   20.5601 C   0  0  0  0  0  0  0  0  0  0  0  0
   18.7173   19.2921   20.3847 H   0  0  0  0  0  0  0  0  0  0  0  0
   20.2456   20.1371   20.6852 H   0  0  0  0  0  0  0  0  0  0  0  0
   19.9977   18.3155   21.8365 C   0  0  0  0  0  0  0  0  0  0  0  0
   19.5693   17.3157   21.6857 H   0  0  0  0  0  0  0  0  0  0  0  0
   21.0725   18.1740   22.0117 H   0  0  0  0  0  0  0  0  0  0  0  0
   19.3489   18.9580   23.0848 C   0  0  0  0  0  0  0  0  0  0  0  0
   19.4652   18.2757   23.9386 H   0  0  0  0  0  0  0  0  0  0  0  0
   18.2673   19.0698   22.9239 H   0  0  0  0  0  0  0  0  0  0  0  0
   19.9643   20.3290   23.4476 C   0  0  0  0  0  0  0  0  0  0  0  0
   21.0471   20.2461   23.6078 H   0  0  0  0  0  0  0  0  0  0  0  0
   19.5181   20.7187   24.3718 H   0  0  0  0  0  0  0  0  0  0  0  0
   19.7903   21.0709   22.6581 H   0  0  0  0  0  0  0  0  0  0  0  0
  1  2  1  0  0  0  0
  1  3  1  0  0  0  0
  1  4  1  0  0  0  0
  1  5  1  0  0  0  0
  5  6  1  0  0  0  0
  5  7  1  0  0  0  0
  5  8  1  0  0  0  0
  8  9  1  0  0  0  0
  8 10  1  0  0  0  0
  8 11  1  0  0  0  0
 11 12  1  0  0  0  0
 11 13  1  0  0  0  0
 11 14  1  0  0  0  0
 14 15  1  0  0  0  0
 14 16  1  0  0  0  0
 14 17  1  0  0  0  0
M  END
> <VConfSearch Rank>
572

> <Conf_Id>
36

> <Delta U+W>
0.275

> <U+W>
-15.590

> <U>
45.174

> <W>
-60.765

> <W(PB)>
-62.518

> <W(SA)>
1.754

> <Valence>
1.161

> <Coulomb>
43.789

> <VdW>
0.224

> <VdW6>
-2.897

> <VdW12>
3.121

> <Bond>
0.100

> <Angle>
0.500

> <Pdih>
0.561

> <Idih>
0.000

> <Tether>
0.000

$$$$
VeraChem MOL file


 17 16  0  0  0  0  0  0  0  0999 V2000     
   20.8891   18.9305   23.1977 N   0  3  0  0  0  0  0  0  0  0  0  0
   20.4243   18.0385   23.0103 H   0  0  0  0  0  0  0  0  0  0  0  0
   20.3172   19.4296   23.8857 H   0  0  0  0  0  0  0  0  0  0  0  0
   21.7823   18.7164   23.6530 H   0  0  0  0  0  0  0  0  0  0  0  0
   21.0818   19.7413   21.9307 C   0  0  0  0  0  0  0  0  0  0  0  0
   21.7525   19.1920   21.2645 H   0  0  0  0  0  0  0  0  0  0  0  0
   21.5792   20.6715   22.2188 H   0  0  0  0  0  0  0  0  0  0  0  0
   19.7716   20.0806   21.1891 C   0  0  0  0  0  0  0  0  0  0  0  0
   19.0066   20.4042   21.9072 H   0  0  0  0  0  0  0  0  0  0  0  0
   19.9664   20.9484   20.5451 H   0  0  0  0  0  0  0  0  0  0  0  0
   19.2241   18.9379   20.2962 C   0  0  0  0  0  0  0  0  0  0  0  0
   19.9753   18.6664   19.5413 H   0  0  0  0  0  0  0  0  0  0  0  0
   18.3573   19.3197   19.7386 H   0  0  0  0  0  0  0  0  0  0  0  0
   18.7921   17.6724   21.0713 C   0  0  0  0  0  0  0  0  0  0  0  0
   19.6568   17.1337   21.4760 H   0  0  0  0  0  0  0  0  0  0  0  0
   18.2642   16.9790   20.4037 H   0  0  0  0  0  0  0  0  0  0  0  0
   18.1124   17.9227   21.8962 H   0  0  0  0  0  0  0  0  0  0  0  0
  1  2  1  0  0  0  0
  1  3  1  0  0  0  0
  1  4  1  0  0  0  0
  1  5  1  0  0  0  0
  5  6  1  0  0  0  0
  5  7  1  0  0  0  0
  5  8  1  0  0  0  0
  8  9  1  0  0  0  0
  8 10  1  0  0  0  0
  8 11  1  0  0  0  0
 11 12  1  0  0  0  0
 11 13  1  0  0  0  0
 11 14  1  0  0  0  0
 14 15  1  0  0  0  0
 14 16  1  0  0  0  0
 14 17  1  0  0  0  0
M  END
> <VConfSearch Rank>
573

> <Conf_Id>
19

> <Delta U+W>
2.662

> <U+W>
-13.203

> <U>
47.423

> <W>
-60.626

> <W(PB)>
-62.328

> <W(SA)>
1.702

> <Valence>
2.414

> <Coulomb>
44.831

> <VdW>
0.178

> <VdW6>
-3.743

> <VdW12>
3.921

> <Bond>
0.138

> <Angle>
0.941

> <Pdih>
1.335

> <Idih>
0.000

> <Tether>
0.000

$$$$
VeraChem MOL file


 17 16  0  0  0  0  0  0  0  0999 V2000     
   18.4050   18.4458   20.6525 N   0  3  0  0  0  0  0  0  0  0  0  0
   17.7463   18.6234   19.8874 H   0  0  0  0  0  0  0  0  0  0  0  0
   18.0263   17.6635   21.1949 H   0  0  0  0  0  0  0  0  0  0  0  0
   19.2791   18.1235   20.2296 H   0  0  0  0  0  0  0  0  0  0  0  0
   18.6167   19.6772   21.5120 C   0  0  0  0  0  0  0  0  0  0  0  0
   17.6416   19.9514   21.9237 H   0  0  0  0  0  0  0  0  0  0  0  0
   18.9548   20.4955   20.8706 H   0  0  0  0  0  0  0  0  0  0  0  0
   19.6141   19.4770   22.6725 C   0  0  0  0  0  0  0  0  0  0  0  0
   19.4123   20.2512   23.4248 H   0  0  0  0  0  0  0  0  0  0  0  0
   19.4236   18.5168   23.1700 H   0  0  0  0  0  0  0  0  0  0  0  0
   21.1054   19.5863   22.2644 C   0  0  0  0  0  0  0  0  0  0  0  0
   21.7182   19.5342   23.1753 H   0  0  0  0  0  0  0  0  0  0  0  0
   21.2970   20.5756   21.8256 H   0  0  0  0  0  0  0  0  0  0  0  0
   21.5826   18.4882   21.2869 C   0  0  0  0  0  0  0  0  0  0  0  0
   21.3200   17.4871   21.6531 H   0  0  0  0  0  0  0  0  0  0  0  0
   22.6740   18.5261   21.1754 H   0  0  0  0  0  0  0  0  0  0  0  0
   21.1522   18.6241   20.2879 H   0  0  0  0  0  0  0  0  0  0  0  0
  1  2  1  0  0  0  0
  1  3  1  0  0  0  0
  1  4  1  0  0  0  0
  1  5  1  0  0  0  0
  5  6  1  0  0  0  0
  5  7  1  0  0  0  0
  5  8  1  0  0  0  0
  8  9  1  0  0  0  0
  8 10  1  0  0  0  0
  8 11  1  0  0  0  0
 11 12  1  0  0  0  0
 11 13  1  0  0  0  0
 11 14  1  0  0  0  0
 14 15  1  0  0  0  0
 14 16  1  0  0  0  0
 14 17  1  0  0  0  0
M  END
> <VConfSearch Rank>
574

> <Conf_Id>
44

> <Delta U+W>
2.712

> <U+W>
-13.153

> <U>
47.423

> <W>
-60.576

> <W(PB)>
-62.262

> <W(SA)>
1.687

> <Valence>
2.414

> <Coulomb>
44.831

> <VdW>
0.178

> <VdW6>
-3.743

> <VdW12>
3.922

> <Bond>
0.138

> <Angle>
0.941

> <Pdih>
1.335

> <Idih>
0.000

> <Tether>
0.000

$$$$
VeraChem MOL file


 17 16  0  0  0  0  0  0  0  0999 V2000     
   19.8649   19.0270   23.5848 N   0  3  0  0  0  0  0  0  0  0  0  0
   20.4409   19.8257   23.3040 H   0  0  0  0  0  0  0  0  0  0  0  0
   20.4961   18.3203   23.9740 H   0  0  0  0  0  0  0  0  0  0  0  0
   19.2654   19.3458   24.3527 H   0  0  0  0  0  0  0  0  0  0  0  0
   19.0539   18.4837   22.4242 C   0  0  0  0  0  0  0  0  0  0  0  0
   18.3844   19.2753   22.0779 H   0  0  0  0  0  0  0  0  0  0  0  0
   18.4389   17.6628   22.8032 H   0  0  0  0  0  0  0  0  0  0  0  0
   19.9130   17.9770   21.2473 C   0  0  0  0  0  0  0  0  0  0  0  0
   20.5526   17.1551   21.5956 H   0  0  0  0  0  0  0  0  0  0  0  0
   19.2481   17.5458   20.4872 H   0  0  0  0  0  0  0  0  0  0  0  0
   20.7928   19.0711   20.5927 C   0  0  0  0  0  0  0  0  0  0  0  0
   21.3759   18.6165   19.7795 H   0  0  0  0  0  0  0  0  0  0  0  0
   21.5270   19.4488   21.3173 H   0  0  0  0  0  0  0  0  0  0  0  0
   19.9700   20.2492   20.0229 C   0  0  0  0  0  0  0  0  0  0  0  0
   19.2286   19.8966   19.2942 H   0  0  0  0  0  0  0  0  0  0  0  0
   20.6262   20.9660   19.5126 H   0  0  0  0  0  0  0  0  0  0  0  0
   19.4398   20.7922   20.8154 H   0  0  0  0  0  0  0  0  0  0  0  0
  1  2  1  0  0  0  0
  1  3  1  0  0  0  0
  1  4  1  0  0  0  0
  1  5  1  0  0  0  0
  5  6  1  0  0  0  0
  5  7  1  0  0  0  0
  5  8  1  0  0  0  0
  8  9  1  0  0  0  0
  8 10  1  0  0  0  0
  8 11  1  0  0  0  0
 11 12  1  0  0  0  0
 11 13  1  0  0  0  0
 11 14  1  0  0  0  0
 14 15  1  0  0  0  0
 14 16  1  0  0  0  0
 14 17  1  0  0  0  0
M  END
> <VConfSearch Rank>
575

> <Conf_Id>
1

> <Delta U+W>
0.685

> <U+W>
-15.179

> <U>
45.697

> <W>
-60.876

> <W(PB)>
-62.586

> <W(SA)>
1.710

> <Valence>
1.263

> <Coulomb>
44.179

> <VdW>
0.255

> <VdW6>
-3.552

> <VdW12>
3.807

> <Bond>
0.125

> <Angle>
0.616

> <Pdih>
0.521

> <Idih>
0.000

> <Tether>
0.000

$$$$
VeraChem MOL file


 17 16  0  0  0  0  0  0  0  0999 V2000     
   21.5055   20.2177   21.7957 N   0  3  0  0  0  0  0  0  0  0  0  0
   21.3893   21.0883   21.2684 H   0  0  0  0  0  0  0  0  0  0  0  0
   21.7591   19.4882   21.1234 H   0  0  0  0  0  0  0  0  0  0  0  0
   22.3130   20.3493   22.4132 H   0  0  0  0  0  0  0  0  0  0  0  0
   20.2545   19.8554   22.5725 C   0  0  0  0  0  0  0  0  0  0  0  0
   20.0662   20.6563   23.2928 H   0  0  0  0  0  0  0  0  0  0  0  0
   20.4561   18.9384   23.1322 H   0  0  0  0  0  0  0  0  0  0  0  0
   19.0061   19.6608   21.6872 C   0  0  0  0  0  0  0  0  0  0  0  0
   18.1420   19.4666   22.3364 H   0  0  0  0  0  0  0  0  0  0  0  0
   18.7879   20.5993   21.1606 H   0  0  0  0  0  0  0  0  0  0  0  0
   19.1375   18.5117   20.6568 C   0  0  0  0  0  0  0  0  0  0  0  0
   19.9408   18.7357   19.9418 H   0  0  0  0  0  0  0  0  0  0  0  0
   18.2121   18.4586   20.0662 H   0  0  0  0  0  0  0  0  0  0  0  0
   19.3938   17.1359   21.3134 C   0  0  0  0  0  0  0  0  0  0  0  0
   19.4144   16.3443   20.5532 H   0  0  0  0  0  0  0  0  0  0  0  0
   18.6023   16.8884   22.0328 H   0  0  0  0  0  0  0  0  0  0  0  0
   20.3555   17.1130   21.8411 H   0  0  0  0  0  0  0  0  0  0  0  0
  1  2  1  0  0  0  0
  1  3  1  0  0  0  0
  1  4  1  0  0  0  0
  1  5  1  0  0  0  0
  5  6  1  0  0  0  0
  5  7  1  0  0  0  0
  5  8  1  0  0  0  0
  8  9  1  0  0  0  0
  8 10  1  0  0  0  0
  8 11  1  0  0  0  0
 11 12  1  0  0  0  0
 11 13  1  0  0  0  0
 11 14  1  0  0  0  0
 14 15  1  0  0  0  0
 14 16  1  0  0  0  0
 14 17  1  0  0  0  0
M  END
> <VConfSearch Rank>
576

> <Conf_Id>
43

> <Delta U+W>
0.642

> <U+W>
-15.222

> <U>
45.697

> <W>
-60.919

> <W(PB)>
-62.631

> <W(SA)>
1.712

> <Valence>
1.262

> <Coulomb>
44.179

> <VdW>
0.255

> <VdW6>
-3.552

> <VdW12>
3.807

> <Bond>
0.125

> <Angle>
0.616

> <Pdih>
0.521

> <Idih>
0.000

> <Tether>
0.000

$$$$
VeraChem MOL file


 17 16  0  0  0  0  0  0  0  0999 V2000     
   21.4676   18.1874   23.4842 N   0  3  0  0  0  0  0  0  0  0  0  0
   21.8992   19.0824   23.7340 H   0  0  0  0  0  0  0  0  0  0  0  0
   22.1374   17.6849   22.8939 H   0  0  0  0  0  0  0  0  0  0  0  0
   21.3765   17.6500   24.3524 H   0  0  0  0  0  0  0  0  0  0  0  0
   20.1311   18.3744   22.7942 C   0  0  0  0  0  0  0  0  0  0  0  0
   19.4608   18.8867   23.4898 H   0  0  0  0  0  0  0  0  0  0  0  0
   19.7170   17.3840   22.5864 H   0  0  0  0  0  0  0  0  0  0  0  0
   20.2313   19.1784   21.4851 C   0  0  0  0  0  0  0  0  0  0  0  0
   20.6618   20.1665   21.6953 H   0  0  0  0  0  0  0  0  0  0  0  0
   20.9170   18.6688   20.7950 H   0  0  0  0  0  0  0  0  0  0  0  0
   18.8496   19.3456   20.8153 C   0  0  0  0  0  0  0  0  0  0  0  0
   18.1618   19.8526   21.5068 H   0  0  0  0  0  0  0  0  0  0  0  0
   18.4167   18.3568   20.6076 H   0  0  0  0  0  0  0  0  0  0  0  0
   18.9423   20.1513   19.5015 C   0  0  0  0  0  0  0  0  0  0  0  0
   17.9513   20.2588   19.0417 H   0  0  0  0  0  0  0  0  0  0  0  0
   19.5969   19.6507   18.7761 H   0  0  0  0  0  0  0  0  0  0  0  0
   19.3401   21.1583   19.6824 H   0  0  0  0  0  0  0  0  0  0  0  0
  1  2  1  0  0  0  0
  1  3  1  0  0  0  0
  1  4  1  0  0  0  0
  1  5  1  0  0  0  0
  5  6  1  0  0  0  0
  5  7  1  0  0  0  0
  5  8  1  0  0  0  0
  8  9  1  0  0  0  0
  8 10  1  0  0  0  0
  8 11  1  0  0  0  0
 11 12  1  0  0  0  0
 11 13  1  0  0  0  0
 11 14  1  0  0  0  0
 14 15  1  0  0  0  0
 14 16  1  0  0  0  0
 14 17  1  0  0  0  0
M  END
> <VConfSearch Rank>
577

> <Conf_Id>
7

> <Delta U+W>
0.000

> <U+W>
-15.865

> <U>
44.664

> <W>
-60.529

> <W(PB)>
-62.309

> <W(SA)>
1.780

> <Valence>
0.872

> <Coulomb>
43.648

> <VdW>
0.144

> <VdW6>
-2.370

> <VdW12>
2.515

> <Bond>
0.080

> <Angle>
0.376

> <Pdih>
0.416

> <Idih>
0.000

> <Tether>
0.000

$$$$
VeraChem MOL file


 17 16  0  0  0  0  0  0  0  0999 V2000     
   19.5049   16.9572   22.6563 N   0  3  0  0  0  0  0  0  0  0  0  0
   20.2834   16.7368   23.2848 H   0  0  0  0  0  0  0  0  0  0  0  0
   19.6174   16.3730   21.8221 H   0  0  0  0  0  0  0  0  0  0  0  0
   18.6485   16.6438   23.1243 H   0  0  0  0  0  0  0  0  0  0  0  0
   19.4524   18.4326   22.3131 C   0  0  0  0  0  0  0  0  0  0  0  0
   19.3017   18.9903   23.2414 H   0  0  0  0  0  0  0  0  0  0  0  0
   18.5843   18.5970   21.6695 H   0  0  0  0  0  0  0  0  0  0  0  0
   20.7256   18.9371   21.6073 C   0  0  0  0  0  0  0  0  0  0  0  0
   21.5959   18.7311   22.2445 H   0  0  0  0  0  0  0  0  0  0  0  0
   20.8779   18.3759   20.6758 H   0  0  0  0  0  0  0  0  0  0  0  0
   20.6758   20.4517   21.2979 C   0  0  0  0  0  0  0  0  0  0  0  0
   21.6403   20.7607   20.8710 H   0  0  0  0  0  0  0  0  0  0  0  0
   20.5568   21.0169   22.2331 H   0  0  0  0  0  0  0  0  0  0  0  0
   19.5446   20.8306   20.3147 C   0  0  0  0  0  0  0  0  0  0  0  0
   19.6369   20.2743   19.3729 H   0  0  0  0  0  0  0  0  0  0  0  0
   19.5846   21.9014   20.0762 H   0  0  0  0  0  0  0  0  0  0  0  0
   18.5544   20.6233   20.7397 H   0  0  0  0  0  0  0  0  0  0  0  0
  1  2  1  0  0  0  0
  1  3  1  0  0  0  0
  1  4  1  0  0  0  0
  1  5  1  0  0  0  0
  5  6  1  0  0  0  0
  5  7  1  0  0  0  0
  5  8  1  0  0  0  0
  8  9  1  0  0  0  0
  8 10  1  0  0  0  0
  8 11  1  0  0  0  0
 11 12  1  0  0  0  0
 11 13  1  0  0  0  0
 11 14  1  0  0  0  0
 14 15  1  0  0  0  0
 14 16  1  0  0  0  0
 14 17  1  0  0  0  0
M  END
> <VConfSearch Rank>
578

> <Conf_Id>
36

> <Delta U+W>
0.275

> <U+W>
-15.590

> <U>
45.174

> <W>
-60.765

> <W(PB)>
-62.518

> <W(SA)>
1.754

> <Valence>
1.161

> <Coulomb>
43.789

> <VdW>
0.224

> <VdW6>
-2.897

> <VdW12>
3.121

> <Bond>
0.100

> <Angle>
0.500

> <Pdih>
0.561

> <Idih>
0.000

> <Tether>
0.000

$$$$
VeraChem MOL file


 17 16  0  0  0  0  0  0  0  0999 V2000     
   20.7609   17.5845   22.5019 N   0  3  0  0  0  0  0  0  0  0  0  0
   19.7592   17.4132   22.3831 H   0  0  0  0  0  0  0  0  0  0  0  0
   20.8992   17.9081   23.4640 H   0  0  0  0  0  0  0  0  0  0  0  0
   21.2343   16.6788   22.4220 H   0  0  0  0  0  0  0  0  0  0  0  0
   21.2840   18.5857   21.4899 C   0  0  0  0  0  0  0  0  0  0  0  0
   21.1729   18.1595   20.4892 H   0  0  0  0  0  0  0  0  0  0  0  0
   22.3521   18.7112   21.6870 H   0  0  0  0  0  0  0  0  0  0  0  0
   20.5962   19.9659   21.5491 C   0  0  0  0  0  0  0  0  0  0  0  0
   20.4852   20.2857   22.5937 H   0  0  0  0  0  0  0  0  0  0  0  0
   21.2695   20.6960   21.0806 H   0  0  0  0  0  0  0  0  0  0  0  0
   19.2324   20.0365   20.8158 C   0  0  0  0  0  0  0  0  0  0  0  0
   19.3682   19.7753   19.7568 H   0  0  0  0  0  0  0  0  0  0  0  0
   18.8857   21.0794   20.8294 H   0  0  0  0  0  0  0  0  0  0  0  0
   18.1301   19.1434   21.4292 C   0  0  0  0  0  0  0  0  0  0  0  0
   18.3300   18.0799   21.2540 H   0  0  0  0  0  0  0  0  0  0  0  0
   17.1587   19.3685   20.9699 H   0  0  0  0  0  0  0  0  0  0  0  0
   18.0347   19.3132   22.5096 H   0  0  0  0  0  0  0  0  0  0  0  0
  1  2  1  0  0  0  0
  1  3  1  0  0  0  0
  1  4  1  0  0  0  0
  1  5  1  0  0  0  0
  5  6  1  0  0  0  0
  5  7  1  0  0  0  0
  5  8  1  0  0  0  0
  8  9  1  0  0  0  0
  8 10  1  0  0  0  0
  8 11  1  0  0  0  0
 11 12  1  0  0  0  0
 11 13  1  0  0  0  0
 11 14  1  0  0  0  0
 14 15  1  0  0  0  0
 14 16  1  0  0  0  0
 14 17  1  0  0  0  0
M  END
> <VConfSearch Rank>
579

> <Conf_Id>
19

> <Delta U+W>
2.662

> <U+W>
-13.203

> <U>
47.423

> <W>
-60.626

> <W(PB)>
-62.328

> <W(SA)>
1.702

> <Valence>
2.414

> <Coulomb>
44.831

> <VdW>
0.178

> <VdW6>
-3.743

> <VdW12>
3.921

> <Bond>
0.138

> <Angle>
0.941

> <Pdih>
1.335

> <Idih>
0.000

> <Tether>
0.000

$$$$
VeraChem MOL file


 17 16  0  0  0  0  0  0  0  0999 V2000     
   19.0491   18.0629   22.9294 N   0  3  0  0  0  0  0  0  0  0  0  0
   18.2228   17.9556   23.5266 H   0  0  0  0  0  0  0  0  0  0  0  0
   19.7639   17.4260   23.2941 H   0  0  0  0  0  0  0  0  0  0  0  0
   18.7938   17.7266   21.9974 H   0  0  0  0  0  0  0  0  0  0  0  0
   19.5377   19.4981   22.8950 C   0  0  0  0  0  0  0  0  0  0  0  0
   19.7892   19.7751   23.9224 H   0  0  0  0  0  0  0  0  0  0  0  0
   18.7153   20.1381   22.5643 H   0  0  0  0  0  0  0  0  0  0  0  0
   20.7714   19.7269   21.9964 C   0  0  0  0  0  0  0  0  0  0  0  0
   21.2590   20.6538   22.3267 H   0  0  0  0  0  0  0  0  0  0  0  0
   21.5060   18.9267   22.1562 H   0  0  0  0  0  0  0  0  0  0  0  0
   20.4494   19.8697   20.4869 C   0  0  0  0  0  0  0  0  0  0  0  0
   21.3767   20.1326   19.9586 H   0  0  0  0  0  0  0  0  0  0  0  0
   19.7627   20.7141   20.3337 H   0  0  0  0  0  0  0  0  0  0  0  0
   19.8561   18.5990   19.8370 C   0  0  0  0  0  0  0  0  0  0  0  0
   20.4718   17.7162   20.0530 H   0  0  0  0  0  0  0  0  0  0  0  0
   19.8114   18.7149   18.7463 H   0  0  0  0  0  0  0  0  0  0  0  0
   18.8330   18.4105   20.1827 H   0  0  0  0  0  0  0  0  0  0  0  0
  1  2  1  0  0  0  0
  1  3  1  0  0  0  0
  1  4  1  0  0  0  0
  1  5  1  0  0  0  0
  5  6  1  0  0  0  0
  5  7  1  0  0  0  0
  5  8  1  0  0  0  0
  8  9  1  0  0  0  0
  8 10  1  0  0  0  0
  8 11  1  0  0  0  0
 11 12  1  0  0  0  0
 11 13  1  0  0  0  0
 11 14  1  0  0  0  0
 14 15  1  0  0  0  0
 14 16  1  0  0  0  0
 14 17  1  0  0  0  0
M  END
> <VConfSearch Rank>
580

> <Conf_Id>
44

> <Delta U+W>
2.712

> <U+W>
-13.153

> <U>
47.423

> <W>
-60.576

> <W(PB)>
-62.262

> <W(SA)>
1.687

> <Valence>
2.414

> <Coulomb>
44.831

> <VdW>
0.178

> <VdW6>
-3.743

> <VdW12>
3.922

> <Bond>
0.138

> <Angle>
0.941

> <Pdih>
1.335

> <Idih>
0.000

> <Tether>
0.000

$$$$
VeraChem MOL file


 17 16  0  0  0  0  0  0  0  0999 V2000     
   21.0543   17.5608   20.9121 N   0  3  0  0  0  0  0  0  0  0  0  0
   20.0820   17.2447   20.8553 H   0  0  0  0  0  0  0  0  0  0  0  0
   21.4976   17.0411   21.6755 H   0  0  0  0  0  0  0  0  0  0  0  0
   21.5155   17.2673   20.0451 H   0  0  0  0  0  0  0  0  0  0  0  0
   21.1464   19.0602   21.1203 C   0  0  0  0  0  0  0  0  0  0  0  0
   20.6834   19.5513   20.2605 H   0  0  0  0  0  0  0  0  0  0  0  0
   22.2059   19.3301   21.1334 H   0  0  0  0  0  0  0  0  0  0  0  0
   20.4783   19.5504   22.4215 C   0  0  0  0  0  0  0  0  0  0  0  0
   20.9768   19.0828   23.2809 H   0  0  0  0  0  0  0  0  0  0  0  0
   20.6500   20.6306   22.5192 H   0  0  0  0  0  0  0  0  0  0  0  0
   18.9569   19.2681   22.4937 C   0  0  0  0  0  0  0  0  0  0  0  0
   18.5738   19.6369   23.4555 H   0  0  0  0  0  0  0  0  0  0  0  0
   18.7732   18.1851   22.4896 H   0  0  0  0  0  0  0  0  0  0  0  0
   18.1622   19.9352   21.3476 C   0  0  0  0  0  0  0  0  0  0  0  0
   18.3289   21.0201   21.3314 H   0  0  0  0  0  0  0  0  0  0  0  0
   17.0855   19.7639   21.4751 H   0  0  0  0  0  0  0  0  0  0  0  0
   18.4480   19.5301   20.3688 H   0  0  0  0  0  0  0  0  0  0  0  0
  1  2  1  0  0  0  0
  1  3  1  0  0  0  0
  1  4  1  0  0  0  0
  1  5  1  0  0  0  0
  5  6  1  0  0  0  0
  5  7  1  0  0  0  0
  5  8  1  0  0  0  0
  8  9  1  0  0  0  0
  8 10  1  0  0  0  0
  8 11  1  0  0  0  0
 11 12  1  0  0  0  0
 11 13  1  0  0  0  0
 11 14  1  0  0  0  0
 14 15  1  0  0  0  0
 14 16  1  0  0  0  0
 14 17  1  0  0  0  0
M  END
> <VConfSearch Rank>
581

> <Conf_Id>
1

> <Delta U+W>
0.685

> <U+W>
-15.179

> <U>
45.697

> <W>
-60.876

> <W(PB)>
-62.586

> <W(SA)>
1.710

> <Valence>
1.263

> <Coulomb>
44.179

> <VdW>
0.255

> <VdW6>
-3.552

> <VdW12>
3.807

> <Bond>
0.125

> <Angle>
0.616

> <Pdih>
0.521

> <Idih>
0.000

> <Tether>
0.000

$$$$
VeraChem MOL file


 17 16  0  0  0  0  0  0  0  0999 V2000     
   18.0616   18.5302   21.1289 N   0  3  0  0  0  0  0  0  0  0  0  0
   17.9648   17.5186   20.9996 H   0  0  0  0  0  0  0  0  0  0  0  0
   18.4964   18.9036   20.2804 H   0  0  0  0  0  0  0  0  0  0  0  0
   17.1133   18.9166   21.1742 H   0  0  0  0  0  0  0  0  0  0  0  0
   18.8678   18.8675   22.3684 C   0  0  0  0  0  0  0  0  0  0  0  0
   18.3285   18.4730   23.2339 H   0  0  0  0  0  0  0  0  0  0  0  0
   18.9069   19.9558   22.4621 H   0  0  0  0  0  0  0  0  0  0  0  0
   20.3002   18.2946   22.3546 C   0  0  0  0  0  0  0  0  0  0  0  0
   20.7827   18.5322   23.3119 H   0  0  0  0  0  0  0  0  0  0  0  0
   20.2497   17.1990   22.3014 H   0  0  0  0  0  0  0  0  0  0  0  0
   21.1798   18.8255   21.1953 C   0  0  0  0  0  0  0  0  0  0  0  0
   20.7583   18.5163   20.2292 H   0  0  0  0  0  0  0  0  0  0  0  0
   22.1706   18.3541   21.2585 H   0  0  0  0  0  0  0  0  0  0  0  0
   21.3521   20.3616   21.2204 C   0  0  0  0  0  0  0  0  0  0  0  0
   22.0335   20.6857   20.4231 H   0  0  0  0  0  0  0  0  0  0  0  0
   21.7738   20.6958   22.1773 H   0  0  0  0  0  0  0  0  0  0  0  0
   20.3959   20.8779   21.0686 H   0  0  0  0  0  0  0  0  0  0  0  0
  1  2  1  0  0  0  0
  1  3  1  0  0  0  0
  1  4  1  0  0  0  0
  1  5  1  0  0  0  0
  5  6  1  0  0  0  0
  5  7  1  0  0  0  0
  5  8  1  0  0  0  0
  8  9  1  0  0  0  0
  8 10  1  0  0  0  0
  8 11  1  0  0  0  0
 11 12  1  0  0  0  0
 11 13  1  0  0  0  0
 11 14  1  0  0  0  0
 14 15  1  0  0  0  0
 14 16  1  0  0  0  0
 14 17  1  0  0  0  0
M  END
> <VConfSearch Rank>
582

> <Conf_Id>
43

> <Delta U+W>
0.642

> <U+W>
-15.222

> <U>
45.697

> <W>
-60.919

> <W(PB)>
-62.631

> <W(SA)>
1.712

> <Valence>
1.262

> <Coulomb>
44.179

> <VdW>
0.255

> <VdW6>
-3.552

> <VdW12>
3.807

> <Bond>
0.125

> <Angle>
0.616

> <Pdih>
0.521

> <Idih>
0.000

> <Tether>
0.000

$$$$
VeraChem MOL file


 17 16  0  0  0  0  0  0  0  0999 V2000     
   18.2681   20.6887   20.5593 N   0  3  0  0  0  0  0  0  0  0  0  0
   18.5879   21.5363   21.0378 H   0  0  0  0  0  0  0  0  0  0  0  0
   17.4375   20.3566   21.0588 H   0  0  0  0  0  0  0  0  0  0  0  0
   17.9572   20.9753   19.6254 H   0  0  0  0  0  0  0  0  0  0  0  0
   19.3516   19.6310   20.4926 C   0  0  0  0  0  0  0  0  0  0  0  0
   20.1895   20.0414   19.9225 H   0  0  0  0  0  0  0  0  0  0  0  0
   18.9525   18.7729   19.9450 H   0  0  0  0  0  0  0  0  0  0  0  0
   19.8425   19.1770   21.8794 C   0  0  0  0  0  0  0  0  0  0  0  0
   20.2283   20.0439   22.4322 H   0  0  0  0  0  0  0  0  0  0  0  0
   18.9956   18.7795   22.4546 H   0  0  0  0  0  0  0  0  0  0  0  0
   20.9444   18.1006   21.7664 C   0  0  0  0  0  0  0  0  0  0  0  0
   21.7910   18.4967   21.1879 H   0  0  0  0  0  0  0  0  0  0  0  0
   20.5598   17.2339   21.2103 H   0  0  0  0  0  0  0  0  0  0  0  0
   21.4417   17.6403   23.1537 C   0  0  0  0  0  0  0  0  0  0  0  0
   22.2235   16.8764   23.0517 H   0  0  0  0  0  0  0  0  0  0  0  0
   20.6233   17.2072   23.7434 H   0  0  0  0  0  0  0  0  0  0  0  0
   21.8642   18.4800   23.7209 H   0  0  0  0  0  0  0  0  0  0  0  0
  1  2  1  0  0  0  0
  1  3  1  0  0  0  0
  1  4  1  0  0  0  0
  1  5  1  0  0  0  0
  5  6  1  0  0  0  0
  5  7  1  0  0  0  0
  5  8  1  0  0  0  0
  8  9  1  0  0  0  0
  8 10  1  0  0  0  0
  8 11  1  0  0  0  0
 11 12  1  0  0  0  0
 11 13  1  0  0  0  0
 11 14  1  0  0  0  0
 14 15  1  0  0  0  0
 14 16  1  0  0  0  0
 14 17  1  0  0  0  0
M  END
> <VConfSearch Rank>
583

> <Conf_Id>
7

> <Delta U+W>
0.000

> <U+W>
-15.865

> <U>
44.664

> <W>
-60.529

> <W(PB)>
-62.309

> <W(SA)>
1.780

> <Valence>
0.872

> <Coulomb>
43.648

> <VdW>
0.144

> <VdW6>
-2.370

> <VdW12>
2.515

> <Bond>
0.080

> <Angle>
0.376

> <Pdih>
0.416

> <Idih>
0.000

> <Tether>
0.000

$$$$
VeraChem MOL file


 17 16  0  0  0  0  0  0  0  0999 V2000     
   21.0258   17.4107   22.9556 N   0  3  0  0  0  0  0  0  0  0  0  0
   21.1255   17.7632   23.9124 H   0  0  0  0  0  0  0  0  0  0  0  0
   21.9503   17.4649   22.5173 H   0  0  0  0  0  0  0  0  0  0  0  0
   20.7908   16.4156   23.0295 H   0  0  0  0  0  0  0  0  0  0  0  0
   19.9805   18.1802   22.1729 C   0  0  0  0  0  0  0  0  0  0  0  0
   19.0192   18.0541   22.6784 H   0  0  0  0  0  0  0  0  0  0  0  0
   19.9069   17.7310   21.1791 H   0  0  0  0  0  0  0  0  0  0  0  0
   20.3034   19.6811   22.0423 C   0  0  0  0  0  0  0  0  0  0  0  0
   20.4147   20.1138   23.0454 H   0  0  0  0  0  0  0  0  0  0  0  0
   21.2697   19.8077   21.5361 H   0  0  0  0  0  0  0  0  0  0  0  0
   19.2103   20.4619   21.2759 C   0  0  0  0  0  0  0  0  0  0  0  0
   19.4608   21.5319   21.2885 H   0  0  0  0  0  0  0  0  0  0  0  0
   18.2489   20.3636   21.7996 H   0  0  0  0  0  0  0  0  0  0  0  0
   19.0524   19.9983   19.8095 C   0  0  0  0  0  0  0  0  0  0  0  0
   20.0018   20.0809   19.2647 H   0  0  0  0  0  0  0  0  0  0  0  0
   18.3120   20.6182   19.2875 H   0  0  0  0  0  0  0  0  0  0  0  0
   18.7124   18.9567   19.7501 H   0  0  0  0  0  0  0  0  0  0  0  0
  1  2  1  0  0  0  0
  1  3  1  0  0  0  0
  1  4  1  0  0  0  0
  1  5  1  0  0  0  0
  5  6  1  0  0  0  0
  5  7  1  0  0  0  0
  5  8  1  0  0  0  0
  8  9  1  0  0  0  0
  8 10  1  0  0  0  0
  8 11  1  0  0  0  0
 11 12  1  0  0  0  0
 11 13  1  0  0  0  0
 11 14  1  0  0  0  0
 14 15  1  0  0  0  0
 14 16  1  0  0  0  0
 14 17  1  0  0  0  0
M  END
> <VConfSearch Rank>
584

> <Conf_Id>
36

> <Delta U+W>
0.275

> <U+W>
-15.590

> <U>
45.174

> <W>
-60.765

> <W(PB)>
-62.518

> <W(SA)>
1.754

> <Valence>
1.161

> <Coulomb>
43.789

> <VdW>
0.224

> <VdW6>
-2.897

> <VdW12>
3.121

> <Bond>
0.100

> <Angle>
0.500

> <Pdih>
0.561

> <Idih>
0.000

> <Tether>
0.000

$$$$
VeraChem MOL file


 17 16  0  0  0  0  0  0  0  0999 V2000     
   21.2933   18.3283   20.5129 N   0  3  0  0  0  0  0  0  0  0  0  0
   20.8004   19.1044   20.0639 H   0  0  0  0  0  0  0  0  0  0  0  0
   20.9304   17.4629   20.1019 H   0  0  0  0  0  0  0  0  0  0  0  0
   22.2788   18.3969   20.2391 H   0  0  0  0  0  0  0  0  0  0  0  0
   21.1235   18.3510   22.0198 C   0  0  0  0  0  0  0  0  0  0  0  0
   21.5876   19.2613   22.4087 H   0  0  0  0  0  0  0  0  0  0  0  0
   21.6751   17.4945   22.4167 H   0  0  0  0  0  0  0  0  0  0  0  0
   19.6573   18.2684   22.4943 C   0  0  0  0  0  0  0  0  0  0  0  0
   19.1183   17.5052   21.9175 H   0  0  0  0  0  0  0  0  0  0  0  0
   19.6612   17.9136   23.5335 H   0  0  0  0  0  0  0  0  0  0  0  0
   18.8917   19.6156   22.4536 C   0  0  0  0  0  0  0  0  0  0  0  0
   19.4070   20.3527   23.0854 H   0  0  0  0  0  0  0  0  0  0  0  0
   17.9022   19.4651   22.9078 H   0  0  0  0  0  0  0  0  0  0  0  0
   18.6986   20.1983   21.0352 C   0  0  0  0  0  0  0  0  0  0  0  0
   19.6449   20.5607   20.6168 H   0  0  0  0  0  0  0  0  0  0  0  0
   18.0113   21.0538   21.0656 H   0  0  0  0  0  0  0  0  0  0  0  0
   18.2715   19.4522   20.3525 H   0  0  0  0  0  0  0  0  0  0  0  0
  1  2  1  0  0  0  0
  1  3  1  0  0  0  0
  1  4  1  0  0  0  0
  1  5  1  0  0  0  0
  5  6  1  0  0  0  0
  5  7  1  0  0  0  0
  5  8  1  0  0  0  0
  8  9  1  0  0  0  0
  8 10  1  0  0  0  0
  8 11  1  0  0  0  0
 11 12  1  0  0  0  0
 11 13  1  0  0  0  0
 11 14  1  0  0  0  0
 14 15  1  0  0  0  0
 14 16  1  0  0  0  0
 14 17  1  0  0  0  0
M  END
> <VConfSearch Rank>
585

> <Conf_Id>
19

> <Delta U+W>
2.662

> <U+W>
-13.203

> <U>
47.423

> <W>
-60.626

> <W(PB)>
-62.328

> <W(SA)>
1.702

> <Valence>
2.414

> <Coulomb>
44.831

> <VdW>
0.178

> <VdW6>
-3.743

> <VdW12>
3.921

> <Bond>
0.138

> <Angle>
0.941

> <Pdih>
1.335

> <Idih>
0.000

> <Tether>
0.000

$$$$
VeraChem MOL file


 17 16  0  0  0  0  0  0  0  0999 V2000     
   18.6497   17.7126   21.9472 N   0  3  0  0  0  0  0  0  0  0  0  0
   17.6848   17.3862   21.8317 H   0  0  0  0  0  0  0  0  0  0  0  0
   19.0906   17.0976   22.6378 H   0  0  0  0  0  0  0  0  0  0  0  0
   19.1294   17.5579   21.0568 H   0  0  0  0  0  0  0  0  0  0  0  0
   18.7062   19.1676   22.3709 C   0  0  0  0  0  0  0  0  0  0  0  0
   18.1765   19.2438   23.3244 H   0  0  0  0  0  0  0  0  0  0  0  0
   18.1635   19.7661   21.6343 H   0  0  0  0  0  0  0  0  0  0  0  0
   20.1356   19.7230   22.5441 C   0  0  0  0  0  0  0  0  0  0  0  0
   20.0753   20.6063   23.1937 H   0  0  0  0  0  0  0  0  0  0  0  0
   20.7585   18.9958   23.0817 H   0  0  0  0  0  0  0  0  0  0  0  0
   20.8239   20.1496   21.2224 C   0  0  0  0  0  0  0  0  0  0  0  0
   21.7843   20.6235   21.4696 H   0  0  0  0  0  0  0  0  0  0  0  0
   20.2223   20.9235   20.7254 H   0  0  0  0  0  0  0  0  0  0  0  0
   21.0873   18.9894   20.2356 C   0  0  0  0  0  0  0  0  0  0  0  0
   21.6054   18.1566   20.7287 H   0  0  0  0  0  0  0  0  0  0  0  0
   21.7206   19.3314   19.4067 H   0  0  0  0  0  0  0  0  0  0  0  0
   20.1553   18.6161   19.7956 H   0  0  0  0  0  0  0  0  0  0  0  0
  1  2  1  0  0  0  0
  1  3  1  0  0  0  0
  1  4  1  0  0  0  0
  1  5  1  0  0  0  0
  5  6  1  0  0  0  0
  5  7  1  0  0  0  0
  5  8  1  0  0  0  0
  8  9  1  0  0  0  0
  8 10  1  0  0  0  0
  8 11  1  0  0  0  0
 11 12  1  0  0  0  0
 11 13  1  0  0  0  0
 11 14  1  0  0  0  0
 14 15  1  0  0  0  0
 14 16  1  0  0  0  0
 14 17  1  0  0  0  0
M  END
> <VConfSearch Rank>
586

> <Conf_Id>
44

> <Delta U+W>
2.712

> <U+W>
-13.153

> <U>
47.423

> <W>
-60.576

> <W(PB)>
-62.262

> <W(SA)>
1.687

> <Valence>
2.414

> <Coulomb>
44.831

> <VdW>
0.178

> <VdW6>
-3.743

> <VdW12>
3.922

> <Bond>
0.138

> <Angle>
0.941

> <Pdih>
1.335

> <Idih>
0.000

> <Tether>
0.000

$$$$
VeraChem MOL file


 17 16  0  0  0  0  0  0  0  0999 V2000     
   20.1090   18.1151   23.3474 N   0  3  0  0  0  0  0  0  0  0  0  0
   20.8982   18.7618   23.2612 H   0  0  0  0  0  0  0  0  0  0  0  0
   20.4804   17.1672   23.2335 H   0  0  0  0  0  0  0  0  0  0  0  0
   19.7671   18.1869   24.3110 H   0  0  0  0  0  0  0  0  0  0  0  0
   19.0193   18.4208   22.3380 C   0  0  0  0  0  0  0  0  0  0  0  0
   18.6489   19.4304   22.5337 H   0  0  0  0  0  0  0  0  0  0  0  0
   18.1981   17.7201   22.5120 H   0  0  0  0  0  0  0  0  0  0  0  0
   19.4815   18.3116   20.8703 C   0  0  0  0  0  0  0  0  0  0  0  0
   19.8134   17.2838   20.6725 H   0  0  0  0  0  0  0  0  0  0  0  0
   18.6169   18.4848   20.2159 H   0  0  0  0  0  0  0  0  0  0  0  0
   20.6131   19.2992   20.4910 C   0  0  0  0  0  0  0  0  0  0  0  0
   20.8845   19.1388   19.4381 H   0  0  0  0  0  0  0  0  0  0  0  0
   21.5177   19.0789   21.0739 H   0  0  0  0  0  0  0  0  0  0  0  0
   20.2152   20.7801   20.6870 C   0  0  0  0  0  0  0  0  0  0  0  0
   19.3127   21.0256   20.1124 H   0  0  0  0  0  0  0  0  0  0  0  0
   21.0202   21.4435   20.3452 H   0  0  0  0  0  0  0  0  0  0  0  0
   20.0225   21.0103   21.7424 H   0  0  0  0  0  0  0  0  0  0  0  0
  1  2  1  0  0  0  0
  1  3  1  0  0  0  0
  1  4  1  0  0  0  0
  1  5  1  0  0  0  0
  5  6  1  0  0  0  0
  5  7  1  0  0  0  0
  5  8  1  0  0  0  0
  8  9  1  0  0  0  0
  8 10  1  0  0  0  0
  8 11  1  0  0  0  0
 11 12  1  0  0  0  0
 11 13  1  0  0  0  0
 11 14  1  0  0  0  0
 14 15  1  0  0  0  0
 14 16  1  0  0  0  0
 14 17  1  0  0  0  0
M  END
> <VConfSearch Rank>
587

> <Conf_Id>
1

> <Delta U+W>
0.685

> <U+W>
-15.179

> <U>
45.697

> <W>
-60.876

> <W(PB)>
-62.586

> <W(SA)>
1.710

> <Valence>
1.263

> <Coulomb>
44.179

> <VdW>
0.255

> <VdW6>
-3.552

> <VdW12>
3.807

> <Bond>
0.125

> <Angle>
0.616

> <Pdih>
0.521

> <Idih>
0.000

> <Tether>
0.000

$$$$
VeraChem MOL file


 17 16  0  0  0  0  0  0  0  0999 V2000     
   18.6747   17.5857   21.0564 N   0  3  0  0  0  0  0  0  0  0  0  0
   18.4958   16.9341   21.8263 H   0  0  0  0  0  0  0  0  0  0  0  0
   19.5925   17.3506   20.6680 H   0  0  0  0  0  0  0  0  0  0  0  0
   17.9814   17.3842   20.3288 H   0  0  0  0  0  0  0  0  0  0  0  0
   18.6106   19.0308   21.5118 C   0  0  0  0  0  0  0  0  0  0  0  0
   17.5977   19.2201   21.8774 H   0  0  0  0  0  0  0  0  0  0  0  0
   18.7801   19.6690   20.6407 H   0  0  0  0  0  0  0  0  0  0  0  0
   19.6268   19.3806   22.6186 C   0  0  0  0  0  0  0  0  0  0  0  0
   19.4645   20.4215   22.9282 H   0  0  0  0  0  0  0  0  0  0  0  0
   19.4226   18.7632   23.5034 H   0  0  0  0  0  0  0  0  0  0  0  0
   21.1060   19.1997   22.1958 C   0  0  0  0  0  0  0  0  0  0  0  0
   21.3080   18.1437   21.9707 H   0  0  0  0  0  0  0  0  0  0  0  0
   21.7513   19.4569   23.0475 H   0  0  0  0  0  0  0  0  0  0  0  0
   21.5009   20.0751   20.9843 C   0  0  0  0  0  0  0  0  0  0  0  0
   22.5700   19.9645   20.7616 H   0  0  0  0  0  0  0  0  0  0  0  0
   21.3090   21.1370   21.1856 H   0  0  0  0  0  0  0  0  0  0  0  0
   20.9440   19.7914   20.0824 H   0  0  0  0  0  0  0  0  0  0  0  0
  1  2  1  0  0  0  0
  1  3  1  0  0  0  0
  1  4  1  0  0  0  0
  1  5  1  0  0  0  0
  5  6  1  0  0  0  0
  5  7  1  0  0  0  0
  5  8  1  0  0  0  0
  8  9  1  0  0  0  0
  8 10  1  0  0  0  0
  8 11  1  0  0  0  0
 11 12  1  0  0  0  0
 11 13  1  0  0  0  0
 11 14  1  0  0  0  0
 14 15  1  0  0  0  0
 14 16  1  0  0  0  0
 14 17  1  0  0  0  0
M  END
> <VConfSearch Rank>
588

> <Conf_Id>
43

> <Delta U+W>
0.642

> <U+W>
-15.222

> <U>
45.697

> <W>
-60.919

> <W(PB)>
-62.631

> <W(SA)>
1.712

> <Valence>
1.262

> <Coulomb>
44.179

> <VdW>
0.255

> <VdW6>
-3.552

> <VdW12>
3.807

> <Bond>
0.125

> <Angle>
0.616

> <Pdih>
0.521

> <Idih>
0.000

> <Tether>
0.000

$$$$
VeraChem MOL file


 17 16  0  0  0  0  0  0  0  0999 V2000     
   20.3768   17.0084   20.1199 N   0  3  0  0  0  0  0  0  0  0  0  0
   21.2212   17.3528   19.6529 H   0  0  0  0  0  0  0  0  0  0  0  0
   19.5958   17.1504   19.4722 H   0  0  0  0  0  0  0  0  0  0  0  0
   20.4908   15.9955   20.2289 H   0  0  0  0  0  0  0  0  0  0  0  0
   20.1432   17.6956   21.4505 C   0  0  0  0  0  0  0  0  0  0  0  0
   20.9968   17.4768   22.0979 H   0  0  0  0  0  0  0  0  0  0  0  0
   19.2490   17.2591   21.9036 H   0  0  0  0  0  0  0  0  0  0  0  0
   19.9675   19.2199   21.3236 C   0  0  0  0  0  0  0  0  0  0  0  0
   20.8610   19.6527   20.8542 H   0  0  0  0  0  0  0  0  0  0  0  0
   19.1191   19.4358   20.6606 H   0  0  0  0  0  0  0  0  0  0  0  0
   19.7324   19.8800   22.7000 C   0  0  0  0  0  0  0  0  0  0  0  0
   20.5798   19.6614   23.3651 H   0  0  0  0  0  0  0  0  0  0  0  0
   18.8400   19.4448   23.1718 H   0  0  0  0  0  0  0  0  0  0  0  0
   19.5553   21.4091   22.5805 C   0  0  0  0  0  0  0  0  0  0  0  0
   19.3897   21.8587   23.5682 H   0  0  0  0  0  0  0  0  0  0  0  0
   18.6933   21.6592   21.9484 H   0  0  0  0  0  0  0  0  0  0  0  0
   20.4468   21.8774   22.1432 H   0  0  0  0  0  0  0  0  0  0  0  0
  1  2  1  0  0  0  0
  1  3  1  0  0  0  0
  1  4  1  0  0  0  0
  1  5  1  0  0  0  0
  5  6  1  0  0  0  0
  5  7  1  0  0  0  0
  5  8  1  0  0  0  0
  8  9  1  0  0  0  0
  8 10  1  0  0  0  0
  8 11  1  0  0  0  0
 11 12  1  0  0  0  0
 11 13  1  0  0  0  0
 11 14  1  0  0  0  0
 14 15  1  0  0  0  0
 14 16  1  0  0  0  0
 14 17  1  0  0  0  0
M  END
> <VConfSearch Rank>
589

> <Conf_Id>
7

> <Delta U+W>
0.000

> <U+W>
-15.865

> <U>
44.664

> <W>
-60.529

> <W(PB)>
-62.309

> <W(SA)>
1.780

> <Valence>
0.872

> <Coulomb>
43.648

> <VdW>
0.144

> <VdW6>
-2.370

> <VdW12>
2.515

> <Bond>
0.080

> <Angle>
0.376

> <Pdih>
0.416

> <Idih>
0.000

> <Tether>
0.000

$$$$
VeraChem MOL file


 17 16  0  0  0  0  0  0  0  0999 V2000     
   19.7081   20.8543   23.2598 N   0  3  0  0  0  0  0  0  0  0  0  0
   19.6050   21.7485   22.7705 H   0  0  0  0  0  0  0  0  0  0  0  0
   20.6633   20.8219   23.6288 H   0  0  0  0  0  0  0  0  0  0  0  0
   19.0788   20.8847   24.0684 H   0  0  0  0  0  0  0  0  0  0  0  0
   19.4085   19.6748   22.3563 C   0  0  0  0  0  0  0  0  0  0  0  0
   18.3697   19.7578   22.0255 H   0  0  0  0  0  0  0  0  0  0  0  0
   19.5072   18.7628   22.9507 H   0  0  0  0  0  0  0  0  0  0  0  0
   20.3376   19.5987   21.1295 C   0  0  0  0  0  0  0  0  0  0  0  0
   20.2608   20.5353   20.5614 H   0  0  0  0  0  0  0  0  0  0  0  0
   21.3810   19.5170   21.4617 H   0  0  0  0  0  0  0  0  0  0  0  0
   19.9964   18.4142   20.1954 C   0  0  0  0  0  0  0  0  0  0  0  0
   20.6394   18.4647   19.3055 H   0  0  0  0  0  0  0  0  0  0  0  0
   18.9625   18.5123   19.8354 H   0  0  0  0  0  0  0  0  0  0  0  0
   20.1815   17.0373   20.8735 C   0  0  0  0  0  0  0  0  0  0  0  0
   21.2063   16.9159   21.2482 H   0  0  0  0  0  0  0  0  0  0  0  0
   19.9885   16.2270   20.1585 H   0  0  0  0  0  0  0  0  0  0  0  0
   19.4907   16.9063   21.7159 H   0  0  0  0  0  0  0  0  0  0  0  0
  1  2  1  0  0  0  0
  1  3  1  0  0  0  0
  1  4  1  0  0  0  0
  1  5  1  0  0  0  0
  5  6  1  0  0  0  0
  5  7  1  0  0  0  0
  5  8  1  0  0  0  0
  8  9  1  0  0  0  0
  8 10  1  0  0  0  0
  8 11  1  0  0  0  0
 11 12  1  0  0  0  0
 11 13  1  0  0  0  0
 11 14  1  0  0  0  0
 14 15  1  0  0  0  0
 14 16  1  0  0  0  0
 14 17  1  0  0  0  0
M  END
> <VConfSearch Rank>
590

> <Conf_Id>
36

> <Delta U+W>
0.275

> <U+W>
-15.590

> <U>
45.174

> <W>
-60.765

> <W(PB)>
-62.518

> <W(SA)>
1.754

> <Valence>
1.161

> <Coulomb>
43.789

> <VdW>
0.224

> <VdW6>
-2.897

> <VdW12>
3.121

> <Bond>
0.100

> <Angle>
0.500

> <Pdih>
0.561

> <Idih>
0.000

> <Tether>
0.000

$$$$
VeraChem MOL file


 17 16  0  0  0  0  0  0  0  0999 V2000     
   20.7579   18.9016   19.9353 N   0  3  0  0  0  0  0  0  0  0  0  0
   20.5472   19.8682   20.1963 H   0  0  0  0  0  0  0  0  0  0  0  0
   20.0316   18.6019   19.2778 H   0  0  0  0  0  0  0  0  0  0  0  0
   21.6418   18.9142   19.4163 H   0  0  0  0  0  0  0  0  0  0  0  0
   20.8289   17.9943   21.1485 C   0  0  0  0  0  0  0  0  0  0  0  0
   21.6615   18.3194   21.7780 H   0  0  0  0  0  0  0  0  0  0  0  0
   21.0543   16.9887   20.7830 H   0  0  0  0  0  0  0  0  0  0  0  0
   19.5311   17.9471   21.9822 C   0  0  0  0  0  0  0  0  0  0  0  0
   18.6605   17.8667   21.3178 H   0  0  0  0  0  0  0  0  0  0  0  0
   19.5458   17.0213   22.5726 H   0  0  0  0  0  0  0  0  0  0  0  0
   19.3533   19.1346   22.9625 C   0  0  0  0  0  0  0  0  0  0  0  0
   20.2000   19.1657   23.6627 H   0  0  0  0  0  0  0  0  0  0  0  0
   18.4598   18.9472   23.5745 H   0  0  0  0  0  0  0  0  0  0  0  0
   19.2007   20.5115   22.2773 C   0  0  0  0  0  0  0  0  0  0  0  0
   20.1425   20.8420   21.8241 H   0  0  0  0  0  0  0  0  0  0  0  0
   18.9129   21.2731   23.0137 H   0  0  0  0  0  0  0  0  0  0  0  0
   18.4234   20.4872   21.5025 H   0  0  0  0  0  0  0  0  0  0  0  0
  1  2  1  0  0  0  0
  1  3  1  0  0  0  0
  1  4  1  0  0  0  0
  1  5  1  0  0  0  0
  5  6  1  0  0  0  0
  5  7  1  0  0  0  0
  5  8  1  0  0  0  0
  8  9  1  0  0  0  0
  8 10  1  0  0  0  0
  8 11  1  0  0  0  0
 11 12  1  0  0  0  0
 11 13  1  0  0  0  0
 11 14  1  0  0  0  0
 14 15  1  0  0  0  0
 14 16  1  0  0  0  0
 14 17  1  0  0  0  0
M  END
> <VConfSearch Rank>
591

> <Conf_Id>
19

> <Delta U+W>
2.662

> <U+W>
-13.203

> <U>
47.423

> <W>
-60.626

> <W(PB)>
-62.328

> <W(SA)>
1.702

> <Valence>
2.414

> <Coulomb>
44.831

> <VdW>
0.178

> <VdW6>
-3.743

> <VdW12>
3.921

> <Bond>
0.138

> <Angle>
0.941

> <Pdih>
1.335

> <Idih>
0.000

> <Tether>
0.000

$$$$
VeraChem MOL file


 17 16  0  0  0  0  0  0  0  0999 V2000     
   20.1994   20.4430   22.8025 N   0  3  0  0  0  0  0  0  0  0  0  0
   20.8865   20.9141   23.3997 H   0  0  0  0  0  0  0  0  0  0  0  0
   19.2791   20.8120   23.0604 H   0  0  0  0  0  0  0  0  0  0  0  0
   20.3829   20.7382   21.8402 H   0  0  0  0  0  0  0  0  0  0  0  0
   20.2634   18.9350   22.9500 C   0  0  0  0  0  0  0  0  0  0  0  0
   20.0553   18.7072   23.9990 H   0  0  0  0  0  0  0  0  0  0  0  0
   21.2825   18.6066   22.7288 H   0  0  0  0  0  0  0  0  0  0  0  0
   19.2626   18.1675   22.0606 C   0  0  0  0  0  0  0  0  0  0  0  0
   19.1186   17.1718   22.5009 H   0  0  0  0  0  0  0  0  0  0  0  0
   18.2798   18.6561   22.0931 H   0  0  0  0  0  0  0  0  0  0  0  0
   19.7220   17.9774   20.5925 C   0  0  0  0  0  0  0  0  0  0  0  0
   18.9919   17.3337   20.0820 H   0  0  0  0  0  0  0  0  0  0  0  0
   20.6756   17.4312   20.5714 H   0  0  0  0  0  0  0  0  0  0  0  0
   19.8637   19.2918   19.7919 C   0  0  0  0  0  0  0  0  0  0  0  0
   18.9578   19.9068   19.8718 H   0  0  0  0  0  0  0  0  0  0  0  0
   20.0253   19.0739   18.7281 H   0  0  0  0  0  0  0  0  0  0  0  0
   20.7228   19.8806   20.1338 H   0  0  0  0  0  0  0  0  0  0  0  0
  1  2  1  0  0  0  0
  1  3  1  0  0  0  0
  1  4  1  0  0  0  0
  1  5  1  0  0  0  0
  5  6  1  0  0  0  0
  5  7  1  0  0  0  0
  5  8  1  0  0  0  0
  8  9  1  0  0  0  0
  8 10  1  0  0  0  0
  8 11  1  0  0  0  0
 11 12  1  0  0  0  0
 11 13  1  0  0  0  0
 11 14  1  0  0  0  0
 14 15  1  0  0  0  0
 14 16  1  0  0  0  0
 14 17  1  0  0  0  0
M  END
> <VConfSearch Rank>
592

> <Conf_Id>
44

> <Delta U+W>
2.712

> <U+W>
-13.153

> <U>
47.423

> <W>
-60.576

> <W(PB)>
-62.262

> <W(SA)>
1.687

> <Valence>
2.414

> <Coulomb>
44.831

> <VdW>
0.178

> <VdW6>
-3.743

> <VdW12>
3.922

> <Bond>
0.138

> <Angle>
0.941

> <Pdih>
1.335

> <Idih>
0.000

> <Tether>
0.000

$$$$
VeraChem MOL file


 17 16  0  0  0  0  0  0  0  0999 V2000     
   21.5062   17.9613   22.1138 N   0  3  0  0  0  0  0  0  0  0  0  0
   21.4139   18.7106   22.8056 H   0  0  0  0  0  0  0  0  0  0  0  0
   22.3181   18.1857   21.5309 H   0  0  0  0  0  0  0  0  0  0  0  0
   21.7369   17.1055   22.6286 H   0  0  0  0  0  0  0  0  0  0  0  0
   20.2443   17.8001   21.2883 C   0  0  0  0  0  0  0  0  0  0  0  0
   19.4279   17.5338   21.9647 H   0  0  0  0  0  0  0  0  0  0  0  0
   20.4003   16.9638   20.6014 H   0  0  0  0  0  0  0  0  0  0  0  0
   19.8624   19.0588   20.4822 C   0  0  0  0  0  0  0  0  0  0  0  0
   20.6708   19.2943   19.7774 H   0  0  0  0  0  0  0  0  0  0  0  0
   18.9802   18.8294   19.8698 H   0  0  0  0  0  0  0  0  0  0  0  0
   19.5654   20.3016   21.3578 C   0  0  0  0  0  0  0  0  0  0  0  0
   19.3187   21.1469   20.7001 H   0  0  0  0  0  0  0  0  0  0  0  0
   20.4678   20.5998   21.9087 H   0  0  0  0  0  0  0  0  0  0  0  0
   18.3999   20.0796   22.3488 C   0  0  0  0  0  0  0  0  0  0  0  0
   17.4847   19.7813   21.8211 H   0  0  0  0  0  0  0  0  0  0  0  0
   18.1822   21.0034   22.9003 H   0  0  0  0  0  0  0  0  0  0  0  0
   18.6389   19.3028   23.0859 H   0  0  0  0  0  0  0  0  0  0  0  0
  1  2  1  0  0  0  0
  1  3  1  0  0  0  0
  1  4  1  0  0  0  0
  1  5  1  0  0  0  0
  5  6  1  0  0  0  0
  5  7  1  0  0  0  0
  5  8  1  0  0  0  0
  8  9  1  0  0  0  0
  8 10  1  0  0  0  0
  8 11  1  0  0  0  0
 11 12  1  0  0  0  0
 11 13  1  0  0  0  0
 11 14  1  0  0  0  0
 14 15  1  0  0  0  0
 14 16  1  0  0  0  0
 14 17  1  0  0  0  0
M  END
> <VConfSearch Rank>
593

> <Conf_Id>
1

> <Delta U+W>
0.685

> <U+W>
-15.179

> <U>
45.697

> <W>
-60.876

> <W(PB)>
-62.586

> <W(SA)>
1.710

> <Valence>
1.263

> <Coulomb>
44.179

> <VdW>
0.255

> <VdW6>
-3.552

> <VdW12>
3.807

> <Bond>
0.125

> <Angle>
0.616

> <Pdih>
0.521

> <Idih>
0.000

> <Tether>
0.000

$$$$
VeraChem MOL file


 17 16  0  0  0  0  0  0  0  0999 V2000     
   21.8697   18.6499   21.4516 N   0  3  0  0  0  0  0  0  0  0  0  0
   22.2618   18.3427   22.3467 H   0  0  0  0  0  0  0  0  0  0  0  0
   21.7647   19.6673   21.5004 H   0  0  0  0  0  0  0  0  0  0  0  0
   22.5764   18.4561   20.7349 H   0  0  0  0  0  0  0  0  0  0  0  0
   20.5527   17.9633   21.1454 C   0  0  0  0  0  0  0  0  0  0  0  0
   20.7463   16.8897   21.0711 H   0  0  0  0  0  0  0  0  0  0  0  0
   20.2068   18.3124   20.1690 H   0  0  0  0  0  0  0  0  0  0  0  0
   19.4591   18.2129   22.2045 C   0  0  0  0  0  0  0  0  0  0  0  0
   18.5691   17.6290   21.9348 H   0  0  0  0  0  0  0  0  0  0  0  0
   19.7992   17.8222   23.1727 H   0  0  0  0  0  0  0  0  0  0  0  0
   19.0626   19.7021   22.3617 C   0  0  0  0  0  0  0  0  0  0  0  0
   19.9214   20.2856   22.7205 H   0  0  0  0  0  0  0  0  0  0  0  0
   18.2936   19.7829   23.1427 H   0  0  0  0  0  0  0  0  0  0  0  0
   18.5191   20.3252   21.0555 C   0  0  0  0  0  0  0  0  0  0  0  0
   18.1905   21.3580   21.2292 H   0  0  0  0  0  0  0  0  0  0  0  0
   17.6580   19.7592   20.6768 H   0  0  0  0  0  0  0  0  0  0  0  0
   19.2851   20.3494   20.2702 H   0  0  0  0  0  0  0  0  0  0  0  0
  1  2  1  0  0  0  0
  1  3  1  0  0  0  0
  1  4  1  0  0  0  0
  1  5  1  0  0  0  0
  5  6  1  0  0  0  0
  5  7  1  0  0  0  0
  5  8  1  0  0  0  0
  8  9  1  0  0  0  0
  8 10  1  0  0  0  0
  8 11  1  0  0  0  0
 11 12  1  0  0  0  0
 11 13  1  0  0  0  0
 11 14  1  0  0  0  0
 14 15  1  0  0  0  0
 14 16  1  0  0  0  0
 14 17  1  0  0  0  0
M  END
> <VConfSearch Rank>
594

> <Conf_Id>
43

> <Delta U+W>
0.642

> <U+W>
-15.222

> <U>
45.697

> <W>
-60.919

> <W(PB)>
-62.631

> <W(SA)>
1.712

> <Valence>
1.262

> <Coulomb>
44.179

> <VdW>
0.255

> <VdW6>
-3.552

> <VdW12>
3.807

> <Bond>
0.125

> <Angle>
0.616

> <Pdih>
0.521

> <Idih>
0.000

> <Tether>
0.000

$$$$
VeraChem MOL file


 17 16  0  0  0  0  0  0  0  0999 V2000     
   22.0849   19.6356   20.2883 N   0  3  0  0  0  0  0  0  0  0  0  0
   22.7459   19.1134   20.8715 H   0  0  0  0  0  0  0  0  0  0  0  0
   22.1509   20.6195   20.5662 H   0  0  0  0  0  0  0  0  0  0  0  0
   22.4293   19.5763   19.3245 H   0  0  0  0  0  0  0  0  0  0  0  0
   20.6716   19.1030   20.4154 C   0  0  0  0  0  0  0  0  0  0  0  0
   20.6704   18.0641   20.0747 H   0  0  0  0  0  0  0  0  0  0  0  0
   20.0306   19.6836   19.7464 H   0  0  0  0  0  0  0  0  0  0  0  0
   20.1222   19.1771   21.8517 C   0  0  0  0  0  0  0  0  0  0  0  0
   20.7770   18.6059   22.5232 H   0  0  0  0  0  0  0  0  0  0  0  0
   20.1392   20.2198   22.1960 H   0  0  0  0  0  0  0  0  0  0  0  0
   18.6821   18.6254   21.9370 C   0  0  0  0  0  0  0  0  0  0  0  0
   18.6639   17.5827   21.5894 H   0  0  0  0  0  0  0  0  0  0  0  0
   18.0269   19.1948   21.2626 H   0  0  0  0  0  0  0  0  0  0  0  0
   18.1244   18.6965   23.3750 C   0  0  0  0  0  0  0  0  0  0  0  0
   17.1014   18.3002   23.4143 H   0  0  0  0  0  0  0  0  0  0  0  0
   18.0979   19.7322   23.7381 H   0  0  0  0  0  0  0  0  0  0  0  0
   18.7399   18.1075   24.0674 H   0  0  0  0  0  0  0  0  0  0  0  0
  1  2  1  0  0  0  0
  1  3  1  0  0  0  0
  1  4  1  0  0  0  0
  1  5  1  0  0  0  0
  5  6  1  0  0  0  0
  5  7  1  0  0  0  0
  5  8  1  0  0  0  0
  8  9  1  0  0  0  0
  8 10  1  0  0  0  0
  8 11  1  0  0  0  0
 11 12  1  0  0  0  0
 11 13  1  0  0  0  0
 11 14  1  0  0  0  0
 14 15  1  0  0  0  0
 14 16  1  0  0  0  0
 14 17  1  0  0  0  0
M  END
> <VConfSearch Rank>
595

> <Conf_Id>
7

> <Delta U+W>
0.000

> <U+W>
-15.865

> <U>
44.664

> <W>
-60.529

> <W(PB)>
-62.309

> <W(SA)>
1.780

> <Valence>
0.872

> <Coulomb>
43.648

> <VdW>
0.144

> <VdW6>
-2.370

> <VdW12>
2.515

> <Bond>
0.080

> <Angle>
0.376

> <Pdih>
0.416

> <Idih>
0.000

> <Tether>
0.000

$$$$
VeraChem MOL file


 17 16  0  0  0  0  0  0  0  0999 V2000     
   20.5718   17.8104   19.6810 N   0  3  0  0  0  0  0  0  0  0  0  0
   20.6234   18.4382   18.8731 H   0  0  0  0  0  0  0  0  0  0  0  0
   19.7104   17.2645   19.5831 H   0  0  0  0  0  0  0  0  0  0  0  0
   21.3520   17.1511   19.5942 H   0  0  0  0  0  0  0  0  0  0  0  0
   20.6175   18.5682   20.9929 C   0  0  0  0  0  0  0  0  0  0  0  0
   21.5712   19.1005   21.0425 H   0  0  0  0  0  0  0  0  0  0  0  0
   20.5905   17.8365   21.8045 H   0  0  0  0  0  0  0  0  0  0  0  0
   19.4574   19.5688   21.1563 C   0  0  0  0  0  0  0  0  0  0  0  0
   19.4696   20.2744   20.3149 H   0  0  0  0  0  0  0  0  0  0  0  0
   18.4994   19.0344   21.1047 H   0  0  0  0  0  0  0  0  0  0  0  0
   19.5372   20.3635   22.4807 C   0  0  0  0  0  0  0  0  0  0  0  0
   18.7317   21.1111   22.4975 H   0  0  0  0  0  0  0  0  0  0  0  0
   20.4810   20.9256   22.5190 H   0  0  0  0  0  0  0  0  0  0  0  0
   19.4169   19.4648   23.7328 C   0  0  0  0  0  0  0  0  0  0  0  0
   18.4837   18.8868   23.7162 H   0  0  0  0  0  0  0  0  0  0  0  0
   19.4167   20.0745   24.6456 H   0  0  0  0  0  0  0  0  0  0  0  0
   20.2551   18.7604   23.8059 H   0  0  0  0  0  0  0  0  0  0  0  0
  1  2  1  0  0  0  0
  1  3  1  0  0  0  0
  1  4  1  0  0  0  0
  1  5  1  0  0  0  0
  5  6  1  0  0  0  0
  5  7  1  0  0  0  0
  5  8  1  0  0  0  0
  8  9  1  0  0  0  0
  8 10  1  0  0  0  0
  8 11  1  0  0  0  0
 11 12  1  0  0  0  0
 11 13  1  0  0  0  0
 11 14  1  0  0  0  0
 14 15  1  0  0  0  0
 14 16  1  0  0  0  0
 14 17  1  0  0  0  0
M  END
> <VConfSearch Rank>
596

> <Conf_Id>
36

> <Delta U+W>
0.275

> <U+W>
-15.590

> <U>
45.174

> <W>
-60.765

> <W(PB)>
-62.518

> <W(SA)>
1.754

> <Valence>
1.161

> <Coulomb>
43.789

> <VdW>
0.224

> <VdW6>
-2.897

> <VdW12>
3.121

> <Bond>
0.100

> <Angle>
0.500

> <Pdih>
0.561

> <Idih>
0.000

> <Tether>
0.000

$$$$
VeraChem MOL file


 17 16  0  0  0  0  0  0  0  0999 V2000     
   18.8312   20.3939   22.1023 N   0  3  0  0  0  0  0  0  0  0  0  0
   18.5477   19.5197   22.5520 H   0  0  0  0  0  0  0  0  0  0  0  0
   18.1949   20.5475   21.3143 H   0  0  0  0  0  0  0  0  0  0  0  0
   18.6602   21.1491   22.7741 H   0  0  0  0  0  0  0  0  0  0  0  0
   20.2803   20.3527   21.6566 C   0  0  0  0  0  0  0  0  0  0  0  0
   20.9142   20.2560   22.5421 H   0  0  0  0  0  0  0  0  0  0  0  0
   20.4984   21.3166   21.1887 H   0  0  0  0  0  0  0  0  0  0  0  0
   20.6045   19.2233   20.6562 C   0  0  0  0  0  0  0  0  0  0  0  0
   19.8189   19.1620   19.8914 H   0  0  0  0  0  0  0  0  0  0  0  0
   21.5230   19.5020   20.1227 H   0  0  0  0  0  0  0  0  0  0  0  0
   20.8336   17.8350   21.3063 C   0  0  0  0  0  0  0  0  0  0  0  0
   21.6641   17.8953   22.0236 H   0  0  0  0  0  0  0  0  0  0  0  0
   21.1588   17.1356   20.5232 H   0  0  0  0  0  0  0  0  0  0  0  0
   19.5892   17.2445   22.0075 C   0  0  0  0  0  0  0  0  0  0  0  0
   19.3468   17.7924   22.9255 H   0  0  0  0  0  0  0  0  0  0  0  0
   19.7733   16.2009   22.2942 H   0  0  0  0  0  0  0  0  0  0  0  0
   18.7141   17.2582   21.3447 H   0  0  0  0  0  0  0  0  0  0  0  0
  1  2  1  0  0  0  0
  1  3  1  0  0  0  0
  1  4  1  0  0  0  0
  1  5  1  0  0  0  0
  5  6  1  0  0  0  0
  5  7  1  0  0  0  0
  5  8  1  0  0  0  0
  8  9  1  0  0  0  0
  8 10  1  0  0  0  0
  8 11  1  0  0  0  0
 11 12  1  0  0  0  0
 11 13  1  0  0  0  0
 11 14  1  0  0  0  0
 14 15  1  0  0  0  0
 14 16  1  0  0  0  0
 14 17  1  0  0  0  0
M  END
> <VConfSearch Rank>
597

> <Conf_Id>
19

> <Delta U+W>
2.662

> <U+W>
-13.203

> <U>
47.423

> <W>
-60.626

> <W(PB)>
-62.328

> <W(SA)>
1.702

> <Valence>
2.414

> <Coulomb>
44.831

> <VdW>
0.178

> <VdW6>
-3.743

> <VdW12>
3.921

> <Bond>
0.138

> <Angle>
0.941

> <Pdih>
1.335

> <Idih>
0.000

> <Tether>
0.000

$$$$
VeraChem MOL file


 17 16  0  0  0  0  0  0  0  0999 V2000     
   20.9616   18.5145   20.1908 N   0  3  0  0  0  0  0  0  0  0  0  0
   21.2624   18.6905   19.2268 H   0  0  0  0  0  0  0  0  0  0  0  0
   21.3133   17.5871   20.4471 H   0  0  0  0  0  0  0  0  0  0  0  0
   21.4426   19.1937   20.7859 H   0  0  0  0  0  0  0  0  0  0  0  0
   19.4549   18.6060   20.3373 C   0  0  0  0  0  0  0  0  0  0  0  0
   19.0227   17.8514   19.6746 H   0  0  0  0  0  0  0  0  0  0  0  0
   19.1302   19.5893   19.9866 H   0  0  0  0  0  0  0  0  0  0  0  0
   18.9415   18.3677   21.7730 C   0  0  0  0  0  0  0  0  0  0  0  0
   17.8840   18.0791   21.7069 H   0  0  0  0  0  0  0  0  0  0  0  0
   19.4605   17.5094   22.2199 H   0  0  0  0  0  0  0  0  0  0  0  0
   19.0410   19.6027   22.7045 C   0  0  0  0  0  0  0  0  0  0  0  0
   18.5556   19.3560   23.6592 H   0  0  0  0  0  0  0  0  0  0  0  0
   18.4649   20.4354   22.2770 H   0  0  0  0  0  0  0  0  0  0  0  0
   20.4855   20.0705   22.9932 C   0  0  0  0  0  0  0  0  0  0  0  0
   21.1141   19.2371   23.3329 H   0  0  0  0  0  0  0  0  0  0  0  0
   20.4879   20.8327   23.7833 H   0  0  0  0  0  0  0  0  0  0  0  0
   20.9463   20.5237   22.1078 H   0  0  0  0  0  0  0  0  0  0  0  0
  1  2  1  0  0  0  0
  1  3  1  0  0  0  0
  1  4  1  0  0  0  0
  1  5  1  0  0  0  0
  5  6  1  0  0  0  0
  5  7  1  0  0  0  0
  5  8  1  0  0  0  0
  8  9  1  0  0  0  0
  8 10  1  0  0  0  0
  8 11  1  0  0  0  0
 11 12  1  0  0  0  0
 11 13  1  0  0  0  0
 11 14  1  0  0  0  0
 14 15  1  0  0  0  0
 14 16  1  0  0  0  0
 14 17  1  0  0  0  0
M  END
> <VConfSearch Rank>
598

> <Conf_Id>
44

> <Delta U+W>
2.712

> <U+W>
-13.153

> <U>
47.423

> <W>
-60.576

> <W(PB)>
-62.262

> <W(SA)>
1.687

> <Valence>
2.414

> <Coulomb>
44.831

> <VdW>
0.178

> <VdW6>
-3.743

> <VdW12>
3.922

> <Bond>
0.138

> <Angle>
0.941

> <Pdih>
1.335

> <Idih>
0.000

> <Tether>
0.000

$$$$
VeraChem MOL file


 17 16  0  0  0  0  0  0  0  0999 V2000     
   21.2604   19.4808   20.2026 N   0  3  0  0  0  0  0  0  0  0  0  0
   20.8158   18.6012   19.9251 H   0  0  0  0  0  0  0  0  0  0  0  0
   22.2114   19.2557   20.5100 H   0  0  0  0  0  0  0  0  0  0  0  0
   21.3487   20.0517   19.3559 H   0  0  0  0  0  0  0  0  0  0  0  0
   20.4703   20.1933   21.2833 C   0  0  0  0  0  0  0  0  0  0  0  0
   19.4815   20.4290   20.8813 H   0  0  0  0  0  0  0  0  0  0  0  0
   20.9797   21.1358   21.5017 H   0  0  0  0  0  0  0  0  0  0  0  0
   20.3219   19.3793   22.5854 C   0  0  0  0  0  0  0  0  0  0  0  0
   21.3183   19.1825   23.0029 H   0  0  0  0  0  0  0  0  0  0  0  0
   19.7961   19.9954   23.3268 H   0  0  0  0  0  0  0  0  0  0  0  0
   19.5651   18.0394   22.4080 C   0  0  0  0  0  0  0  0  0  0  0  0
   19.5218   17.5263   23.3789 H   0  0  0  0  0  0  0  0  0  0  0  0
   20.1271   17.3741   21.7385 H   0  0  0  0  0  0  0  0  0  0  0  0
   18.1266   18.2228   21.8723 C   0  0  0  0  0  0  0  0  0  0  0  0
   17.5434   18.8843   22.5262 H   0  0  0  0  0  0  0  0  0  0  0  0
   17.6074   17.2569   21.8247 H   0  0  0  0  0  0  0  0  0  0  0  0
   18.1233   18.6504   20.8618 H   0  0  0  0  0  0  0  0  0  0  0  0
  1  2  1  0  0  0  0
  1  3  1  0  0  0  0
  1  4  1  0  0  0  0
  1  5  1  0  0  0  0
  5  6  1  0  0  0  0
  5  7  1  0  0  0  0
  5  8  1  0  0  0  0
  8  9  1  0  0  0  0
  8 10  1  0  0  0  0
  8 11  1  0  0  0  0
 11 12  1  0  0  0  0
 11 13  1  0  0  0  0
 11 14  1  0  0  0  0
 14 15  1  0  0  0  0
 14 16  1  0  0  0  0
 14 17  1  0  0  0  0
M  END
> <VConfSearch Rank>
599

> <Conf_Id>
1

> <Delta U+W>
0.685

> <U+W>
-15.179

> <U>
45.697

> <W>
-60.876

> <W(PB)>
-62.586

> <W(SA)>
1.710

> <Valence>
1.263

> <Coulomb>
44.179

> <VdW>
0.255

> <VdW6>
-3.552

> <VdW12>
3.807

> <Bond>
0.125

> <Angle>
0.616

> <Pdih>
0.521

> <Idih>
0.000

> <Tether>
0.000

$$$$
VeraChem MOL file


 17 16  0  0  0  0  0  0  0  0999 V2000     
   19.8460   20.3366   20.1055 N   0  3  0  0  0  0  0  0  0  0  0  0
   19.4110   21.2166   20.3984 H   0  0  0  0  0  0  0  0  0  0  0  0
   19.0913   19.6612   19.9551 H   0  0  0  0  0  0  0  0  0  0  0  0
   20.2800   20.5086   19.1929 H   0  0  0  0  0  0  0  0  0  0  0  0
   20.8527   19.8368   21.1236 C   0  0  0  0  0  0  0  0  0  0  0  0
   21.6443   20.5867   21.2050 H   0  0  0  0  0  0  0  0  0  0  0  0
   21.2980   18.9164   20.7371 H   0  0  0  0  0  0  0  0  0  0  0  0
   20.2499   19.5768   22.5196 C   0  0  0  0  0  0  0  0  0  0  0  0
   21.0583   19.2823   23.2020 H   0  0  0  0  0  0  0  0  0  0  0  0
   19.8418   20.5158   22.9165 H   0  0  0  0  0  0  0  0  0  0  0  0
   19.1472   18.4890   22.5371 C   0  0  0  0  0  0  0  0  0  0  0  0
   18.2897   18.8109   21.9307 H   0  0  0  0  0  0  0  0  0  0  0  0
   18.7699   18.3842   23.5640 H   0  0  0  0  0  0  0  0  0  0  0  0
   19.6470   17.1122   22.0427 C   0  0  0  0  0  0  0  0  0  0  0  0
   18.8535   16.3592   22.1338 H   0  0  0  0  0  0  0  0  0  0  0  0
   20.5047   16.7678   22.6350 H   0  0  0  0  0  0  0  0  0  0  0  0
   19.9504   17.1472   20.9889 H   0  0  0  0  0  0  0  0  0  0  0  0
  1  2  1  0  0  0  0
  1  3  1  0  0  0  0
  1  4  1  0  0  0  0
  1  5  1  0  0  0  0
  5  6  1  0  0  0  0
  5  7  1  0  0  0  0
  5  8  1  0  0  0  0
  8  9  1  0  0  0  0
  8 10  1  0  0  0  0
  8 11  1  0  0  0  0
 11 12  1  0  0  0  0
 11 13  1  0  0  0  0
 11 14  1  0  0  0  0
 14 15  1  0  0  0  0
 14 16  1  0  0  0  0
 14 17  1  0  0  0  0
M  END
> <VConfSearch Rank>
600

> <Conf_Id>
43

> <Delta U+W>
0.642

> <U+W>
-15.222

> <U>
45.697

> <W>
-60.919

> <W(PB)>
-62.631

> <W(SA)>
1.712

> <Valence>
1.262

> <Coulomb>
44.179

> <VdW>
0.255

> <VdW6>
-3.552

> <VdW12>
3.807

> <Bond>
0.125

> <Angle>
0.616

> <Pdih>
0.521

> <Idih>
0.000

> <Tether>
0.000

$$$$
VeraChem MOL file


 17 16  0  0  0  0  0  0  0  0999 V2000     
   22.4645   19.5823   21.7617 N   0  3  0  0  0  0  0  0  0  0  0  0
   22.7755   18.9717   21.0000 H   0  0  0  0  0  0  0  0  0  0  0  0
   22.6477   19.0857   22.6390 H   0  0  0  0  0  0  0  0  0  0  0  0
   23.0781   20.4034   21.7524 H   0  0  0  0  0  0  0  0  0  0  0  0
   21.0054   19.9675   21.6212 C   0  0  0  0  0  0  0  0  0  0  0  0
   20.8902   20.5173   20.6831 H   0  0  0  0  0  0  0  0  0  0  0  0
   20.7528   20.6399   22.4455 H   0  0  0  0  0  0  0  0  0  0  0  0
   20.0545   18.7567   21.6314 C   0  0  0  0  0  0  0  0  0  0  0  0
   20.3210   18.0761   20.8117 H   0  0  0  0  0  0  0  0  0  0  0  0
   20.1840   18.1984   22.5681 H   0  0  0  0  0  0  0  0  0  0  0  0
   18.5800   19.1926   21.4860 C   0  0  0  0  0  0  0  0  0  0  0  0
   18.4504   19.7544   20.5500 H   0  0  0  0  0  0  0  0  0  0  0  0
   18.3136   19.8765   22.3043 H   0  0  0  0  0  0  0  0  0  0  0  0
   17.6202   17.9832   21.4953 C   0  0  0  0  0  0  0  0  0  0  0  0
   16.5786   18.3138   21.3910 H   0  0  0  0  0  0  0  0  0  0  0  0
   17.7020   17.4207   22.4345 H   0  0  0  0  0  0  0  0  0  0  0  0
   17.8399   17.2977   20.6664 H   0  0  0  0  0  0  0  0  0  0  0  0
  1  2  1  0  0  0  0
  1  3  1  0  0  0  0
  1  4  1  0  0  0  0
  1  5  1  0  0  0  0
  5  6  1  0  0  0  0
  5  7  1  0  0  0  0
  5  8  1  0  0  0  0
  8  9  1  0  0  0  0
  8 10  1  0  0  0  0
  8 11  1  0  0  0  0
 11 12  1  0  0  0  0
 11 13  1  0  0  0  0
 11 14  1  0  0  0  0
 14 15  1  0  0  0  0
 14 16  1  0  0  0  0
 14 17  1  0  0  0  0
M  END
> <VConfSearch Rank>
601

> <Conf_Id>
7

> <Delta U+W>
0.000

> <U+W>
-15.865

> <U>
44.664

> <W>
-60.529

> <W(PB)>
-62.309

> <W(SA)>
1.780

> <Valence>
0.872

> <Coulomb>
43.648

> <VdW>
0.144

> <VdW6>
-2.370

> <VdW12>
2.515

> <Bond>
0.080

> <Angle>
0.376

> <Pdih>
0.416

> <Idih>
0.000

> <Tether>
0.000

$$$$
VeraChem MOL file


 17 16  0  0  0  0  0  0  0  0999 V2000     
   18.2488   17.3766   21.8423 N   0  3  0  0  0  0  0  0  0  0  0  0
   17.6811   17.5771   22.6713 H   0  0  0  0  0  0  0  0  0  0  0  0
   18.8732   16.6017   22.0858 H   0  0  0  0  0  0  0  0  0  0  0  0
   17.6085   17.0264   21.1225 H   0  0  0  0  0  0  0  0  0  0  0  0
   19.0150   18.5962   21.3702 C   0  0  0  0  0  0  0  0  0  0  0  0
   18.2890   19.3679   21.1005 H   0  0  0  0  0  0  0  0  0  0  0  0
   19.5691   18.3171   20.4703 H   0  0  0  0  0  0  0  0  0  0  0  0
   19.9881   19.1488   22.4293 C   0  0  0  0  0  0  0  0  0  0  0  0
   19.4277   19.3884   23.3427 H   0  0  0  0  0  0  0  0  0  0  0  0
   20.7163   18.3732   22.7014 H   0  0  0  0  0  0  0  0  0  0  0  0
   20.7347   20.4157   21.9500 C   0  0  0  0  0  0  0  0  0  0  0  0
   21.3478   20.8026   22.7760 H   0  0  0  0  0  0  0  0  0  0  0  0
   20.0083   21.2046   21.7088 H   0  0  0  0  0  0  0  0  0  0  0  0
   21.6434   20.1551   20.7268 C   0  0  0  0  0  0  0  0  0  0  0  0
   22.3757   19.3654   20.9397 H   0  0  0  0  0  0  0  0  0  0  0  0
   22.1989   21.0634   20.4595 H   0  0  0  0  0  0  0  0  0  0  0  0
   21.0600   19.8537   19.8477 H   0  0  0  0  0  0  0  0  0  0  0  0
  1  2  1  0  0  0  0
  1  3  1  0  0  0  0
  1  4  1  0  0  0  0
  1  5  1  0  0  0  0
  5  6  1  0  0  0  0
  5  7  1  0  0  0  0
  5  8  1  0  0  0  0
  8  9  1  0  0  0  0
  8 10  1  0  0  0  0
  8 11  1  0  0  0  0
 11 12  1  0  0  0  0
 11 13  1  0  0  0  0
 11 14  1  0  0  0  0
 14 15  1  0  0  0  0
 14 16  1  0  0  0  0
 14 17  1  0  0  0  0
M  END
> <VConfSearch Rank>
602

> <Conf_Id>
36

> <Delta U+W>
0.275

> <U+W>
-15.590

> <U>
45.174

> <W>
-60.765

> <W(PB)>
-62.518

> <W(SA)>
1.754

> <Valence>
1.161

> <Coulomb>
43.789

> <VdW>
0.224

> <VdW6>
-2.897

> <VdW12>
3.121

> <Bond>
0.100

> <Angle>
0.500

> <Pdih>
0.561

> <Idih>
0.000

> <Tether>
0.000

$$$$
VeraChem MOL file


 17 16  0  0  0  0  0  0  0  0999 V2000     
   18.3575   18.9101   22.5760 N   0  3  0  0  0  0  0  0  0  0  0  0
   19.1561   18.6069   23.1391 H   0  0  0  0  0  0  0  0  0  0  0  0
   17.8722   18.0644   22.2615 H   0  0  0  0  0  0  0  0  0  0  0  0
   17.7155   19.4052   23.2034 H   0  0  0  0  0  0  0  0  0  0  0  0
   18.7889   19.7787   21.4101 C   0  0  0  0  0  0  0  0  0  0  0  0
   19.2373   20.6942   21.8052 H   0  0  0  0  0  0  0  0  0  0  0  0
   17.8825   20.0547   20.8644 H   0  0  0  0  0  0  0  0  0  0  0  0
   19.7719   19.0931   20.4378 C   0  0  0  0  0  0  0  0  0  0  0  0
   19.4422   18.0660   20.2325 H   0  0  0  0  0  0  0  0  0  0  0  0
   19.7187   19.6240   19.4781 H   0  0  0  0  0  0  0  0  0  0  0  0
   21.2497   19.1015   20.9057 C   0  0  0  0  0  0  0  0  0  0  0  0
   21.5867   20.1381   21.0469 H   0  0  0  0  0  0  0  0  0  0  0  0
   21.8705   18.6875   20.0988 H   0  0  0  0  0  0  0  0  0  0  0  0
   21.5161   18.2931   22.1958 C   0  0  0  0  0  0  0  0  0  0  0  0
   21.0863   18.7861   23.0756 H   0  0  0  0  0  0  0  0  0  0  0  0
   22.5959   18.2032   22.3723 H   0  0  0  0  0  0  0  0  0  0  0  0
   21.1052   17.2778   22.1221 H   0  0  0  0  0  0  0  0  0  0  0  0
  1  2  1  0  0  0  0
  1  3  1  0  0  0  0
  1  4  1  0  0  0  0
  1  5  1  0  0  0  0
  5  6  1  0  0  0  0
  5  7  1  0  0  0  0
  5  8  1  0  0  0  0
  8  9  1  0  0  0  0
  8 10  1  0  0  0  0
  8 11  1  0  0  0  0
 11 12  1  0  0  0  0
 11 13  1  0  0  0  0
 11 14  1  0  0  0  0
 14 15  1  0  0  0  0
 14 16  1  0  0  0  0
 14 17  1  0  0  0  0
M  END
> <VConfSearch Rank>
603

> <Conf_Id>
19

> <Delta U+W>
2.662

> <U+W>
-13.203

> <U>
47.423

> <W>
-60.626

> <W(PB)>
-62.328

> <W(SA)>
1.702

> <Valence>
2.414

> <Coulomb>
44.831

> <VdW>
0.178

> <VdW6>
-3.743

> <VdW12>
3.921

> <Bond>
0.138

> <Angle>
0.941

> <Pdih>
1.335

> <Idih>
0.000

> <Tether>
0.000

$$$$
VeraChem MOL file


 17 16  0  0  0  0  0  0  0  0999 V2000     
   18.4589   20.0399   20.9098 N   0  3  0  0  0  0  0  0  0  0  0  0
   17.9817   20.3740   20.0663 H   0  0  0  0  0  0  0  0  0  0  0  0
   18.0551   20.5498   21.7012 H   0  0  0  0  0  0  0  0  0  0  0  0
   18.2094   19.0547   21.0277 H   0  0  0  0  0  0  0  0  0  0  0  0
   19.9606   20.2329   20.8222 C   0  0  0  0  0  0  0  0  0  0  0  0
   20.1387   21.3048   20.7001 H   0  0  0  0  0  0  0  0  0  0  0  0
   20.3251   19.7256   19.9249 H   0  0  0  0  0  0  0  0  0  0  0  0
   20.7378   19.7317   22.0577 C   0  0  0  0  0  0  0  0  0  0  0  0
   21.7099   20.2422   22.0716 H   0  0  0  0  0  0  0  0  0  0  0  0
   20.2222   20.0408   22.9766 H   0  0  0  0  0  0  0  0  0  0  0  0
   21.0014   18.2043   22.0750 C   0  0  0  0  0  0  0  0  0  0  0  0
   21.6463   17.9742   22.9348 H   0  0  0  0  0  0  0  0  0  0  0  0
   21.5733   17.9178   21.1812 H   0  0  0  0  0  0  0  0  0  0  0  0
   19.7259   17.3367   22.1704 C   0  0  0  0  0  0  0  0  0  0  0  0
   19.0842   17.6612   22.9999 H   0  0  0  0  0  0  0  0  0  0  0  0
   19.9924   16.2865   22.3469 H   0  0  0  0  0  0  0  0  0  0  0  0
   19.1464   17.3697   21.2404 H   0  0  0  0  0  0  0  0  0  0  0  0
  1  2  1  0  0  0  0
  1  3  1  0  0  0  0
  1  4  1  0  0  0  0
  1  5  1  0  0  0  0
  5  6  1  0  0  0  0
  5  7  1  0  0  0  0
  5  8  1  0  0  0  0
  8  9  1  0  0  0  0
  8 10  1  0  0  0  0
  8 11  1  0  0  0  0
 11 12  1  0  0  0  0
 11 13  1  0  0  0  0
 11 14  1  0  0  0  0
 14 15  1  0  0  0  0
 14 16  1  0  0  0  0
 14 17  1  0  0  0  0
M  END
> <VConfSearch Rank>
604

> <Conf_Id>
44

> <Delta U+W>
2.712

> <U+W>
-13.153

> <U>
47.423

> <W>
-60.576

> <W(PB)>
-62.262

> <W(SA)>
1.687

> <Valence>
2.414

> <Coulomb>
44.831

> <VdW>
0.178

> <VdW6>
-3.743

> <VdW12>
3.922

> <Bond>
0.138

> <Angle>
0.941

> <Pdih>
1.335

> <Idih>
0.000

> <Tether>
0.000

$$$$
VeraChem MOL file


 17 16  0  0  0  0  0  0  0  0999 V2000     
   18.2281   18.7427   22.5991 N   0  3  0  0  0  0  0  0  0  0  0  0
   18.3481   19.7551   22.5039 H   0  0  0  0  0  0  0  0  0  0  0  0
   18.4075   18.5074   23.5799 H   0  0  0  0  0  0  0  0  0  0  0  0
   17.2392   18.5404   22.4206 H   0  0  0  0  0  0  0  0  0  0  0  0
   19.1389   17.9780   21.6581 C   0  0  0  0  0  0  0  0  0  0  0  0
   18.8757   18.2523   20.6333 H   0  0  0  0  0  0  0  0  0  0  0  0
   18.9312   16.9122   21.7865 H   0  0  0  0  0  0  0  0  0  0  0  0
   20.6407   18.2379   21.8968 C   0  0  0  0  0  0  0  0  0  0  0  0
   20.9039   17.9215   22.9148 H   0  0  0  0  0  0  0  0  0  0  0  0
   21.2202   17.5978   21.2184 H   0  0  0  0  0  0  0  0  0  0  0  0
   21.0651   19.7135   21.6913 C   0  0  0  0  0  0  0  0  0  0  0  0
   22.1411   19.8039   21.8962 H   0  0  0  0  0  0  0  0  0  0  0  0
   20.5617   20.3570   22.4255 H   0  0  0  0  0  0  0  0  0  0  0  0
   20.7807   20.2320   20.2630 C   0  0  0  0  0  0  0  0  0  0  0  0
   21.2750   19.6047   19.5098 H   0  0  0  0  0  0  0  0  0  0  0  0
   21.1559   21.2566   20.1435 H   0  0  0  0  0  0  0  0  0  0  0  0
   19.7055   20.2459   20.0449 H   0  0  0  0  0  0  0  0  0  0  0  0
  1  2  1  0  0  0  0
  1  3  1  0  0  0  0
  1  4  1  0  0  0  0
  1  5  1  0  0  0  0
  5  6  1  0  0  0  0
  5  7  1  0  0  0  0
  5  8  1  0  0  0  0
  8  9  1  0  0  0  0
  8 10  1  0  0  0  0
  8 11  1  0  0  0  0
 11 12  1  0  0  0  0
 11 13  1  0  0  0  0
 11 14  1  0  0  0  0
 14 15  1  0  0  0  0
 14 16  1  0  0  0  0
 14 17  1  0  0  0  0
M  END
> <VConfSearch Rank>
605

> <Conf_Id>
1

> <Delta U+W>
0.685

> <U+W>
-15.179

> <U>
45.697

> <W>
-60.876

> <W(PB)>
-62.586

> <W(SA)>
1.710

> <Valence>
1.263

> <Coulomb>
44.179

> <VdW>
0.255

> <VdW6>
-3.552

> <VdW12>
3.807

> <Bond>
0.125

> <Angle>
0.616

> <Pdih>
0.521

> <Idih>
0.000

> <Tether>
0.000

$$$$
VeraChem MOL file


 17 16  0  0  0  0  0  0  0  0999 V2000     
   19.5440   20.2864   23.0895 N   0  3  0  0  0  0  0  0  0  0  0  0
   20.2708   20.2468   23.8103 H   0  0  0  0  0  0  0  0  0  0  0  0
   18.9409   19.4697   23.2225 H   0  0  0  0  0  0  0  0  0  0  0  0
   18.9736   21.1149   23.2872 H   0  0  0  0  0  0  0  0  0  0  0  0
   20.1337   20.3279   21.6930 C   0  0  0  0  0  0  0  0  0  0  0  0
   20.7316   21.2397   21.6109 H   0  0  0  0  0  0  0  0  0  0  0  0
   19.3096   20.3990   20.9784 H   0  0  0  0  0  0  0  0  0  0  0  0
   21.0139   19.1076   21.3522 C   0  0  0  0  0  0  0  0  0  0  0  0
   21.4466   19.2546   20.3537 H   0  0  0  0  0  0  0  0  0  0  0  0
   21.8610   19.0682   22.0497 H   0  0  0  0  0  0  0  0  0  0  0  0
   20.2574   17.7562   21.3854 C   0  0  0  0  0  0  0  0  0  0  0  0
   19.8963   17.5506   22.4023 H   0  0  0  0  0  0  0  0  0  0  0  0
   20.9640   16.9493   21.1457 H   0  0  0  0  0  0  0  0  0  0  0  0
   19.0746   17.6998   20.3916 C   0  0  0  0  0  0  0  0  0  0  0  0
   18.6101   16.7052   20.4020 H   0  0  0  0  0  0  0  0  0  0  0  0
   19.4108   17.9014   19.3663 H   0  0  0  0  0  0  0  0  0  0  0  0
   18.2971   18.4307   20.6471 H   0  0  0  0  0  0  0  0  0  0  0  0
  1  2  1  0  0  0  0
  1  3  1  0  0  0  0
  1  4  1  0  0  0  0
  1  5  1  0  0  0  0
  5  6  1  0  0  0  0
  5  7  1  0  0  0  0
  5  8  1  0  0  0  0
  8  9  1  0  0  0  0
  8 10  1  0  0  0  0
  8 11  1  0  0  0  0
 11 12  1  0  0  0  0
 11 13  1  0  0  0  0
 11 14  1  0  0  0  0
 14 15  1  0  0  0  0
 14 16  1  0  0  0  0
 14 17  1  0  0  0  0
M  END
> <VConfSearch Rank>
606

> <Conf_Id>
43

> <Delta U+W>
0.642

> <U+W>
-15.222

> <U>
45.697

> <W>
-60.919

> <W(PB)>
-62.631

> <W(SA)>
1.712

> <Valence>
1.262

> <Coulomb>
44.179

> <VdW>
0.255

> <VdW6>
-3.552

> <VdW12>
3.807

> <Bond>
0.125

> <Angle>
0.616

> <Pdih>
0.521

> <Idih>
0.000

> <Tether>
0.000

$$$$
VeraChem MOL file


 17 16  0  0  0  0  0  0  0  0999 V2000     
   18.8895   18.9878   23.9358 N   0  3  0  0  0  0  0  0  0  0  0  0
   18.1788   19.7090   23.7793 H   0  0  0  0  0  0  0  0  0  0  0  0
   19.6591   19.4301   24.4474 H   0  0  0  0  0  0  0  0  0  0  0  0
   18.4742   18.2946   24.5665 H   0  0  0  0  0  0  0  0  0  0  0  0
   19.3571   18.3601   22.6378 C   0  0  0  0  0  0  0  0  0  0  0  0
   18.4949   17.8833   22.1636 H   0  0  0  0  0  0  0  0  0  0  0  0
   20.0867   17.5833   22.8821 H   0  0  0  0  0  0  0  0  0  0  0  0
   19.9869   19.3744   21.6657 C   0  0  0  0  0  0  0  0  0  0  0  0
   19.2565   20.1612   21.4349 H   0  0  0  0  0  0  0  0  0  0  0  0
   20.8429   19.8622   22.1508 H   0  0  0  0  0  0  0  0  0  0  0  0
   20.4489   18.6946   20.3580 C   0  0  0  0  0  0  0  0  0  0  0  0
   19.5932   18.2033   19.8737 H   0  0  0  0  0  0  0  0  0  0  0  0
   21.1777   17.9047   20.5888 H   0  0  0  0  0  0  0  0  0  0  0  0
   21.0818   19.7060   19.3779 C   0  0  0  0  0  0  0  0  0  0  0  0
   21.4031   19.2038   18.4562 H   0  0  0  0  0  0  0  0  0  0  0  0
   21.9620   20.1891   19.8219 H   0  0  0  0  0  0  0  0  0  0  0  0
   20.3650   20.4901   19.1013 H   0  0  0  0  0  0  0  0  0  0  0  0
  1  2  1  0  0  0  0
  1  3  1  0  0  0  0
  1  4  1  0  0  0  0
  1  5  1  0  0  0  0
  5  6  1  0  0  0  0
  5  7  1  0  0  0  0
  5  8  1  0  0  0  0
  8  9  1  0  0  0  0
  8 10  1  0  0  0  0
  8 11  1  0  0  0  0
 11 12  1  0  0  0  0
 11 13  1  0  0  0  0
 11 14  1  0  0  0  0
 14 15  1  0  0  0  0
 14 16  1  0  0  0  0
 14 17  1  0  0  0  0
M  END
> <VConfSearch Rank>
607

> <Conf_Id>
7

> <Delta U+W>
0.000

> <U+W>
-15.865

> <U>
44.664

> <W>
-60.529

> <W(PB)>
-62.309

> <W(SA)>
1.780

> <Valence>
0.872

> <Coulomb>
43.648

> <VdW>
0.144

> <VdW6>
-2.370

> <VdW12>
2.515

> <Bond>
0.080

> <Angle>
0.376

> <Pdih>
0.416

> <Idih>
0.000

> <Tether>
0.000

$$$$
VeraChem MOL file


 17 16  0  0  0  0  0  0  0  0999 V2000     
   22.0090   19.2044   20.4006 N   0  3  0  0  0  0  0  0  0  0  0  0
   21.9411   18.5940   19.5806 H   0  0  0  0  0  0  0  0  0  0  0  0
   22.5983   18.7224   21.0862 H   0  0  0  0  0  0  0  0  0  0  0  0
   22.5219   20.0413   20.1052 H   0  0  0  0  0  0  0  0  0  0  0  0
   20.6458   19.5490   20.9664 C   0  0  0  0  0  0  0  0  0  0  0  0
   20.0855   20.0847   20.1954 H   0  0  0  0  0  0  0  0  0  0  0  0
   20.7945   20.2237   21.8135 H   0  0  0  0  0  0  0  0  0  0  0  0
   19.8472   18.3122   21.4211 C   0  0  0  0  0  0  0  0  0  0  0  0
   19.7381   17.6228   20.5733 H   0  0  0  0  0  0  0  0  0  0  0  0
   20.4108   17.7732   22.1942 H   0  0  0  0  0  0  0  0  0  0  0  0
   18.4433   18.6737   21.9598 C   0  0  0  0  0  0  0  0  0  0  0  0
   17.8996   17.7465   22.1897 H   0  0  0  0  0  0  0  0  0  0  0  0
   17.8659   19.1839   21.1759 H   0  0  0  0  0  0  0  0  0  0  0  0
   18.4915   19.5573   23.2273 C   0  0  0  0  0  0  0  0  0  0  0  0
   19.0687   19.0724   24.0253 H   0  0  0  0  0  0  0  0  0  0  0  0
   17.4784   19.7379   23.6095 H   0  0  0  0  0  0  0  0  0  0  0  0
   18.9459   20.5345   23.0208 H   0  0  0  0  0  0  0  0  0  0  0  0
  1  2  1  0  0  0  0
  1  3  1  0  0  0  0
  1  4  1  0  0  0  0
  1  5  1  0  0  0  0
  5  6  1  0  0  0  0
  5  7  1  0  0  0  0
  5  8  1  0  0  0  0
  8  9  1  0  0  0  0
  8 10  1  0  0  0  0
  8 11  1  0  0  0  0
 11 12  1  0  0  0  0
 11 13  1  0  0  0  0
 11 14  1  0  0  0  0
 14 15  1  0  0  0  0
 14 16  1  0  0  0  0
 14 17  1  0  0  0  0
M  END
> <VConfSearch Rank>
608

> <Conf_Id>
36

> <Delta U+W>
0.275

> <U+W>
-15.590

> <U>
45.174

> <W>
-60.765

> <W(PB)>
-62.518

> <W(SA)>
1.754

> <Valence>
1.161

> <Coulomb>
43.789

> <VdW>
0.224

> <VdW6>
-2.897

> <VdW12>
3.121

> <Bond>
0.100

> <Angle>
0.500

> <Pdih>
0.561

> <Idih>
0.000

> <Tether>
0.000

$$$$
VeraChem MOL file


 17 16  0  0  0  0  0  0  0  0999 V2000     
   18.4280   18.4449   20.6637 N   0  3  0  0  0  0  0  0  0  0  0  0
   18.9991   19.0873   20.1086 H   0  0  0  0  0  0  0  0  0  0  0  0
   17.6478   18.9883   21.0451 H   0  0  0  0  0  0  0  0  0  0  0  0
   18.0249   17.7610   20.0151 H   0  0  0  0  0  0  0  0  0  0  0  0
   19.2370   17.7759   21.7582 C   0  0  0  0  0  0  0  0  0  0  0  0
   20.0094   17.1583   21.2921 H   0  0  0  0  0  0  0  0  0  0  0  0
   18.5561   17.1136   22.2997 H   0  0  0  0  0  0  0  0  0  0  0  0
   19.8852   18.7568   22.7578 C   0  0  0  0  0  0  0  0  0  0  0  0
   19.1649   19.5359   23.0402 H   0  0  0  0  0  0  0  0  0  0  0  0
   20.1037   18.2005   23.6790 H   0  0  0  0  0  0  0  0  0  0  0  0
   21.2070   19.3981   22.2636 C   0  0  0  0  0  0  0  0  0  0  0  0
   21.9409   18.6099   22.0444 H   0  0  0  0  0  0  0  0  0  0  0  0
   21.6332   19.9898   23.0860 H   0  0  0  0  0  0  0  0  0  0  0  0
   21.0503   20.3138   21.0283 C   0  0  0  0  0  0  0  0  0  0  0  0
   20.8271   19.7353   20.1244 H   0  0  0  0  0  0  0  0  0  0  0  0
   21.9834   20.8602   20.8389 H   0  0  0  0  0  0  0  0  0  0  0  0
   20.2552   21.0554   21.1802 H   0  0  0  0  0  0  0  0  0  0  0  0
  1  2  1  0  0  0  0
  1  3  1  0  0  0  0
  1  4  1  0  0  0  0
  1  5  1  0  0  0  0
  5  6  1  0  0  0  0
  5  7  1  0  0  0  0
  5  8  1  0  0  0  0
  8  9  1  0  0  0  0
  8 10  1  0  0  0  0
  8 11  1  0  0  0  0
 11 12  1  0  0  0  0
 11 13  1  0  0  0  0
 11 14  1  0  0  0  0
 14 15  1  0  0  0  0
 14 16  1  0  0  0  0
 14 17  1  0  0  0  0
M  END
> <VConfSearch Rank>
609

> <Conf_Id>
19

> <Delta U+W>
2.662

> <U+W>
-13.203

> <U>
47.423

> <W>
-60.626

> <W(PB)>
-62.328

> <W(SA)>
1.702

> <Valence>
2.414

> <Coulomb>
44.831

> <VdW>
0.178

> <VdW6>
-3.743

> <VdW12>
3.921

> <Bond>
0.138

> <Angle>
0.941

> <Pdih>
1.335

> <Idih>
0.000

> <Tether>
0.000

$$$$
VeraChem MOL file


 17 16  0  0  0  0  0  0  0  0999 V2000     
   19.5385   20.8865   21.5121 N   0  3  0  0  0  0  0  0  0  0  0  0
   19.4478   21.7648   22.0330 H   0  0  0  0  0  0  0  0  0  0  0  0
   19.1791   21.0620   20.5690 H   0  0  0  0  0  0  0  0  0  0  0  0
   20.5388   20.6912   21.4215 H   0  0  0  0  0  0  0  0  0  0  0  0
   18.8029   19.7483   22.1929 C   0  0  0  0  0  0  0  0  0  0  0  0
   17.7493   20.0356   22.2470 H   0  0  0  0  0  0  0  0  0  0  0  0
   19.1796   19.6521   23.2147 H   0  0  0  0  0  0  0  0  0  0  0  0
   18.9176   18.3929   21.4640 C   0  0  0  0  0  0  0  0  0  0  0  0
   18.0808   17.7632   21.7943 H   0  0  0  0  0  0  0  0  0  0  0  0
   18.7799   18.5345   20.3838 H   0  0  0  0  0  0  0  0  0  0  0  0
   20.2331   17.6222   21.7434 C   0  0  0  0  0  0  0  0  0  0  0  0
   20.1641   16.6351   21.2650 H   0  0  0  0  0  0  0  0  0  0  0  0
   20.3277   17.4313   22.8216 H   0  0  0  0  0  0  0  0  0  0  0  0
   21.5088   18.3290   21.2316 C   0  0  0  0  0  0  0  0  0  0  0  0
   21.4082   18.6191   20.1776 H   0  0  0  0  0  0  0  0  0  0  0  0
   22.3737   17.6575   21.3110 H   0  0  0  0  0  0  0  0  0  0  0  0
   21.7394   19.2218   21.8243 H   0  0  0  0  0  0  0  0  0  0  0  0
  1  2  1  0  0  0  0
  1  3  1  0  0  0  0
  1  4  1  0  0  0  0
  1  5  1  0  0  0  0
  5  6  1  0  0  0  0
  5  7  1  0  0  0  0
  5  8  1  0  0  0  0
  8  9  1  0  0  0  0
  8 10  1  0  0  0  0
  8 11  1  0  0  0  0
 11 12  1  0  0  0  0
 11 13  1  0  0  0  0
 11 14  1  0  0  0  0
 14 15  1  0  0  0  0
 14 16  1  0  0  0  0
 14 17  1  0  0  0  0
M  END
> <VConfSearch Rank>
610

> <Conf_Id>
44

> <Delta U+W>
2.712

> <U+W>
-13.153

> <U>
47.423

> <W>
-60.576

> <W(PB)>
-62.262

> <W(SA)>
1.687

> <Valence>
2.414

> <Coulomb>
44.831

> <VdW>
0.178

> <VdW6>
-3.743

> <VdW12>
3.922

> <Bond>
0.138

> <Angle>
0.941

> <Pdih>
1.335

> <Idih>
0.000

> <Tether>
0.000

$$$$
VeraChem MOL file


 17 16  0  0  0  0  0  0  0  0999 V2000     
   19.4566   20.5923   22.7475 N   0  3  0  0  0  0  0  0  0  0  0  0
   20.4600   20.4224   22.8605 H   0  0  0  0  0  0  0  0  0  0  0  0
   18.9998   20.2959   23.6152 H   0  0  0  0  0  0  0  0  0  0  0  0
   19.3310   21.6071   22.6767 H   0  0  0  0  0  0  0  0  0  0  0  0
   18.8970   19.8689   21.5378 C   0  0  0  0  0  0  0  0  0  0  0  0
   19.4045   20.2517   20.6486 H   0  0  0  0  0  0  0  0  0  0  0  0
   17.8369   20.1244   21.4580 H   0  0  0  0  0  0  0  0  0  0  0  0
   19.0492   18.3352   21.6039 C   0  0  0  0  0  0  0  0  0  0  0  0
   18.5023   17.9560   22.4773 H   0  0  0  0  0  0  0  0  0  0  0  0
   18.5617   17.8956   20.7236 H   0  0  0  0  0  0  0  0  0  0  0  0
   20.5190   17.8500   21.6673 C   0  0  0  0  0  0  0  0  0  0  0  0
   20.5270   16.7526   21.7263 H   0  0  0  0  0  0  0  0  0  0  0  0
   20.9947   18.2066   22.5910 H   0  0  0  0  0  0  0  0  0  0  0  0
   21.3562   18.2934   20.4458 C   0  0  0  0  0  0  0  0  0  0  0  0
   20.9008   17.9475   19.5087 H   0  0  0  0  0  0  0  0  0  0  0  0
   22.3691   17.8738   20.5004 H   0  0  0  0  0  0  0  0  0  0  0  0
   21.4527   19.3853   20.3970 H   0  0  0  0  0  0  0  0  0  0  0  0
  1  2  1  0  0  0  0
  1  3  1  0  0  0  0
  1  4  1  0  0  0  0
  1  5  1  0  0  0  0
  5  6  1  0  0  0  0
  5  7  1  0  0  0  0
  5  8  1  0  0  0  0
  8  9  1  0  0  0  0
  8 10  1  0  0  0  0
  8 11  1  0  0  0  0
 11 12  1  0  0  0  0
 11 13  1  0  0  0  0
 11 14  1  0  0  0  0
 14 15  1  0  0  0  0
 14 16  1  0  0  0  0
 14 17  1  0  0  0  0
M  END
> <VConfSearch Rank>
611

> <Conf_Id>
1

> <Delta U+W>
0.685

> <U+W>
-15.179

> <U>
45.697

> <W>
-60.876

> <W(PB)>
-62.586

> <W(SA)>
1.710

> <Valence>
1.263

> <Coulomb>
44.179

> <VdW>
0.255

> <VdW6>
-3.552

> <VdW12>
3.807

> <Bond>
0.125

> <Angle>
0.616

> <Pdih>
0.521

> <Idih>
0.000

> <Tether>
0.000

$$$$
VeraChem MOL file


 17 16  0  0  0  0  0  0  0  0999 V2000     
   21.1020   17.9177   20.4483 N   0  3  0  0  0  0  0  0  0  0  0  0
   21.3686   17.0455   20.9147 H   0  0  0  0  0  0  0  0  0  0  0  0
   21.6838   18.6621   20.8431 H   0  0  0  0  0  0  0  0  0  0  0  0
   21.3672   17.8214   19.4629 H   0  0  0  0  0  0  0  0  0  0  0  0
   19.6236   18.2157   20.6079 C   0  0  0  0  0  0  0  0  0  0  0  0
   19.0670   17.4029   20.1335 H   0  0  0  0  0  0  0  0  0  0  0  0
   19.4027   19.1383   20.0649 H   0  0  0  0  0  0  0  0  0  0  0  0
   19.1715   18.3553   22.0763 C   0  0  0  0  0  0  0  0  0  0  0  0
   18.0838   18.5046   22.0961 H   0  0  0  0  0  0  0  0  0  0  0  0
   19.3599   17.4104   22.6028 H   0  0  0  0  0  0  0  0  0  0  0  0
   19.8587   19.5150   22.8395 C   0  0  0  0  0  0  0  0  0  0  0  0
   20.9399   19.3334   22.9082 H   0  0  0  0  0  0  0  0  0  0  0  0
   19.4871   19.5270   23.8738 H   0  0  0  0  0  0  0  0  0  0  0  0
   19.6028   20.8979   22.1978 C   0  0  0  0  0  0  0  0  0  0  0  0
   20.0518   21.6937   22.8061 H   0  0  0  0  0  0  0  0  0  0  0  0
   18.5273   21.1034   22.1190 H   0  0  0  0  0  0  0  0  0  0  0  0
   20.0385   20.9638   21.1929 H   0  0  0  0  0  0  0  0  0  0  0  0
  1  2  1  0  0  0  0
  1  3  1  0  0  0  0
  1  4  1  0  0  0  0
  1  5  1  0  0  0  0
  5  6  1  0  0  0  0
  5  7  1  0  0  0  0
  5  8  1  0  0  0  0
  8  9  1  0  0  0  0
  8 10  1  0  0  0  0
  8 11  1  0  0  0  0
 11 12  1  0  0  0  0
 11 13  1  0  0  0  0
 11 14  1  0  0  0  0
 14 15  1  0  0  0  0
 14 16  1  0  0  0  0
 14 17  1  0  0  0  0
M  END
> <VConfSearch Rank>
612

> <Conf_Id>
43

> <Delta U+W>
0.642

> <U+W>
-15.222

> <U>
45.697

> <W>
-60.919

> <W(PB)>
-62.631

> <W(SA)>
1.712

> <Valence>
1.262

> <Coulomb>
44.179

> <VdW>
0.255

> <VdW6>
-3.552

> <VdW12>
3.807

> <Bond>
0.125

> <Angle>
0.616

> <Pdih>
0.521

> <Idih>
0.000

> <Tether>
0.000

$$$$
VeraChem MOL file


 17 16  0  0  0  0  0  0  0  0999 V2000     
   18.0089   19.4288   19.9715 N   0  3  0  0  0  0  0  0  0  0  0  0
   18.5439   19.3349   19.1028 H   0  0  0  0  0  0  0  0  0  0  0  0
   17.8823   20.4314   20.1400 H   0  0  0  0  0  0  0  0  0  0  0  0
   17.0782   19.0391   19.7898 H   0  0  0  0  0  0  0  0  0  0  0  0
   18.6911   18.7389   21.1360 C   0  0  0  0  0  0  0  0  0  0  0  0
   18.7644   17.6735   20.9013 H   0  0  0  0  0  0  0  0  0  0  0  0
   18.0529   18.8525   22.0166 H   0  0  0  0  0  0  0  0  0  0  0  0
   20.0928   19.3000   21.4370 C   0  0  0  0  0  0  0  0  0  0  0  0
   20.7261   19.1983   20.5456 H   0  0  0  0  0  0  0  0  0  0  0  0
   20.0171   20.3732   21.6572 H   0  0  0  0  0  0  0  0  0  0  0  0
   20.7517   18.5705   22.6283 C   0  0  0  0  0  0  0  0  0  0  0  0
   20.8247   17.4957   22.4098 H   0  0  0  0  0  0  0  0  0  0  0  0
   20.1166   18.6692   23.5200 H   0  0  0  0  0  0  0  0  0  0  0  0
   22.1583   19.1281   22.9360 C   0  0  0  0  0  0  0  0  0  0  0  0
   22.6089   18.5971   23.7846 H   0  0  0  0  0  0  0  0  0  0  0  0
   22.1134   20.1946   23.1922 H   0  0  0  0  0  0  0  0  0  0  0  0
   22.8271   19.0119   22.0732 H   0  0  0  0  0  0  0  0  0  0  0  0
  1  2  1  0  0  0  0
  1  3  1  0  0  0  0
  1  4  1  0  0  0  0
  1  5  1  0  0  0  0
  5  6  1  0  0  0  0
  5  7  1  0  0  0  0
  5  8  1  0  0  0  0
  8  9  1  0  0  0  0
  8 10  1  0  0  0  0
  8 11  1  0  0  0  0
 11 12  1  0  0  0  0
 11 13  1  0  0  0  0
 11 14  1  0  0  0  0
 14 15  1  0  0  0  0
 14 16  1  0  0  0  0
 14 17  1  0  0  0  0
M  END
> <VConfSearch Rank>
613

> <Conf_Id>
7

> <Delta U+W>
0.000

> <U+W>
-15.865

> <U>
44.664

> <W>
-60.529

> <W(PB)>
-62.309

> <W(SA)>
1.780

> <Valence>
0.872

> <Coulomb>
43.648

> <VdW>
0.144

> <VdW6>
-2.370

> <VdW12>
2.515

> <Bond>
0.080

> <Angle>
0.376

> <Pdih>
0.416

> <Idih>
0.000

> <Tether>
0.000

$$$$
VeraChem MOL file


 17 16  0  0  0  0  0  0  0  0999 V2000     
   20.1981   21.2420   22.6927 N   0  3  0  0  0  0  0  0  0  0  0  0
   19.2757   21.6756   22.7962 H   0  0  0  0  0  0  0  0  0  0  0  0
   20.6725   21.7243   21.9233 H   0  0  0  0  0  0  0  0  0  0  0  0
   20.7238   21.4568   23.5462 H   0  0  0  0  0  0  0  0  0  0  0  0
   20.0998   19.7488   22.4520 C   0  0  0  0  0  0  0  0  0  0  0  0
   19.6131   19.2977   23.3209 H   0  0  0  0  0  0  0  0  0  0  0  0
   21.1161   19.3520   22.3838 H   0  0  0  0  0  0  0  0  0  0  0  0
   19.3152   19.3904   21.1753 C   0  0  0  0  0  0  0  0  0  0  0  0
   18.3096   19.8274   21.2365 H   0  0  0  0  0  0  0  0  0  0  0  0
   19.8031   19.8448   20.3028 H   0  0  0  0  0  0  0  0  0  0  0  0
   19.1883   17.8638   20.9620 C   0  0  0  0  0  0  0  0  0  0  0  0
   18.5533   17.6776   20.0845 H   0  0  0  0  0  0  0  0  0  0  0  0
   18.6703   17.4118   21.8196 H   0  0  0  0  0  0  0  0  0  0  0  0
   20.5527   17.1674   20.7537 C   0  0  0  0  0  0  0  0  0  0  0  0
   21.0943   17.6051   19.9050 H   0  0  0  0  0  0  0  0  0  0  0  0
   20.4116   16.0988   20.5455 H   0  0  0  0  0  0  0  0  0  0  0  0
   21.1878   17.2495   21.6448 H   0  0  0  0  0  0  0  0  0  0  0  0
  1  2  1  0  0  0  0
  1  3  1  0  0  0  0
  1  4  1  0  0  0  0
  1  5  1  0  0  0  0
  5  6  1  0  0  0  0
  5  7  1  0  0  0  0
  5  8  1  0  0  0  0
  8  9  1  0  0  0  0
  8 10  1  0  0  0  0
  8 11  1  0  0  0  0
 11 12  1  0  0  0  0
 11 13  1  0  0  0  0
 11 14  1  0  0  0  0
 14 15  1  0  0  0  0
 14 16  1  0  0  0  0
 14 17  1  0  0  0  0
M  END
> <VConfSearch Rank>
614

> <Conf_Id>
36

> <Delta U+W>
0.275

> <U+W>
-15.590

> <U>
45.174

> <W>
-60.765

> <W(PB)>
-62.518

> <W(SA)>
1.754

> <Valence>
1.161

> <Coulomb>
43.789

> <VdW>
0.224

> <VdW6>
-2.897

> <VdW12>
3.121

> <Bond>
0.100

> <Angle>
0.500

> <Pdih>
0.561

> <Idih>
0.000

> <Tether>
0.000

$$$$
VeraChem MOL file


 17 16  0  0  0  0  0  0  0  0999 V2000     
   21.4944   18.8827   22.6129 N   0  3  0  0  0  0  0  0  0  0  0  0
   21.5484   18.2837   21.7852 H   0  0  0  0  0  0  0  0  0  0  0  0
   21.2741   18.2771   23.4093 H   0  0  0  0  0  0  0  0  0  0  0  0
   22.4341   19.2584   22.7762 H   0  0  0  0  0  0  0  0  0  0  0  0
   20.4675   19.9857   22.4427 C   0  0  0  0  0  0  0  0  0  0  0  0
   20.7888   20.6374   21.6258 H   0  0  0  0  0  0  0  0  0  0  0  0
   20.4728   20.5726   23.3652 H   0  0  0  0  0  0  0  0  0  0  0  0
   19.0335   19.4817   22.1758 C   0  0  0  0  0  0  0  0  0  0  0  0
   18.7982   18.6455   22.8473 H   0  0  0  0  0  0  0  0  0  0  0  0
   18.3394   20.2888   22.4451 H   0  0  0  0  0  0  0  0  0  0  0  0
   18.7552   19.0854   20.7033 C   0  0  0  0  0  0  0  0  0  0  0  0
   18.9337   19.9495   20.0479 H   0  0  0  0  0  0  0  0  0  0  0  0
   17.6871   18.8456   20.6055 H   0  0  0  0  0  0  0  0  0  0  0  0
   19.5787   17.8783   20.1998 C   0  0  0  0  0  0  0  0  0  0  0  0
   20.6374   18.1356   20.0793 H   0  0  0  0  0  0  0  0  0  0  0  0
   19.2129   17.5512   19.2177 H   0  0  0  0  0  0  0  0  0  0  0  0
   19.4968   17.0256   20.8864 H   0  0  0  0  0  0  0  0  0  0  0  0
  1  2  1  0  0  0  0
  1  3  1  0  0  0  0
  1  4  1  0  0  0  0
  1  5  1  0  0  0  0
  5  6  1  0  0  0  0
  5  7  1  0  0  0  0
  5  8  1  0  0  0  0
  8  9  1  0  0  0  0
  8 10  1  0  0  0  0
  8 11  1  0  0  0  0
 11 12  1  0  0  0  0
 11 13  1  0  0  0  0
 11 14  1  0  0  0  0
 14 15  1  0  0  0  0
 14 16  1  0  0  0  0
 14 17  1  0  0  0  0
M  END
> <VConfSearch Rank>
615

> <Conf_Id>
19

> <Delta U+W>
2.662

> <U+W>
-13.203

> <U>
47.423

> <W>
-60.626

> <W(PB)>
-62.328

> <W(SA)>
1.702

> <Valence>
2.414

> <Coulomb>
44.831

> <VdW>
0.178

> <VdW6>
-3.743

> <VdW12>
3.921

> <Bond>
0.138

> <Angle>
0.941

> <Pdih>
1.335

> <Idih>
0.000

> <Tether>
0.000

$$$$
VeraChem MOL file


 17 16  0  0  0  0  0  0  0  0999 V2000     
   21.0761   18.7795   20.2053 N   0  3  0  0  0  0  0  0  0  0  0  0
   21.5333   19.1773   19.3786 H   0  0  0  0  0  0  0  0  0  0  0  0
   21.2661   17.7729   20.1944 H   0  0  0  0  0  0  0  0  0  0  0  0
   21.5481   19.1660   21.0267 H   0  0  0  0  0  0  0  0  0  0  0  0
   19.5880   19.0719   20.2226 C   0  0  0  0  0  0  0  0  0  0  0  0
   19.1641   18.6260   19.3187 H   0  0  0  0  0  0  0  0  0  0  0  0
   19.4452   20.1542   20.1643 H   0  0  0  0  0  0  0  0  0  0  0  0
   18.8459   18.5127   21.4547 C   0  0  0  0  0  0  0  0  0  0  0  0
   17.7811   18.4348   21.1974 H   0  0  0  0  0  0  0  0  0  0  0  0
   19.1813   17.4879   21.6620 H   0  0  0  0  0  0  0  0  0  0  0  0
   18.9656   19.3873   22.7288 C   0  0  0  0  0  0  0  0  0  0  0  0
   18.3196   18.9562   23.5064 H   0  0  0  0  0  0  0  0  0  0  0  0
   18.5681   20.3918   22.5262 H   0  0  0  0  0  0  0  0  0  0  0  0
   20.4006   19.5050   23.2906 C   0  0  0  0  0  0  0  0  0  0  0  0
   20.8622   18.5168   23.4152 H   0  0  0  0  0  0  0  0  0  0  0  0
   20.3853   19.9917   24.2745 H   0  0  0  0  0  0  0  0  0  0  0  0
   21.0386   20.1146   22.6402 H   0  0  0  0  0  0  0  0  0  0  0  0
  1  2  1  0  0  0  0
  1  3  1  0  0  0  0
  1  4  1  0  0  0  0
  1  5  1  0  0  0  0
  5  6  1  0  0  0  0
  5  7  1  0  0  0  0
  5  8  1  0  0  0  0
  8  9  1  0  0  0  0
  8 10  1  0  0  0  0
  8 11  1  0  0  0  0
 11 12  1  0  0  0  0
 11 13  1  0  0  0  0
 11 14  1  0  0  0  0
 14 15  1  0  0  0  0
 14 16  1  0  0  0  0
 14 17  1  0  0  0  0
M  END
> <VConfSearch Rank>
616

> <Conf_Id>
44

> <Delta U+W>
2.712

> <U+W>
-13.153

> <U>
47.423

> <W>
-60.576

> <W(PB)>
-62.262

> <W(SA)>
1.687

> <Valence>
2.414

> <Coulomb>
44.831

> <VdW>
0.178

> <VdW6>
-3.743

> <VdW12>
3.922

> <Bond>
0.138

> <Angle>
0.941

> <Pdih>
1.335

> <Idih>
0.000

> <Tether>
0.000

$$$$
VeraChem MOL file


 17 16  0  0  0  0  0  0  0  0999 V2000     
   20.9892   19.6856   20.0559 N   0  3  0  0  0  0  0  0  0  0  0  0
   20.2735   19.0555   19.6828 H   0  0  0  0  0  0  0  0  0  0  0  0
   21.8871   19.1969   19.9898 H   0  0  0  0  0  0  0  0  0  0  0  0
   21.0404   20.4893   19.4218 H   0  0  0  0  0  0  0  0  0  0  0  0
   20.6787   20.1087   21.4788 C   0  0  0  0  0  0  0  0  0  0  0  0
   19.7275   20.6471   21.4729 H   0  0  0  0  0  0  0  0  0  0  0  0
   21.4593   20.8052   21.7968 H   0  0  0  0  0  0  0  0  0  0  0  0
   20.6054   18.9338   22.4759 C   0  0  0  0  0  0  0  0  0  0  0  0
   21.5777   18.4244   22.5047 H   0  0  0  0  0  0  0  0  0  0  0  0
   20.4422   19.3381   23.4837 H   0  0  0  0  0  0  0  0  0  0  0  0
   19.4945   17.9032   22.1546 C   0  0  0  0  0  0  0  0  0  0  0  0
   19.5283   17.1010   22.9051 H   0  0  0  0  0  0  0  0  0  0  0  0
   19.6941   17.4219   21.1875 H   0  0  0  0  0  0  0  0  0  0  0  0
   18.0782   18.5227   22.1452 C   0  0  0  0  0  0  0  0  0  0  0  0
   17.8542   19.0098   23.1032 H   0  0  0  0  0  0  0  0  0  0  0  0
   17.3196   17.7469   21.9789 H   0  0  0  0  0  0  0  0  0  0  0  0
   17.9688   19.2686   21.3480 H   0  0  0  0  0  0  0  0  0  0  0  0
  1  2  1  0  0  0  0
  1  3  1  0  0  0  0
  1  4  1  0  0  0  0
  1  5  1  0  0  0  0
  5  6  1  0  0  0  0
  5  7  1  0  0  0  0
  5  8  1  0  0  0  0
  8  9  1  0  0  0  0
  8 10  1  0  0  0  0
  8 11  1  0  0  0  0
 11 12  1  0  0  0  0
 11 13  1  0  0  0  0
 11 14  1  0  0  0  0
 14 15  1  0  0  0  0
 14 16  1  0  0  0  0
 14 17  1  0  0  0  0
M  END
> <VConfSearch Rank>
617

> <Conf_Id>
1

> <Delta U+W>
0.685

> <U+W>
-15.179

> <U>
45.697

> <W>
-60.876

> <W(PB)>
-62.586

> <W(SA)>
1.710

> <Valence>
1.263

> <Coulomb>
44.179

> <VdW>
0.255

> <VdW6>
-3.552

> <VdW12>
3.807

> <Bond>
0.125

> <Angle>
0.616

> <Pdih>
0.521

> <Idih>
0.000

> <Tether>
0.000

$$$$
VeraChem MOL file


 17 16  0  0  0  0  0  0  0  0999 V2000     
   19.1951   20.8686   21.7753 N   0  3  0  0  0  0  0  0  0  0  0  0
   18.1795   20.8840   21.6423 H   0  0  0  0  0  0  0  0  0  0  0  0
   19.6210   20.8015   20.8466 H   0  0  0  0  0  0  0  0  0  0  0  0
   19.4587   21.7812   22.1603 H   0  0  0  0  0  0  0  0  0  0  0  0
   19.6305   19.7293   22.6766 C   0  0  0  0  0  0  0  0  0  0  0  0
   19.1704   19.8852   23.6562 H   0  0  0  0  0  0  0  0  0  0  0  0
   20.7150   19.7890   22.7994 H   0  0  0  0  0  0  0  0  0  0  0  0
   19.2430   18.3331   22.1468 C   0  0  0  0  0  0  0  0  0  0  0  0
   19.5388   17.5809   22.8901 H   0  0  0  0  0  0  0  0  0  0  0  0
   18.1498   18.2691   22.0657 H   0  0  0  0  0  0  0  0  0  0  0  0
   19.8815   17.9781   20.7809 C   0  0  0  0  0  0  0  0  0  0  0  0
   19.5222   18.6681   20.0054 H   0  0  0  0  0  0  0  0  0  0  0  0
   19.5388   16.9783   20.4794 H   0  0  0  0  0  0  0  0  0  0  0  0
   21.4270   17.9905   20.8135 C   0  0  0  0  0  0  0  0  0  0  0  0
   21.8351   17.6705   19.8460 H   0  0  0  0  0  0  0  0  0  0  0  0
   21.8110   17.3065   21.5814 H   0  0  0  0  0  0  0  0  0  0  0  0
   21.8186   18.9941   21.0219 H   0  0  0  0  0  0  0  0  0  0  0  0
  1  2  1  0  0  0  0
  1  3  1  0  0  0  0
  1  4  1  0  0  0  0
  1  5  1  0  0  0  0
  5  6  1  0  0  0  0
  5  7  1  0  0  0  0
  5  8  1  0  0  0  0
  8  9  1  0  0  0  0
  8 10  1  0  0  0  0
  8 11  1  0  0  0  0
 11 12  1  0  0  0  0
 11 13  1  0  0  0  0
 11 14  1  0  0  0  0
 14 15  1  0  0  0  0
 14 16  1  0  0  0  0
 14 17  1  0  0  0  0
M  END
> <VConfSearch Rank>
618

> <Conf_Id>
43

> <Delta U+W>
0.642

> <U+W>
-15.222

> <U>
45.697

> <W>
-60.919

> <W(PB)>
-62.631

> <W(SA)>
1.712

> <Valence>
1.262

> <Coulomb>
44.179

> <VdW>
0.255

> <VdW6>
-3.552

> <VdW12>
3.807

> <Bond>
0.125

> <Angle>
0.616

> <Pdih>
0.521

> <Idih>
0.000

> <Tether>
0.000

$$$$
VeraChem MOL file


 17 16  0  0  0  0  0  0  0  0999 V2000     
   21.0618   21.0385   22.8089 N   0  3  0  0  0  0  0  0  0  0  0  0
   21.9828   20.6115   22.9471 H   0  0  0  0  0  0  0  0  0  0  0  0
   20.5548   20.9533   23.6952 H   0  0  0  0  0  0  0  0  0  0  0  0
   21.2196   22.0394   22.6530 H   0  0  0  0  0  0  0  0  0  0  0  0
   20.3069   20.4013   21.6594 C   0  0  0  0  0  0  0  0  0  0  0  0
   20.8883   20.5566   20.7465 H   0  0  0  0  0  0  0  0  0  0  0  0
   19.3528   20.9241   21.5509 H   0  0  0  0  0  0  0  0  0  0  0  0
   20.0523   18.8963   21.8609 C   0  0  0  0  0  0  0  0  0  0  0  0
   21.0118   18.3768   21.9849 H   0  0  0  0  0  0  0  0  0  0  0  0
   19.4815   18.7432   22.7865 H   0  0  0  0  0  0  0  0  0  0  0  0
   19.2820   18.2871   20.6688 C   0  0  0  0  0  0  0  0  0  0  0  0
   19.8513   18.4431   19.7415 H   0  0  0  0  0  0  0  0  0  0  0  0
   18.3228   18.8089   20.5422 H   0  0  0  0  0  0  0  0  0  0  0  0
   19.0229   16.7776   20.8639 C   0  0  0  0  0  0  0  0  0  0  0  0
   18.4752   16.3641   20.0071 H   0  0  0  0  0  0  0  0  0  0  0  0
   18.4254   16.5923   21.7660 H   0  0  0  0  0  0  0  0  0  0  0  0
   19.9660   16.2236   20.9591 H   0  0  0  0  0  0  0  0  0  0  0  0
  1  2  1  0  0  0  0
  1  3  1  0  0  0  0
  1  4  1  0  0  0  0
  1  5  1  0  0  0  0
  5  6  1  0  0  0  0
  5  7  1  0  0  0  0
  5  8  1  0  0  0  0
  8  9  1  0  0  0  0
  8 10  1  0  0  0  0
  8 11  1  0  0  0  0
 11 12  1  0  0  0  0
 11 13  1  0  0  0  0
 11 14  1  0  0  0  0
 14 15  1  0  0  0  0
 14 16  1  0  0  0  0
 14 17  1  0  0  0  0
M  END
> <VConfSearch Rank>
619

> <Conf_Id>
7

> <Delta U+W>
0.000

> <U+W>
-15.865

> <U>
44.664

> <W>
-60.529

> <W(PB)>
-62.309

> <W(SA)>
1.780

> <Valence>
0.872

> <Coulomb>
43.648

> <VdW>
0.144

> <VdW6>
-2.370

> <VdW12>
2.515

> <Bond>
0.080

> <Angle>
0.376

> <Pdih>
0.416

> <Idih>
0.000

> <Tether>
0.000

$$$$
VeraChem MOL file


 17 16  0  0  0  0  0  0  0  0999 V2000     
   19.6071   16.7343   22.0023 N   0  3  0  0  0  0  0  0  0  0  0  0
   19.9522   16.2196   21.1864 H   0  0  0  0  0  0  0  0  0  0  0  0
   18.5837   16.7228   21.9543 H   0  0  0  0  0  0  0  0  0  0  0  0
   19.8710   16.1895   22.8296 H   0  0  0  0  0  0  0  0  0  0  0  0
   20.1570   18.1456   22.0578 C   0  0  0  0  0  0  0  0  0  0  0  0
   21.2455   18.0813   22.1380 H   0  0  0  0  0  0  0  0  0  0  0  0
   19.7736   18.6200   22.9649 H   0  0  0  0  0  0  0  0  0  0  0  0
   19.7780   18.9931   20.8281 C   0  0  0  0  0  0  0  0  0  0  0  0
   20.1325   18.4879   19.9198 H   0  0  0  0  0  0  0  0  0  0  0  0
   18.6848   19.0563   20.7465 H   0  0  0  0  0  0  0  0  0  0  0  0
   20.3776   20.4179   20.8780 C   0  0  0  0  0  0  0  0  0  0  0  0
   20.1382   20.9390   19.9403 H   0  0  0  0  0  0  0  0  0  0  0  0
   21.4740   20.3569   20.9261 H   0  0  0  0  0  0  0  0  0  0  0  0
   19.8515   21.2535   22.0675 C   0  0  0  0  0  0  0  0  0  0  0  0
   18.7563   21.3251   22.0463 H   0  0  0  0  0  0  0  0  0  0  0  0
   20.2543   22.2740   22.0291 H   0  0  0  0  0  0  0  0  0  0  0  0
   20.1480   20.8171   23.0296 H   0  0  0  0  0  0  0  0  0  0  0  0
  1  2  1  0  0  0  0
  1  3  1  0  0  0  0
  1  4  1  0  0  0  0
  1  5  1  0  0  0  0
  5  6  1  0  0  0  0
  5  7  1  0  0  0  0
  5  8  1  0  0  0  0
  8  9  1  0  0  0  0
  8 10  1  0  0  0  0
  8 11  1  0  0  0  0
 11 12  1  0  0  0  0
 11 13  1  0  0  0  0
 11 14  1  0  0  0  0
 14 15  1  0  0  0  0
 14 16  1  0  0  0  0
 14 17  1  0  0  0  0
M  END
> <VConfSearch Rank>
620

> <Conf_Id>
36

> <Delta U+W>
0.275

> <U+W>
-15.590

> <U>
45.174

> <W>
-60.765

> <W(PB)>
-62.518

> <W(SA)>
1.754

> <Valence>
1.161

> <Coulomb>
43.789

> <VdW>
0.224

> <VdW6>
-2.897

> <VdW12>
3.121

> <Bond>
0.100

> <Angle>
0.500

> <Pdih>
0.561

> <Idih>
0.000

> <Tether>
0.000

$$$$
VeraChem MOL file


 17 16  0  0  0  0  0  0  0  0999 V2000     
   20.2823   18.6605   23.3987 N   0  3  0  0  0  0  0  0  0  0  0  0
   19.4966   18.0979   23.0625 H   0  0  0  0  0  0  0  0  0  0  0  0
   19.8869   19.4543   23.9114 H   0  0  0  0  0  0  0  0  0  0  0  0
   20.7925   18.0904   24.0810 H   0  0  0  0  0  0  0  0  0  0  0  0
   21.1768   19.1137   22.2609 C   0  0  0  0  0  0  0  0  0  0  0  0
   21.6224   18.2305   21.7955 H   0  0  0  0  0  0  0  0  0  0  0  0
   21.9827   19.7051   22.7038 H   0  0  0  0  0  0  0  0  0  0  0  0
   20.4600   19.9629   21.1900 C   0  0  0  0  0  0  0  0  0  0  0  0
   19.8091   20.7042   21.6723 H   0  0  0  0  0  0  0  0  0  0  0  0
   21.2248   20.5385   20.6520 H   0  0  0  0  0  0  0  0  0  0  0  0
   19.6606   19.1409   20.1469 C   0  0  0  0  0  0  0  0  0  0  0  0
   20.3360   18.4470   19.6270 H   0  0  0  0  0  0  0  0  0  0  0  0
   19.2832   19.8304   19.3787 H   0  0  0  0  0  0  0  0  0  0  0  0
   18.4657   18.3548   20.7325 C   0  0  0  0  0  0  0  0  0  0  0  0
   18.8013   17.5128   21.3491 H   0  0  0  0  0  0  0  0  0  0  0  0
   17.8518   17.9373   19.9238 H   0  0  0  0  0  0  0  0  0  0  0  0
   17.8205   19.0036   21.3391 H   0  0  0  0  0  0  0  0  0  0  0  0
  1  2  1  0  0  0  0
  1  3  1  0  0  0  0
  1  4  1  0  0  0  0
  1  5  1  0  0  0  0
  5  6  1  0  0  0  0
  5  7  1  0  0  0  0
  5  8  1  0  0  0  0
  8  9  1  0  0  0  0
  8 10  1  0  0  0  0
  8 11  1  0  0  0  0
 11 12  1  0  0  0  0
 11 13  1  0  0  0  0
 11 14  1  0  0  0  0
 14 15  1  0  0  0  0
 14 16  1  0  0  0  0
 14 17  1  0  0  0  0
M  END
> <VConfSearch Rank>
621

> <Conf_Id>
19

> <Delta U+W>
2.662

> <U+W>
-13.203

> <U>
47.423

> <W>
-60.626

> <W(PB)>
-62.328

> <W(SA)>
1.702

> <Valence>
2.414

> <Coulomb>
44.831

> <VdW>
0.178

> <VdW6>
-3.743

> <VdW12>
3.921

> <Bond>
0.138

> <Angle>
0.941

> <Pdih>
1.335

> <Idih>
0.000

> <Tether>
0.000

$$$$
VeraChem MOL file


 17 16  0  0  0  0  0  0  0  0999 V2000     
   18.5518   20.3605   21.5527 N   0  3  0  0  0  0  0  0  0  0  0  0
   18.0715   21.1102   22.0607 H   0  0  0  0  0  0  0  0  0  0  0  0
   17.9961   20.1664   20.7142 H   0  0  0  0  0  0  0  0  0  0  0  0
   19.4500   20.7362   21.2381 H   0  0  0  0  0  0  0  0  0  0  0  0
   18.7295   19.1221   22.4100 C   0  0  0  0  0  0  0  0  0  0  0  0
   17.7296   18.7872   22.6992 H   0  0  0  0  0  0  0  0  0  0  0  0
   19.2680   19.4025   23.3192 H   0  0  0  0  0  0  0  0  0  0  0  0
   19.4637   17.9623   21.7047 C   0  0  0  0  0  0  0  0  0  0  0  0
   19.2087   17.0340   22.2331 H   0  0  0  0  0  0  0  0  0  0  0  0
   19.0810   17.8418   20.6826 H   0  0  0  0  0  0  0  0  0  0  0  0
   21.0081   18.0936   21.6903 C   0  0  0  0  0  0  0  0  0  0  0  0
   21.4296   17.1729   21.2629 H   0  0  0  0  0  0  0  0  0  0  0  0
   21.3839   18.1495   22.7216 H   0  0  0  0  0  0  0  0  0  0  0  0
   21.5395   19.2993   20.8824 C   0  0  0  0  0  0  0  0  0  0  0  0
   21.1067   19.3253   19.8739 H   0  0  0  0  0  0  0  0  0  0  0  0
   22.6301   19.2346   20.7751 H   0  0  0  0  0  0  0  0  0  0  0  0
   21.3216   20.2484   21.3859 H   0  0  0  0  0  0  0  0  0  0  0  0
  1  2  1  0  0  0  0
  1  3  1  0  0  0  0
  1  4  1  0  0  0  0
  1  5  1  0  0  0  0
  5  6  1  0  0  0  0
  5  7  1  0  0  0  0
  5  8  1  0  0  0  0
  8  9  1  0  0  0  0
  8 10  1  0  0  0  0
  8 11  1  0  0  0  0
 11 12  1  0  0  0  0
 11 13  1  0  0  0  0
 11 14  1  0  0  0  0
 14 15  1  0  0  0  0
 14 16  1  0  0  0  0
 14 17  1  0  0  0  0
M  END
> <VConfSearch Rank>
622

> <Conf_Id>
44

> <Delta U+W>
2.712

> <U+W>
-13.153

> <U>
47.423

> <W>
-60.576

> <W(PB)>
-62.262

> <W(SA)>
1.687

> <Valence>
2.414

> <Coulomb>
44.831

> <VdW>
0.178

> <VdW6>
-3.743

> <VdW12>
3.922

> <Bond>
0.138

> <Angle>
0.941

> <Pdih>
1.335

> <Idih>
0.000

> <Tether>
0.000

$$$$
VeraChem MOL file


 17 16  0  0  0  0  0  0  0  0999 V2000     
   21.7022   18.5598   20.8673 N   0  3  0  0  0  0  0  0  0  0  0  0
   21.0276   18.4637   20.1030 H   0  0  0  0  0  0  0  0  0  0  0  0
   21.9813   17.6142   21.1455 H   0  0  0  0  0  0  0  0  0  0  0  0
   22.5345   19.0129   20.4765 H   0  0  0  0  0  0  0  0  0  0  0  0
   21.1261   19.3448   22.0299 C   0  0  0  0  0  0  0  0  0  0  0  0
   20.8782   20.3477   21.6727 H   0  0  0  0  0  0  0  0  0  0  0  0
   21.9085   19.4398   22.7878 H   0  0  0  0  0  0  0  0  0  0  0  0
   19.8783   18.6948   22.6627 C   0  0  0  0  0  0  0  0  0  0  0  0
   20.1471   17.7049   23.0546 H   0  0  0  0  0  0  0  0  0  0  0  0
   19.5719   19.2941   23.5304 H   0  0  0  0  0  0  0  0  0  0  0  0
   18.6796   18.5550   21.6915 C   0  0  0  0  0  0  0  0  0  0  0  0
   17.8480   18.0717   22.2232 H   0  0  0  0  0  0  0  0  0  0  0  0
   18.9412   17.8825   20.8632 H   0  0  0  0  0  0  0  0  0  0  0  0
   18.1953   19.9107   21.1284 C   0  0  0  0  0  0  0  0  0  0  0  0
   17.9265   20.6011   21.9384 H   0  0  0  0  0  0  0  0  0  0  0  0
   17.3068   19.7710   20.4991 H   0  0  0  0  0  0  0  0  0  0  0  0
   18.9656   20.3902   20.5113 H   0  0  0  0  0  0  0  0  0  0  0  0
  1  2  1  0  0  0  0
  1  3  1  0  0  0  0
  1  4  1  0  0  0  0
  1  5  1  0  0  0  0
  5  6  1  0  0  0  0
  5  7  1  0  0  0  0
  5  8  1  0  0  0  0
  8  9  1  0  0  0  0
  8 10  1  0  0  0  0
  8 11  1  0  0  0  0
 11 12  1  0  0  0  0
 11 13  1  0  0  0  0
 11 14  1  0  0  0  0
 14 15  1  0  0  0  0
 14 16  1  0  0  0  0
 14 17  1  0  0  0  0
M  END
> <VConfSearch Rank>
623

> <Conf_Id>
1

> <Delta U+W>
0.685

> <U+W>
-15.179

> <U>
45.697

> <W>
-60.876

> <W(PB)>
-62.586

> <W(SA)>
1.710

> <Valence>
1.263

> <Coulomb>
44.179

> <VdW>
0.255

> <VdW6>
-3.552

> <VdW12>
3.807

> <Bond>
0.125

> <Angle>
0.616

> <Pdih>
0.521

> <Idih>
0.000

> <Tether>
0.000

$$$$
VeraChem MOL file


 17 16  0  0  0  0  0  0  0  0999 V2000     
   18.4805   18.0908   20.6118 N   0  3  0  0  0  0  0  0  0  0  0  0
   17.6068   18.0779   21.1464 H   0  0  0  0  0  0  0  0  0  0  0  0
   19.0899   17.3708   21.0102 H   0  0  0  0  0  0  0  0  0  0  0  0
   18.2503   17.7939   19.6581 H   0  0  0  0  0  0  0  0  0  0  0  0
   19.1371   19.4577   20.6339 C   0  0  0  0  0  0  0  0  0  0  0  0
   18.4495   20.1650   20.1621 H   0  0  0  0  0  0  0  0  0  0  0  0
   20.0428   19.4091   20.0238 H   0  0  0  0  0  0  0  0  0  0  0  0
   19.4901   19.9562   22.0505 C   0  0  0  0  0  0  0  0  0  0  0  0
   19.8983   20.9727   21.9736 H   0  0  0  0  0  0  0  0  0  0  0  0
   18.5693   20.0406   22.6427 H   0  0  0  0  0  0  0  0  0  0  0  0
   20.5032   19.0561   22.8008 C   0  0  0  0  0  0  0  0  0  0  0  0
   20.0719   18.0595   22.9672 H   0  0  0  0  0  0  0  0  0  0  0  0
   20.6812   19.4798   23.7992 H   0  0  0  0  0  0  0  0  0  0  0  0
   21.8555   18.9217   22.0639 C   0  0  0  0  0  0  0  0  0  0  0  0
   22.5624   18.3313   22.6611 H   0  0  0  0  0  0  0  0  0  0  0  0
   22.3078   19.9062   21.8867 H   0  0  0  0  0  0  0  0  0  0  0  0
   21.7397   18.4187   21.0957 H   0  0  0  0  0  0  0  0  0  0  0  0
  1  2  1  0  0  0  0
  1  3  1  0  0  0  0
  1  4  1  0  0  0  0
  1  5  1  0  0  0  0
  5  6  1  0  0  0  0
  5  7  1  0  0  0  0
  5  8  1  0  0  0  0
  8  9  1  0  0  0  0
  8 10  1  0  0  0  0
  8 11  1  0  0  0  0
 11 12  1  0  0  0  0
 11 13  1  0  0  0  0
 11 14  1  0  0  0  0
 14 15  1  0  0  0  0
 14 16  1  0  0  0  0
 14 17  1  0  0  0  0
M  END
> <VConfSearch Rank>
624

> <Conf_Id>
43

> <Delta U+W>
0.642

> <U+W>
-15.222

> <U>
45.697

> <W>
-60.919

> <W(PB)>
-62.631

> <W(SA)>
1.712

> <Valence>
1.262

> <Coulomb>
44.179

> <VdW>
0.255

> <VdW6>
-3.552

> <VdW12>
3.807

> <Bond>
0.125

> <Angle>
0.616

> <Pdih>
0.521

> <Idih>
0.000

> <Tether>
0.000

$$$$
VeraChem MOL file


 17 16  0  0  0  0  0  0  0  0999 V2000     
   21.0862   17.1927   20.2531 N   0  3  0  0  0  0  0  0  0  0  0  0
   22.0113   17.6261   20.1753 H   0  0  0  0  0  0  0  0  0  0  0  0
   20.6011   17.3579   19.3660 H   0  0  0  0  0  0  0  0  0  0  0  0
   21.2379   16.1813   20.3239 H   0  0  0  0  0  0  0  0  0  0  0  0
   20.3052   17.7295   21.4360 C   0  0  0  0  0  0  0  0  0  0  0  0
   20.8638   17.4918   22.3453 H   0  0  0  0  0  0  0  0  0  0  0  0
   19.3475   17.2033   21.4750 H   0  0  0  0  0  0  0  0  0  0  0  0
   20.0589   19.2474   21.3619 C   0  0  0  0  0  0  0  0  0  0  0  0
   21.0224   19.7716   21.3073 H   0  0  0  0  0  0  0  0  0  0  0  0
   19.5111   19.4841   20.4400 H   0  0  0  0  0  0  0  0  0  0  0  0
   19.2613   19.7527   22.5843 C   0  0  0  0  0  0  0  0  0  0  0  0
   19.8076   19.5131   23.5076 H   0  0  0  0  0  0  0  0  0  0  0  0
   18.2982   19.2260   22.6414 H   0  0  0  0  0  0  0  0  0  0  0  0
   19.0105   21.2747   22.5169 C   0  0  0  0  0  0  0  0  0  0  0  0
   18.4431   21.6134   23.3935 H   0  0  0  0  0  0  0  0  0  0  0  0
   18.4355   21.5413   21.6206 H   0  0  0  0  0  0  0  0  0  0  0  0
   19.9568   21.8307   22.4936 H   0  0  0  0  0  0  0  0  0  0  0  0
  1  2  1  0  0  0  0
  1  3  1  0  0  0  0
  1  4  1  0  0  0  0
  1  5  1  0  0  0  0
  5  6  1  0  0  0  0
  5  7  1  0  0  0  0
  5  8  1  0  0  0  0
  8  9  1  0  0  0  0
  8 10  1  0  0  0  0
  8 11  1  0  0  0  0
 11 12  1  0  0  0  0
 11 13  1  0  0  0  0
 11 14  1  0  0  0  0
 14 15  1  0  0  0  0
 14 16  1  0  0  0  0
 14 17  1  0  0  0  0
M  END
> <VConfSearch Rank>
625

> <Conf_Id>
7

> <Delta U+W>
0.000

> <U+W>
-15.865

> <U>
44.664

> <W>
-60.529

> <W(PB)>
-62.309

> <W(SA)>
1.780

> <Valence>
0.872

> <Coulomb>
43.648

> <VdW>
0.144

> <VdW6>
-2.370

> <VdW12>
2.515

> <Bond>
0.080

> <Angle>
0.376

> <Pdih>
0.416

> <Idih>
0.000

> <Tether>
0.000

$$$$
VeraChem MOL file


 17 16  0  0  0  0  0  0  0  0999 V2000     
   19.5949   17.0961   22.9303 N   0  3  0  0  0  0  0  0  0  0  0  0
   18.6493   16.7428   22.7553 H   0  0  0  0  0  0  0  0  0  0  0  0
   19.5854   17.5351   23.8559 H   0  0  0  0  0  0  0  0  0  0  0  0
   20.2092   16.2780   22.9966 H   0  0  0  0  0  0  0  0  0  0  0  0
   20.0508   18.0574   21.8507 C   0  0  0  0  0  0  0  0  0  0  0  0
   20.0656   17.5163   20.9008 H   0  0  0  0  0  0  0  0  0  0  0  0
   21.0727   18.3661   22.0856 H   0  0  0  0  0  0  0  0  0  0  0  0
   19.1485   19.2999   21.7244 C   0  0  0  0  0  0  0  0  0  0  0  0
   18.1173   18.9774   21.5283 H   0  0  0  0  0  0  0  0  0  0  0  0
   19.1323   19.8424   22.6790 H   0  0  0  0  0  0  0  0  0  0  0  0
   19.6012   20.2533   20.5938 C   0  0  0  0  0  0  0  0  0  0  0  0
   18.8737   21.0723   20.5048 H   0  0  0  0  0  0  0  0  0  0  0  0
   19.5861   19.7209   19.6323 H   0  0  0  0  0  0  0  0  0  0  0  0
   21.0065   20.8513   20.8341 C   0  0  0  0  0  0  0  0  0  0  0  0
   21.0503   21.3843   21.7928 H   0  0  0  0  0  0  0  0  0  0  0  0
   21.2610   21.5667   20.0414 H   0  0  0  0  0  0  0  0  0  0  0  0
   21.7805   20.0735   20.8386 H   0  0  0  0  0  0  0  0  0  0  0  0
  1  2  1  0  0  0  0
  1  3  1  0  0  0  0
  1  4  1  0  0  0  0
  1  5  1  0  0  0  0
  5  6  1  0  0  0  0
  5  7  1  0  0  0  0
  5  8  1  0  0  0  0
  8  9  1  0  0  0  0
  8 10  1  0  0  0  0
  8 11  1  0  0  0  0
 11 12  1  0  0  0  0
 11 13  1  0  0  0  0
 11 14  1  0  0  0  0
 14 15  1  0  0  0  0
 14 16  1  0  0  0  0
 14 17  1  0  0  0  0
M  END
> <VConfSearch Rank>
626

> <Conf_Id>
36

> <Delta U+W>
0.275

> <U+W>
-15.590

> <U>
45.174

> <W>
-60.765

> <W(PB)>
-62.518

> <W(SA)>
1.754

> <Valence>
1.161

> <Coulomb>
43.789

> <VdW>
0.224

> <VdW6>
-2.897

> <VdW12>
3.121

> <Bond>
0.100

> <Angle>
0.500

> <Pdih>
0.561

> <Idih>
0.000

> <Tether>
0.000

$$$$
VeraChem MOL file


 17 16  0  0  0  0  0  0  0  0999 V2000     
   20.0258   20.7753   21.1010 N   0  3  0  0  0  0  0  0  0  0  0  0
   20.7091   20.5603   21.8315 H   0  0  0  0  0  0  0  0  0  0  0  0
   19.2323   21.2359   21.5568 H   0  0  0  0  0  0  0  0  0  0  0  0
   20.4551   21.4686   20.4798 H   0  0  0  0  0  0  0  0  0  0  0  0
   19.5980   19.5308   20.3473 C   0  0  0  0  0  0  0  0  0  0  0  0
   20.4687   19.1221   19.8275 H   0  0  0  0  0  0  0  0  0  0  0  0
   18.8722   19.8472   19.5932 H   0  0  0  0  0  0  0  0  0  0  0  0
   18.9594   18.4405   21.2334 C   0  0  0  0  0  0  0  0  0  0  0  0
   18.2508   18.8963   21.9376 H   0  0  0  0  0  0  0  0  0  0  0  0
   18.3607   17.7889   20.5832 H   0  0  0  0  0  0  0  0  0  0  0  0
   19.9772   17.5513   21.9923 C   0  0  0  0  0  0  0  0  0  0  0  0
   20.6403   17.0514   21.2722 H   0  0  0  0  0  0  0  0  0  0  0  0
   19.4239   16.7503   22.5025 H   0  0  0  0  0  0  0  0  0  0  0  0
   20.8286   18.3052   23.0390 C   0  0  0  0  0  0  0  0  0  0  0  0
   21.5538   18.9742   22.5614 H   0  0  0  0  0  0  0  0  0  0  0  0
   21.4001   17.5933   23.6488 H   0  0  0  0  0  0  0  0  0  0  0  0
   20.1972   18.8931   23.7178 H   0  0  0  0  0  0  0  0  0  0  0  0
  1  2  1  0  0  0  0
  1  3  1  0  0  0  0
  1  4  1  0  0  0  0
  1  5  1  0  0  0  0
  5  6  1  0  0  0  0
  5  7  1  0  0  0  0
  5  8  1  0  0  0  0
  8  9  1  0  0  0  0
  8 10  1  0  0  0  0
  8 11  1  0  0  0  0
 11 12  1  0  0  0  0
 11 13  1  0  0  0  0
 11 14  1  0  0  0  0
 14 15  1  0  0  0  0
 14 16  1  0  0  0  0
 14 17  1  0  0  0  0
M  END
> <VConfSearch Rank>
627

> <Conf_Id>
19

> <Delta U+W>
2.662

> <U+W>
-13.203

> <U>
47.423

> <W>
-60.626

> <W(PB)>
-62.328

> <W(SA)>
1.702

> <Valence>
2.414

> <Coulomb>
44.831

> <VdW>
0.178

> <VdW6>
-3.743

> <VdW12>
3.921

> <Bond>
0.138

> <Angle>
0.941

> <Pdih>
1.335

> <Idih>
0.000

> <Tether>
0.000

$$$$
VeraChem MOL file


 17 16  0  0  0  0  0  0  0  0999 V2000     
   19.8057   17.2426   21.9758 N   0  3  0  0  0  0  0  0  0  0  0  0
   20.3298   16.4035   22.2441 H   0  0  0  0  0  0  0  0  0  0  0  0
   18.8767   16.9300   21.6780 H   0  0  0  0  0  0  0  0  0  0  0  0
   19.6777   17.8023   22.8227 H   0  0  0  0  0  0  0  0  0  0  0  0
   20.5130   18.0253   20.8862 C   0  0  0  0  0  0  0  0  0  0  0  0
   20.6065   17.3597   20.0237 H   0  0  0  0  0  0  0  0  0  0  0  0
   21.5200   18.2724   21.2329 H   0  0  0  0  0  0  0  0  0  0  0  0
   19.7799   19.3118   20.4513 C   0  0  0  0  0  0  0  0  0  0  0  0
   20.1410   19.5807   19.4497 H   0  0  0  0  0  0  0  0  0  0  0  0
   18.7057   19.1129   20.3408 H   0  0  0  0  0  0  0  0  0  0  0  0
   20.0098   20.5288   21.3834 C   0  0  0  0  0  0  0  0  0  0  0  0
   19.5340   21.4085   20.9275 H   0  0  0  0  0  0  0  0  0  0  0  0
   21.0837   20.7570   21.4352 H   0  0  0  0  0  0  0  0  0  0  0  0
   19.4510   20.3529   22.8136 C   0  0  0  0  0  0  0  0  0  0  0  0
   18.4016   20.0311   22.7949 H   0  0  0  0  0  0  0  0  0  0  0  0
   19.4978   21.3039   23.3601 H   0  0  0  0  0  0  0  0  0  0  0  0
   20.0350   19.6235   23.3869 H   0  0  0  0  0  0  0  0  0  0  0  0
  1  2  1  0  0  0  0
  1  3  1  0  0  0  0
  1  4  1  0  0  0  0
  1  5  1  0  0  0  0
  5  6  1  0  0  0  0
  5  7  1  0  0  0  0
  5  8  1  0  0  0  0
  8  9  1  0  0  0  0
  8 10  1  0  0  0  0
  8 11  1  0  0  0  0
 11 12  1  0  0  0  0
 11 13  1  0  0  0  0
 11 14  1  0  0  0  0
 14 15  1  0  0  0  0
 14 16  1  0  0  0  0
 14 17  1  0  0  0  0
M  END
> <VConfSearch Rank>
628

> <Conf_Id>
44

> <Delta U+W>
2.712

> <U+W>
-13.153

> <U>
47.423

> <W>
-60.576

> <W(PB)>
-62.262

> <W(SA)>
1.687

> <Valence>
2.414

> <Coulomb>
44.831

> <VdW>
0.178

> <VdW6>
-3.743

> <VdW12>
3.922

> <Bond>
0.138

> <Angle>
0.941

> <Pdih>
1.335

> <Idih>
0.000

> <Tether>
0.000

$$$$
VeraChem MOL file


 17 16  0  0  0  0  0  0  0  0999 V2000     
   20.7801   20.0442   20.1183 N   0  3  0  0  0  0  0  0  0  0  0  0
   19.8374   20.4270   20.2336 H   0  0  0  0  0  0  0  0  0  0  0  0
   20.7830   19.5034   19.2483 H   0  0  0  0  0  0  0  0  0  0  0  0
   21.4108   20.8397   19.9763 H   0  0  0  0  0  0  0  0  0  0  0  0
   21.1940   19.2018   21.3095 C   0  0  0  0  0  0  0  0  0  0  0  0
   21.1983   19.8438   22.1942 H   0  0  0  0  0  0  0  0  0  0  0  0
   22.2178   18.8595   21.1356 H   0  0  0  0  0  0  0  0  0  0  0  0
   20.2826   17.9819   21.5563 C   0  0  0  0  0  0  0  0  0  0  0  0
   20.3168   17.3230   20.6786 H   0  0  0  0  0  0  0  0  0  0  0  0
   20.6936   17.3997   22.3918 H   0  0  0  0  0  0  0  0  0  0  0  0
   18.8099   18.3483   21.8669 C   0  0  0  0  0  0  0  0  0  0  0  0
   18.2379   17.4213   22.0128 H   0  0  0  0  0  0  0  0  0  0  0  0
   18.3557   18.8517   21.0026 H   0  0  0  0  0  0  0  0  0  0  0  0
   18.6587   19.2348   23.1243 C   0  0  0  0  0  0  0  0  0  0  0  0
   19.1049   18.7520   24.0035 H   0  0  0  0  0  0  0  0  0  0  0  0
   17.5982   19.4146   23.3434 H   0  0  0  0  0  0  0  0  0  0  0  0
   19.1390   20.2121   22.9897 H   0  0  0  0  0  0  0  0  0  0  0  0
  1  2  1  0  0  0  0
  1  3  1  0  0  0  0
  1  4  1  0  0  0  0
  1  5  1  0  0  0  0
  5  6  1  0  0  0  0
  5  7  1  0  0  0  0
  5  8  1  0  0  0  0
  8  9  1  0  0  0  0
  8 10  1  0  0  0  0
  8 11  1  0  0  0  0
 11 12  1  0  0  0  0
 11 13  1  0  0  0  0
 11 14  1  0  0  0  0
 14 15  1  0  0  0  0
 14 16  1  0  0  0  0
 14 17  1  0  0  0  0
M  END
> <VConfSearch Rank>
629

> <Conf_Id>
1

> <Delta U+W>
0.685

> <U+W>
-15.179

> <U>
45.697

> <W>
-60.876

> <W(PB)>
-62.586

> <W(SA)>
1.710

> <Valence>
1.263

> <Coulomb>
44.179

> <VdW>
0.255

> <VdW6>
-3.552

> <VdW12>
3.807

> <Bond>
0.125

> <Angle>
0.616

> <Pdih>
0.521

> <Idih>
0.000

> <Tether>
0.000

$$$$
VeraChem MOL file


 17 16  0  0  0  0  0  0  0  0999 V2000     
   18.8018   20.0122   20.2888 N   0  3  0  0  0  0  0  0  0  0  0  0
   18.0746   20.5627   20.7551 H   0  0  0  0  0  0  0  0  0  0  0  0
   18.4875   19.0377   20.2841 H   0  0  0  0  0  0  0  0  0  0  0  0
   18.8295   20.3223   19.3122 H   0  0  0  0  0  0  0  0  0  0  0  0
   20.1494   20.1646   20.9674 C   0  0  0  0  0  0  0  0  0  0  0  0
   20.4379   21.2172   20.9022 H   0  0  0  0  0  0  0  0  0  0  0  0
   20.8809   19.5785   20.4051 H   0  0  0  0  0  0  0  0  0  0  0  0
   20.1555   19.7240   22.4458 C   0  0  0  0  0  0  0  0  0  0  0  0
   21.1476   19.9292   22.8694 H   0  0  0  0  0  0  0  0  0  0  0  0
   19.4478   20.3456   23.0101 H   0  0  0  0  0  0  0  0  0  0  0  0
   19.8101   18.2291   22.6592 C   0  0  0  0  0  0  0  0  0  0  0  0
   18.7838   18.0271   22.3236 H   0  0  0  0  0  0  0  0  0  0  0  0
   19.8248   18.0129   23.7366 H   0  0  0  0  0  0  0  0  0  0  0  0
   20.7901   17.2728   21.9416 C   0  0  0  0  0  0  0  0  0  0  0  0
   20.5471   16.2277   22.1731 H   0  0  0  0  0  0  0  0  0  0  0  0
   21.8243   17.4547   22.2617 H   0  0  0  0  0  0  0  0  0  0  0  0
   20.7433   17.3897   20.8516 H   0  0  0  0  0  0  0  0  0  0  0  0
  1  2  1  0  0  0  0
  1  3  1  0  0  0  0
  1  4  1  0  0  0  0
  1  5  1  0  0  0  0
  5  6  1  0  0  0  0
  5  7  1  0  0  0  0
  5  8  1  0  0  0  0
  8  9  1  0  0  0  0
  8 10  1  0  0  0  0
  8 11  1  0  0  0  0
 11 12  1  0  0  0  0
 11 13  1  0  0  0  0
 11 14  1  0  0  0  0
 14 15  1  0  0  0  0
 14 16  1  0  0  0  0
 14 17  1  0  0  0  0
M  END
> <VConfSearch Rank>
630

> <Conf_Id>
43

> <Delta U+W>
0.642

> <U+W>
-15.222

> <U>
45.697

> <W>
-60.919

> <W(PB)>
-62.631

> <W(SA)>
1.712

> <Valence>
1.262

> <Coulomb>
44.179

> <VdW>
0.255

> <VdW6>
-3.552

> <VdW12>
3.807

> <Bond>
0.125

> <Angle>
0.616

> <Pdih>
0.521

> <Idih>
0.000

> <Tether>
0.000

$$$$
VeraChem MOL file


 17 16  0  0  0  0  0  0  0  0999 V2000     
   17.4519   18.5018   21.6532 N   0  3  0  0  0  0  0  0  0  0  0  0
   17.3259   18.3659   20.6456 H   0  0  0  0  0  0  0  0  0  0  0  0
   17.1105   19.4420   21.8748 H   0  0  0  0  0  0  0  0  0  0  0  0
   16.8242   17.8406   22.1220 H   0  0  0  0  0  0  0  0  0  0  0  0
   18.8941   18.3067   22.0767 C   0  0  0  0  0  0  0  0  0  0  0  0
   19.1795   17.2783   21.8393 H   0  0  0  0  0  0  0  0  0  0  0  0
   18.9478   18.4354   23.1612 H   0  0  0  0  0  0  0  0  0  0  0  0
   19.8654   19.2847   21.3908 C   0  0  0  0  0  0  0  0  0  0  0  0
   19.7973   19.1634   20.3015 H   0  0  0  0  0  0  0  0  0  0  0  0
   19.5666   20.3165   21.6189 H   0  0  0  0  0  0  0  0  0  0  0  0
   21.3218   19.0522   21.8494 C   0  0  0  0  0  0  0  0  0  0  0  0
   21.6204   18.0185   21.6243 H   0  0  0  0  0  0  0  0  0  0  0  0
   21.3899   19.1704   22.9401 H   0  0  0  0  0  0  0  0  0  0  0  0
   22.3020   20.0297   21.1654 C   0  0  0  0  0  0  0  0  0  0  0  0
   23.3302   19.8483   21.5042 H   0  0  0  0  0  0  0  0  0  0  0  0
   22.0494   21.0719   21.4004 H   0  0  0  0  0  0  0  0  0  0  0  0
   22.2816   19.9110   20.0742 H   0  0  0  0  0  0  0  0  0  0  0  0
  1  2  1  0  0  0  0
  1  3  1  0  0  0  0
  1  4  1  0  0  0  0
  1  5  1  0  0  0  0
  5  6  1  0  0  0  0
  5  7  1  0  0  0  0
  5  8  1  0  0  0  0
  8  9  1  0  0  0  0
  8 10  1  0  0  0  0
  8 11  1  0  0  0  0
 11 12  1  0  0  0  0
 11 13  1  0  0  0  0
 11 14  1  0  0  0  0
 14 15  1  0  0  0  0
 14 16  1  0  0  0  0
 14 17  1  0  0  0  0
M  END
> <VConfSearch Rank>
631

> <Conf_Id>
7

> <Delta U+W>
0.000

> <U+W>
-15.865

> <U>
44.664

> <W>
-60.529

> <W(PB)>
-62.309

> <W(SA)>
1.780

> <Valence>
0.872

> <Coulomb>
43.648

> <VdW>
0.144

> <VdW6>
-2.370

> <VdW12>
2.515

> <Bond>
0.080

> <Angle>
0.376

> <Pdih>
0.416

> <Idih>
0.000

> <Tether>
0.000

$$$$
VeraChem MOL file


 17 16  0  0  0  0  0  0  0  0999 V2000     
   20.0741   16.7519   22.1782 N   0  3  0  0  0  0  0  0  0  0  0  0
   20.8265   16.6230   22.8615 H   0  0  0  0  0  0  0  0  0  0  0  0
   20.4256   16.4152   21.2767 H   0  0  0  0  0  0  0  0  0  0  0  0
   19.3131   16.1226   22.4534 H   0  0  0  0  0  0  0  0  0  0  0  0
   19.6143   18.1943   22.1051 C   0  0  0  0  0  0  0  0  0  0  0  0
   19.2262   18.4755   23.0879 H   0  0  0  0  0  0  0  0  0  0  0  0
   18.7945   18.2494   21.3842 H   0  0  0  0  0  0  0  0  0  0  0  0
   20.7349   19.1683   21.6934 C   0  0  0  0  0  0  0  0  0  0  0  0
   21.5697   19.0761   22.4009 H   0  0  0  0  0  0  0  0  0  0  0  0
   21.1258   18.8849   20.7071 H   0  0  0  0  0  0  0  0  0  0  0  0
   20.2632   20.6408   21.6607 C   0  0  0  0  0  0  0  0  0  0  0  0
   21.1247   21.2868   21.4402 H   0  0  0  0  0  0  0  0  0  0  0  0
   19.9025   20.9363   22.6560 H   0  0  0  0  0  0  0  0  0  0  0  0
   19.1583   20.8982   20.6105 C   0  0  0  0  0  0  0  0  0  0  0  0
   19.4916   20.6052   19.6064 H   0  0  0  0  0  0  0  0  0  0  0  0
   18.8980   21.9642   20.5790 H   0  0  0  0  0  0  0  0  0  0  0  0
   18.2423   20.3410   20.8438 H   0  0  0  0  0  0  0  0  0  0  0  0
  1  2  1  0  0  0  0
  1  3  1  0  0  0  0
  1  4  1  0  0  0  0
  1  5  1  0  0  0  0
  5  6  1  0  0  0  0
  5  7  1  0  0  0  0
  5  8  1  0  0  0  0
  8  9  1  0  0  0  0
  8 10  1  0  0  0  0
  8 11  1  0  0  0  0
 11 12  1  0  0  0  0
 11 13  1  0  0  0  0
 11 14  1  0  0  0  0
 14 15  1  0  0  0  0
 14 16  1  0  0  0  0
 14 17  1  0  0  0  0
M  END
> <VConfSearch Rank>
632

> <Conf_Id>
36

> <Delta U+W>
0.275

> <U+W>
-15.590

> <U>
45.174

> <W>
-60.765

> <W(PB)>
-62.518

> <W(SA)>
1.754

> <Valence>
1.161

> <Coulomb>
43.789

> <VdW>
0.224

> <VdW6>
-2.897

> <VdW12>
3.121

> <Bond>
0.100

> <Angle>
0.500

> <Pdih>
0.561

> <Idih>
0.000

> <Tether>
0.000

$$$$
VeraChem MOL file


 17 16  0  0  0  0  0  0  0  0999 V2000     
   18.4109   20.0312   21.7807 N   0  3  0  0  0  0  0  0  0  0  0  0
   18.5713   19.4612   22.6151 H   0  0  0  0  0  0  0  0  0  0  0  0
   17.6829   19.5640   21.2320 H   0  0  0  0  0  0  0  0  0  0  0  0
   18.0187   20.9245   22.0954 H   0  0  0  0  0  0  0  0  0  0  0  0
   19.6836   20.2250   20.9790 C   0  0  0  0  0  0  0  0  0  0  0  0
   20.3969   20.7862   21.5886 H   0  0  0  0  0  0  0  0  0  0  0  0
   19.4249   20.8382   20.1115 H   0  0  0  0  0  0  0  0  0  0  0  0
   20.3324   18.9124   20.4914 C   0  0  0  0  0  0  0  0  0  0  0  0
   19.5621   18.2367   20.0968 H   0  0  0  0  0  0  0  0  0  0  0  0
   20.9833   19.1562   19.6413 H   0  0  0  0  0  0  0  0  0  0  0  0
   21.1923   18.1859   21.5570 C   0  0  0  0  0  0  0  0  0  0  0  0
   21.9981   18.8511   21.8979 H   0  0  0  0  0  0  0  0  0  0  0  0
   21.6875   17.3300   21.0772 H   0  0  0  0  0  0  0  0  0  0  0  0
   20.3967   17.6727   22.7787 C   0  0  0  0  0  0  0  0  0  0  0  0
   20.0548   18.4993   23.4124 H   0  0  0  0  0  0  0  0  0  0  0  0
   21.0307   17.0294   23.4027 H   0  0  0  0  0  0  0  0  0  0  0  0
   19.5261   17.0808   22.4675 H   0  0  0  0  0  0  0  0  0  0  0  0
  1  2  1  0  0  0  0
  1  3  1  0  0  0  0
  1  4  1  0  0  0  0
  1  5  1  0  0  0  0
  5  6  1  0  0  0  0
  5  7  1  0  0  0  0
  5  8  1  0  0  0  0
  8  9  1  0  0  0  0
  8 10  1  0  0  0  0
  8 11  1  0  0  0  0
 11 12  1  0  0  0  0
 11 13  1  0  0  0  0
 11 14  1  0  0  0  0
 14 15  1  0  0  0  0
 14 16  1  0  0  0  0
 14 17  1  0  0  0  0
M  END
> <VConfSearch Rank>
633

> <Conf_Id>
19

> <Delta U+W>
2.662

> <U+W>
-13.203

> <U>
47.423

> <W>
-60.626

> <W(PB)>
-62.328

> <W(SA)>
1.702

> <Valence>
2.414

> <Coulomb>
44.831

> <VdW>
0.178

> <VdW6>
-3.743

> <VdW12>
3.921

> <Bond>
0.138

> <Angle>
0.941

> <Pdih>
1.335

> <Idih>
0.000

> <Tether>
0.000

$$$$
VeraChem MOL file


 17 16  0  0  0  0  0  0  0  0999 V2000     
   20.6544   19.7496   20.0567 N   0  3  0  0  0  0  0  0  0  0  0  0
   20.5632   20.4067   19.2753 H   0  0  0  0  0  0  0  0  0  0  0  0
   21.4425   19.1333   19.8362 H   0  0  0  0  0  0  0  0  0  0  0  0
   20.9203   20.2951   20.8805 H   0  0  0  0  0  0  0  0  0  0  0  0
   19.3757   18.9679   20.2888 C   0  0  0  0  0  0  0  0  0  0  0  0
   19.1665   18.4164   19.3681 H   0  0  0  0  0  0  0  0  0  0  0  0
   18.5591   19.6765   20.4509 H   0  0  0  0  0  0  0  0  0  0  0  0
   19.4452   17.9728   21.4662 C   0  0  0  0  0  0  0  0  0  0  0  0
   18.6603   17.2198   21.3151 H   0  0  0  0  0  0  0  0  0  0  0  0
   20.3967   17.4254   21.4397 H   0  0  0  0  0  0  0  0  0  0  0  0
   19.2297   18.6121   22.8617 C   0  0  0  0  0  0  0  0  0  0  0  0
   19.1937   17.8073   23.6093 H   0  0  0  0  0  0  0  0  0  0  0  0
   18.2467   19.1025   22.8958 H   0  0  0  0  0  0  0  0  0  0  0  0
   20.3236   19.6217   23.2779 C   0  0  0  0  0  0  0  0  0  0  0  0
   21.3271   19.1917   23.1638 H   0  0  0  0  0  0  0  0  0  0  0  0
   20.2000   19.9037   24.3316 H   0  0  0  0  0  0  0  0  0  0  0  0
   20.2645   20.5444   22.6889 H   0  0  0  0  0  0  0  0  0  0  0  0
  1  2  1  0  0  0  0
  1  3  1  0  0  0  0
  1  4  1  0  0  0  0
  1  5  1  0  0  0  0
  5  6  1  0  0  0  0
  5  7  1  0  0  0  0
  5  8  1  0  0  0  0
  8  9  1  0  0  0  0
  8 10  1  0  0  0  0
  8 11  1  0  0  0  0
 11 12  1  0  0  0  0
 11 13  1  0  0  0  0
 11 14  1  0  0  0  0
 14 15  1  0  0  0  0
 14 16  1  0  0  0  0
 14 17  1  0  0  0  0
M  END
> <VConfSearch Rank>
634

> <Conf_Id>
44

> <Delta U+W>
2.712

> <U+W>
-13.153

> <U>
47.423

> <W>
-60.576

> <W(PB)>
-62.262

> <W(SA)>
1.687

> <Valence>
2.414

> <Coulomb>
44.831

> <VdW>
0.178

> <VdW6>
-3.743

> <VdW12>
3.922

> <Bond>
0.138

> <Angle>
0.941

> <Pdih>
1.335

> <Idih>
0.000

> <Tether>
0.000

$$$$
VeraChem MOL file


 17 16  0  0  0  0  0  0  0  0999 V2000     
   18.4523   17.9808   22.4214 N   0  3  0  0  0  0  0  0  0  0  0  0
   19.0998   18.2329   23.1734 H   0  0  0  0  0  0  0  0  0  0  0  0
   18.5676   16.9782   22.2457 H   0  0  0  0  0  0  0  0  0  0  0  0
   17.5036   18.1117   22.7869 H   0  0  0  0  0  0  0  0  0  0  0  0
   18.6940   18.8056   21.1719 C   0  0  0  0  0  0  0  0  0  0  0  0
   18.5263   19.8566   21.4212 H   0  0  0  0  0  0  0  0  0  0  0  0
   17.9476   18.5113   20.4291 H   0  0  0  0  0  0  0  0  0  0  0  0
   20.1056   18.6315   20.5742 C   0  0  0  0  0  0  0  0  0  0  0  0
   20.2494   17.5808   20.2897 H   0  0  0  0  0  0  0  0  0  0  0  0
   20.1669   19.2113   19.6437 H   0  0  0  0  0  0  0  0  0  0  0  0
   21.2496   19.0684   21.5228 C   0  0  0  0  0  0  0  0  0  0  0  0
   22.2115   18.8953   21.0201 H   0  0  0  0  0  0  0  0  0  0  0  0
   21.2586   18.4350   22.4203 H   0  0  0  0  0  0  0  0  0  0  0  0
   21.1592   20.5553   21.9359 C   0  0  0  0  0  0  0  0  0  0  0  0
   21.1498   21.2098   21.0546 H   0  0  0  0  0  0  0  0  0  0  0  0
   22.0227   20.8368   22.5524 H   0  0  0  0  0  0  0  0  0  0  0  0
   20.2541   20.7574   22.5222 H   0  0  0  0  0  0  0  0  0  0  0  0
  1  2  1  0  0  0  0
  1  3  1  0  0  0  0
  1  4  1  0  0  0  0
  1  5  1  0  0  0  0
  5  6  1  0  0  0  0
  5  7  1  0  0  0  0
  5  8  1  0  0  0  0
  8  9  1  0  0  0  0
  8 10  1  0  0  0  0
  8 11  1  0  0  0  0
 11 12  1  0  0  0  0
 11 13  1  0  0  0  0
 11 14  1  0  0  0  0
 14 15  1  0  0  0  0
 14 16  1  0  0  0  0
 14 17  1  0  0  0  0
M  END
> <VConfSearch Rank>
635

> <Conf_Id>
1

> <Delta U+W>
0.685

> <U+W>
-15.179

> <U>
45.697

> <W>
-60.876

> <W(PB)>
-62.586

> <W(SA)>
1.710

> <Valence>
1.263

> <Coulomb>
44.179

> <VdW>
0.255

> <VdW6>
-3.552

> <VdW12>
3.807

> <Bond>
0.125

> <Angle>
0.616

> <Pdih>
0.521

> <Idih>
0.000

> <Tether>
0.000

$$$$
VeraChem MOL file


 17 16  0  0  0  0  0  0  0  0999 V2000     
   20.6165   19.7046   23.3350 N   0  3  0  0  0  0  0  0  0  0  0  0
   20.1219   20.5507   23.6333 H   0  0  0  0  0  0  0  0  0  0  0  0
   21.2879   19.9847   22.6145 H   0  0  0  0  0  0  0  0  0  0  0  0
   21.1604   19.3784   24.1403 H   0  0  0  0  0  0  0  0  0  0  0  0
   19.6622   18.6396   22.8302 C   0  0  0  0  0  0  0  0  0  0  0  0
   19.0032   18.3637   23.6579 H   0  0  0  0  0  0  0  0  0  0  0  0
   20.2496   17.7589   22.5581 H   0  0  0  0  0  0  0  0  0  0  0  0
   18.8089   19.0884   21.6258 C   0  0  0  0  0  0  0  0  0  0  0  0
   18.1078   18.2822   21.3723 H   0  0  0  0  0  0  0  0  0  0  0  0
   18.1925   19.9478   21.9211 H   0  0  0  0  0  0  0  0  0  0  0  0
   19.6368   19.4570   20.3696 C   0  0  0  0  0  0  0  0  0  0  0  0
   20.2784   20.3233   20.5810 H   0  0  0  0  0  0  0  0  0  0  0  0
   18.9492   19.7761   19.5738 H   0  0  0  0  0  0  0  0  0  0  0  0
   20.4996   18.2853   19.8477 C   0  0  0  0  0  0  0  0  0  0  0  0
   21.0166   18.5702   18.9223 H   0  0  0  0  0  0  0  0  0  0  0  0
   19.8798   17.4063   19.6278 H   0  0  0  0  0  0  0  0  0  0  0  0
   21.2648   17.9909   20.5770 H   0  0  0  0  0  0  0  0  0  0  0  0
  1  2  1  0  0  0  0
  1  3  1  0  0  0  0
  1  4  1  0  0  0  0
  1  5  1  0  0  0  0
  5  6  1  0  0  0  0
  5  7  1  0  0  0  0
  5  8  1  0  0  0  0
  8  9  1  0  0  0  0
  8 10  1  0  0  0  0
  8 11  1  0  0  0  0
 11 12  1  0  0  0  0
 11 13  1  0  0  0  0
 11 14  1  0  0  0  0
 14 15  1  0  0  0  0
 14 16  1  0  0  0  0
 14 17  1  0  0  0  0
M  END
> <VConfSearch Rank>
636

> <Conf_Id>
43

> <Delta U+W>
0.642

> <U+W>
-15.222

> <U>
45.697

> <W>
-60.919

> <W(PB)>
-62.631

> <W(SA)>
1.712

> <Valence>
1.262

> <Coulomb>
44.179

> <VdW>
0.255

> <VdW6>
-3.552

> <VdW12>
3.807

> <Bond>
0.125

> <Angle>
0.616

> <Pdih>
0.521

> <Idih>
0.000

> <Tether>
0.000

$$$$
VeraChem MOL file


 17 16  0  0  0  0  0  0  0  0999 V2000     
   17.6169   18.5161   22.5067 N   0  3  0  0  0  0  0  0  0  0  0  0
   17.8944   18.2945   23.4677 H   0  0  0  0  0  0  0  0  0  0  0  0
   17.4897   17.6250   22.0173 H   0  0  0  0  0  0  0  0  0  0  0  0
   16.6940   18.9592   22.5596 H   0  0  0  0  0  0  0  0  0  0  0  0
   18.6300   19.4052   21.8136 C   0  0  0  0  0  0  0  0  0  0  0  0
   18.6909   20.3447   22.3697 H   0  0  0  0  0  0  0  0  0  0  0  0
   18.2557   19.6249   20.8100 H   0  0  0  0  0  0  0  0  0  0  0  0
   20.0289   18.7698   21.7166 C   0  0  0  0  0  0  0  0  0  0  0  0
   20.3950   18.5364   22.7253 H   0  0  0  0  0  0  0  0  0  0  0  0
   19.9613   17.8192   21.1709 H   0  0  0  0  0  0  0  0  0  0  0  0
   21.0292   19.7071   21.0050 C   0  0  0  0  0  0  0  0  0  0  0  0
   21.0949   20.6601   21.5489 H   0  0  0  0  0  0  0  0  0  0  0  0
   20.6618   19.9437   19.9963 H   0  0  0  0  0  0  0  0  0  0  0  0
   22.4349   19.0763   20.9040 C   0  0  0  0  0  0  0  0  0  0  0  0
   23.1300   19.7573   20.3959 H   0  0  0  0  0  0  0  0  0  0  0  0
   22.4072   18.1380   20.3348 H   0  0  0  0  0  0  0  0  0  0  0  0
   22.8436   18.8600   21.8996 H   0  0  0  0  0  0  0  0  0  0  0  0
  1  2  1  0  0  0  0
  1  3  1  0  0  0  0
  1  4  1  0  0  0  0
  1  5  1  0  0  0  0
  5  6  1  0  0  0  0
  5  7  1  0  0  0  0
  5  8  1  0  0  0  0
  8  9  1  0  0  0  0
  8 10  1  0  0  0  0
  8 11  1  0  0  0  0
 11 12  1  0  0  0  0
 11 13  1  0  0  0  0
 11 14  1  0  0  0  0
 14 15  1  0  0  0  0
 14 16  1  0  0  0  0
 14 17  1  0  0  0  0
M  END
> <VConfSearch Rank>
637

> <Conf_Id>
7

> <Delta U+W>
0.000

> <U+W>
-15.865

> <U>
44.664

> <W>
-60.529

> <W(PB)>
-62.309

> <W(SA)>
1.780

> <Valence>
0.872

> <Coulomb>
43.648

> <VdW>
0.144

> <VdW6>
-2.370

> <VdW12>
2.515

> <Bond>
0.080

> <Angle>
0.376

> <Pdih>
0.416

> <Idih>
0.000

> <Tether>
0.000

$$$$
VeraChem MOL file


 17 16  0  0  0  0  0  0  0  0999 V2000     
   18.8635   21.2625   21.6272 N   0  3  0  0  0  0  0  0  0  0  0  0
   18.4556   21.4309   20.7026 H   0  0  0  0  0  0  0  0  0  0  0  0
   19.7109   21.8348   21.6907 H   0  0  0  0  0  0  0  0  0  0  0  0
   18.2016   21.6356   22.3154 H   0  0  0  0  0  0  0  0  0  0  0  0
   19.1520   19.7931   21.8615 C   0  0  0  0  0  0  0  0  0  0  0  0
   18.2044   19.2501   21.8095 H   0  0  0  0  0  0  0  0  0  0  0  0
   19.5531   19.6867   22.8728 H   0  0  0  0  0  0  0  0  0  0  0  0
   20.1448   19.1998   20.8436 C   0  0  0  0  0  0  0  0  0  0  0  0
   19.7513   19.3476   19.8291 H   0  0  0  0  0  0  0  0  0  0  0  0
   21.0960   19.7462   20.8947 H   0  0  0  0  0  0  0  0  0  0  0  0
   20.4005   17.6913   21.0693 C   0  0  0  0  0  0  0  0  0  0  0  0
   21.0499   17.3152   20.2663 H   0  0  0  0  0  0  0  0  0  0  0  0
   19.4541   17.1386   20.9854 H   0  0  0  0  0  0  0  0  0  0  0  0
   21.0597   17.3878   22.4344 C   0  0  0  0  0  0  0  0  0  0  0  0
   22.0057   17.9334   22.5463 H   0  0  0  0  0  0  0  0  0  0  0  0
   21.2785   16.3161   22.5264 H   0  0  0  0  0  0  0  0  0  0  0  0
   20.4037   17.6642   23.2695 H   0  0  0  0  0  0  0  0  0  0  0  0
  1  2  1  0  0  0  0
  1  3  1  0  0  0  0
  1  4  1  0  0  0  0
  1  5  1  0  0  0  0
  5  6  1  0  0  0  0
  5  7  1  0  0  0  0
  5  8  1  0  0  0  0
  8  9  1  0  0  0  0
  8 10  1  0  0  0  0
  8 11  1  0  0  0  0
 11 12  1  0  0  0  0
 11 13  1  0  0  0  0
 11 14  1  0  0  0  0
 14 15  1  0  0  0  0
 14 16  1  0  0  0  0
 14 17  1  0  0  0  0
M  END
> <VConfSearch Rank>
638

> <Conf_Id>
36

> <Delta U+W>
0.275

> <U+W>
-15.590

> <U>
45.174

> <W>
-60.765

> <W(PB)>
-62.518

> <W(SA)>
1.754

> <Valence>
1.161

> <Coulomb>
43.789

> <VdW>
0.224

> <VdW6>
-2.897

> <VdW12>
3.121

> <Bond>
0.100

> <Angle>
0.500

> <Pdih>
0.561

> <Idih>
0.000

> <Tether>
0.000

$$$$
VeraChem MOL file


 17 16  0  0  0  0  0  0  0  0999 V2000     
   18.3882   18.3852   22.4318 N   0  3  0  0  0  0  0  0  0  0  0  0
   18.7494   19.2280   22.8858 H   0  0  0  0  0  0  0  0  0  0  0  0
   18.6686   17.5877   23.0104 H   0  0  0  0  0  0  0  0  0  0  0  0
   17.3651   18.4356   22.4707 H   0  0  0  0  0  0  0  0  0  0  0  0
   18.8929   18.2534   21.0078 C   0  0  0  0  0  0  0  0  0  0  0  0
   18.5080   19.0931   20.4229 H   0  0  0  0  0  0  0  0  0  0  0  0
   18.4645   17.3335   20.6005 H   0  0  0  0  0  0  0  0  0  0  0  0
   20.4298   18.1906   20.8826 C   0  0  0  0  0  0  0  0  0  0  0  0
   20.8420   17.5209   21.6490 H   0  0  0  0  0  0  0  0  0  0  0  0
   20.6684   17.7259   19.9167 H   0  0  0  0  0  0  0  0  0  0  0  0
   21.1359   19.5695   20.9354 C   0  0  0  0  0  0  0  0  0  0  0  0
   20.7598   20.2086   20.1241 H   0  0  0  0  0  0  0  0  0  0  0  0
   22.2054   19.4186   20.7323 H   0  0  0  0  0  0  0  0  0  0  0  0
   20.9908   20.3105   22.2840 C   0  0  0  0  0  0  0  0  0  0  0  0
   19.9667   20.6700   22.4375 H   0  0  0  0  0  0  0  0  0  0  0  0
   21.6478   21.1897   22.3077 H   0  0  0  0  0  0  0  0  0  0  0  0
   21.2698   19.6638   23.1262 H   0  0  0  0  0  0  0  0  0  0  0  0
  1  2  1  0  0  0  0
  1  3  1  0  0  0  0
  1  4  1  0  0  0  0
  1  5  1  0  0  0  0
  5  6  1  0  0  0  0
  5  7  1  0  0  0  0
  5  8  1  0  0  0  0
  8  9  1  0  0  0  0
  8 10  1  0  0  0  0
  8 11  1  0  0  0  0
 11 12  1  0  0  0  0
 11 13  1  0  0  0  0
 11 14  1  0  0  0  0
 14 15  1  0  0  0  0
 14 16  1  0  0  0  0
 14 17  1  0  0  0  0
M  END
> <VConfSearch Rank>
639

> <Conf_Id>
19

> <Delta U+W>
2.662

> <U+W>
-13.203

> <U>
47.423

> <W>
-60.626

> <W(PB)>
-62.328

> <W(SA)>
1.702

> <Valence>
2.414

> <Coulomb>
44.831

> <VdW>
0.178

> <VdW6>
-3.743

> <VdW12>
3.921

> <Bond>
0.138

> <Angle>
0.941

> <Pdih>
1.335

> <Idih>
0.000

> <Tether>
0.000

$$$$
VeraChem MOL file


 17 16  0  0  0  0  0  0  0  0999 V2000     
   21.4865   19.8116   21.0406 N   0  3  0  0  0  0  0  0  0  0  0  0
   22.2877   19.7390   20.4053 H   0  0  0  0  0  0  0  0  0  0  0  0
   21.7215   20.5279   21.7343 H   0  0  0  0  0  0  0  0  0  0  0  0
   20.6990   20.1691   20.4939 H   0  0  0  0  0  0  0  0  0  0  0  0
   21.1608   18.4815   21.6923 C   0  0  0  0  0  0  0  0  0  0  0  0
   22.0476   18.1747   22.2537 H   0  0  0  0  0  0  0  0  0  0  0  0
   20.9863   17.7421   20.9061 H   0  0  0  0  0  0  0  0  0  0  0  0
   19.9501   18.5230   22.6483 C   0  0  0  0  0  0  0  0  0  0  0  0
   20.0324   17.6663   23.3303 H   0  0  0  0  0  0  0  0  0  0  0  0
   20.0022   19.4183   23.2818 H   0  0  0  0  0  0  0  0  0  0  0  0
   18.5718   18.4405   21.9439 C   0  0  0  0  0  0  0  0  0  0  0  0
   17.7923   18.3715   22.7157 H   0  0  0  0  0  0  0  0  0  0  0  0
   18.5083   17.5091   21.3639 H   0  0  0  0  0  0  0  0  0  0  0  0
   18.2504   19.6417   21.0259 C   0  0  0  0  0  0  0  0  0  0  0  0
   18.3971   20.5948   21.5505 H   0  0  0  0  0  0  0  0  0  0  0  0
   17.2037   19.6003   20.6974 H   0  0  0  0  0  0  0  0  0  0  0  0
   18.8715   19.6353   20.1227 H   0  0  0  0  0  0  0  0  0  0  0  0
  1  2  1  0  0  0  0
  1  3  1  0  0  0  0
  1  4  1  0  0  0  0
  1  5  1  0  0  0  0
  5  6  1  0  0  0  0
  5  7  1  0  0  0  0
  5  8  1  0  0  0  0
  8  9  1  0  0  0  0
  8 10  1  0  0  0  0
  8 11  1  0  0  0  0
 11 12  1  0  0  0  0
 11 13  1  0  0  0  0
 11 14  1  0  0  0  0
 14 15  1  0  0  0  0
 14 16  1  0  0  0  0
 14 17  1  0  0  0  0
M  END
> <VConfSearch Rank>
640

> <Conf_Id>
44

> <Delta U+W>
2.712

> <U+W>
-13.153

> <U>
47.423

> <W>
-60.576

> <W(PB)>
-62.262

> <W(SA)>
1.687

> <Valence>
2.414

> <Coulomb>
44.831

> <VdW>
0.178

> <VdW6>
-3.743

> <VdW12>
3.922

> <Bond>
0.138

> <Angle>
0.941

> <Pdih>
1.335

> <Idih>
0.000

> <Tether>
0.000

$$$$
VeraChem MOL file


 17 16  0  0  0  0  0  0  0  0999 V2000     
   19.6551   21.0035   21.4724 N   0  3  0  0  0  0  0  0  0  0  0  0
   18.9366   20.6437   22.1070 H   0  0  0  0  0  0  0  0  0  0  0  0
   19.1856   21.2645   20.6002 H   0  0  0  0  0  0  0  0  0  0  0  0
   20.0147   21.8691   21.8874 H   0  0  0  0  0  0  0  0  0  0  0  0
   20.7581   19.9890   21.2397 C   0  0  0  0  0  0  0  0  0  0  0  0
   21.2341   19.7785   22.2009 H   0  0  0  0  0  0  0  0  0  0  0  0
   21.5039   20.4518   20.5876 H   0  0  0  0  0  0  0  0  0  0  0  0
   20.2687   18.6723   20.6020 C   0  0  0  0  0  0  0  0  0  0  0  0
   19.8291   18.8893   19.6194 H   0  0  0  0  0  0  0  0  0  0  0  0
   21.1385   18.0294   20.4123 H   0  0  0  0  0  0  0  0  0  0  0  0
   19.2415   17.8980   21.4650 C   0  0  0  0  0  0  0  0  0  0  0  0
   18.9418   16.9879   20.9267 H   0  0  0  0  0  0  0  0  0  0  0  0
   18.3263   18.4930   21.5872 H   0  0  0  0  0  0  0  0  0  0  0  0
   19.7939   17.5013   22.8533 C   0  0  0  0  0  0  0  0  0  0  0  0
   20.7099   16.9039   22.7575 H   0  0  0  0  0  0  0  0  0  0  0  0
   19.0582   16.9000   23.4029 H   0  0  0  0  0  0  0  0  0  0  0  0
   20.0227   18.3836   23.4641 H   0  0  0  0  0  0  0  0  0  0  0  0
  1  2  1  0  0  0  0
  1  3  1  0  0  0  0
  1  4  1  0  0  0  0
  1  5  1  0  0  0  0
  5  6  1  0  0  0  0
  5  7  1  0  0  0  0
  5  8  1  0  0  0  0
  8  9  1  0  0  0  0
  8 10  1  0  0  0  0
  8 11  1  0  0  0  0
 11 12  1  0  0  0  0
 11 13  1  0  0  0  0
 11 14  1  0  0  0  0
 14 15  1  0  0  0  0
 14 16  1  0  0  0  0
 14 17  1  0  0  0  0
M  END
> <VConfSearch Rank>
641

> <Conf_Id>
1

> <Delta U+W>
0.685

> <U+W>
-15.179

> <U>
45.697

> <W>
-60.876

> <W(PB)>
-62.586

> <W(SA)>
1.710

> <Valence>
1.263

> <Coulomb>
44.179

> <VdW>
0.255

> <VdW6>
-3.552

> <VdW12>
3.807

> <Bond>
0.125

> <Angle>
0.616

> <Pdih>
0.521

> <Idih>
0.000

> <Tether>
0.000

$$$$
VeraChem MOL file


 17 16  0  0  0  0  0  0  0  0999 V2000     
   18.1411   19.2687   20.7603 N   0  3  0  0  0  0  0  0  0  0  0  0
   18.1052   20.1176   20.1881 H   0  0  0  0  0  0  0  0  0  0  0  0
   18.0552   19.5590   21.7384 H   0  0  0  0  0  0  0  0  0  0  0  0
   17.3033   18.7226   20.5355 H   0  0  0  0  0  0  0  0  0  0  0  0
   19.4119   18.4770   20.5188 C   0  0  0  0  0  0  0  0  0  0  0  0
   19.4185   18.1698   19.4695 H   0  0  0  0  0  0  0  0  0  0  0  0
   19.3720   17.5748   21.1347 H   0  0  0  0  0  0  0  0  0  0  0  0
   20.7031   19.2621   20.8293 C   0  0  0  0  0  0  0  0  0  0  0  0
   21.5664   18.6368   20.5654 H   0  0  0  0  0  0  0  0  0  0  0  0
   20.7541   20.1442   20.1774 H   0  0  0  0  0  0  0  0  0  0  0  0
   20.8297   19.7074   22.3075 C   0  0  0  0  0  0  0  0  0  0  0  0
   20.0226   20.4080   22.5613 H   0  0  0  0  0  0  0  0  0  0  0  0
   21.7671   20.2680   22.4291 H   0  0  0  0  0  0  0  0  0  0  0  0
   20.8212   18.5220   23.2998 C   0  0  0  0  0  0  0  0  0  0  0  0
   20.9786   18.8780   24.3262 H   0  0  0  0  0  0  0  0  0  0  0  0
   21.6211   17.8071   23.0673 H   0  0  0  0  0  0  0  0  0  0  0  0
   19.8648   17.9847   23.2791 H   0  0  0  0  0  0  0  0  0  0  0  0
  1  2  1  0  0  0  0
  1  3  1  0  0  0  0
  1  4  1  0  0  0  0
  1  5  1  0  0  0  0
  5  6  1  0  0  0  0
  5  7  1  0  0  0  0
  5  8  1  0  0  0  0
  8  9  1  0  0  0  0
  8 10  1  0  0  0  0
  8 11  1  0  0  0  0
 11 12  1  0  0  0  0
 11 13  1  0  0  0  0
 11 14  1  0  0  0  0
 14 15  1  0  0  0  0
 14 16  1  0  0  0  0
 14 17  1  0  0  0  0
M  END
> <VConfSearch Rank>
642

> <Conf_Id>
43

> <Delta U+W>
0.642

> <U+W>
-15.222

> <U>
45.697

> <W>
-60.919

> <W(PB)>
-62.631

> <W(SA)>
1.712

> <Valence>
1.262

> <Coulomb>
44.179

> <VdW>
0.255

> <VdW6>
-3.552

> <VdW12>
3.807

> <Bond>
0.125

> <Angle>
0.616

> <Pdih>
0.521

> <Idih>
0.000

> <Tether>
0.000

$$$$
VeraChem MOL file


 17 16  0  0  0  0  0  0  0  0999 V2000     
   21.0646   16.7683   21.2809 N   0  3  0  0  0  0  0  0  0  0  0  0
   20.3084   16.3293   20.7469 H   0  0  0  0  0  0  0  0  0  0  0  0
   20.9781   16.4424   22.2484 H   0  0  0  0  0  0  0  0  0  0  0  0
   21.9440   16.3871   20.9174 H   0  0  0  0  0  0  0  0  0  0  0  0
   21.0236   18.2805   21.1853 C   0  0  0  0  0  0  0  0  0  0  0  0
   21.1518   18.5559   20.1349 H   0  0  0  0  0  0  0  0  0  0  0  0
   21.8719   18.6775   21.7494 H   0  0  0  0  0  0  0  0  0  0  0  0
   19.7149   18.8872   21.7233 C   0  0  0  0  0  0  0  0  0  0  0  0
   18.8642   18.4745   21.1648 H   0  0  0  0  0  0  0  0  0  0  0  0
   19.5820   18.5959   22.7737 H   0  0  0  0  0  0  0  0  0  0  0  0
   19.7144   20.4274   21.6074 C   0  0  0  0  0  0  0  0  0  0  0  0
   19.8508   20.7197   20.5566 H   0  0  0  0  0  0  0  0  0  0  0  0
   20.5676   20.8409   22.1636 H   0  0  0  0  0  0  0  0  0  0  0  0
   18.4046   21.0431   22.1452 C   0  0  0  0  0  0  0  0  0  0  0  0
   18.4241   22.1369   22.0540 H   0  0  0  0  0  0  0  0  0  0  0  0
   18.2578   20.7967   23.2049 H   0  0  0  0  0  0  0  0  0  0  0  0
   17.5353   20.6745   21.5851 H   0  0  0  0  0  0  0  0  0  0  0  0
  1  2  1  0  0  0  0
  1  3  1  0  0  0  0
  1  4  1  0  0  0  0
  1  5  1  0  0  0  0
  5  6  1  0  0  0  0
  5  7  1  0  0  0  0
  5  8  1  0  0  0  0
  8  9  1  0  0  0  0
  8 10  1  0  0  0  0
  8 11  1  0  0  0  0
 11 12  1  0  0  0  0
 11 13  1  0  0  0  0
 11 14  1  0  0  0  0
 14 15  1  0  0  0  0
 14 16  1  0  0  0  0
 14 17  1  0  0  0  0
M  END
> <VConfSearch Rank>
643

> <Conf_Id>
7

> <Delta U+W>
0.000

> <U+W>
-15.865

> <U>
44.664

> <W>
-60.529

> <W(PB)>
-62.309

> <W(SA)>
1.780

> <Valence>
0.872

> <Coulomb>
43.648

> <VdW>
0.144

> <VdW6>
-2.370

> <VdW12>
2.515

> <Bond>
0.080

> <Angle>
0.376

> <Pdih>
0.416

> <Idih>
0.000

> <Tether>
0.000

$$$$
VeraChem MOL file


 17 16  0  0  0  0  0  0  0  0999 V2000     
   19.2157   20.1557   23.6689 N   0  3  0  0  0  0  0  0  0  0  0  0
   18.1954   20.0893   23.7352 H   0  0  0  0  0  0  0  0  0  0  0  0
   19.4380   21.1220   23.4113 H   0  0  0  0  0  0  0  0  0  0  0  0
   19.5841   20.0087   24.6141 H   0  0  0  0  0  0  0  0  0  0  0  0
   19.7865   19.1589   22.6799 C   0  0  0  0  0  0  0  0  0  0  0  0
   19.5383   18.1539   23.0317 H   0  0  0  0  0  0  0  0  0  0  0  0
   20.8743   19.2654   22.6858 H   0  0  0  0  0  0  0  0  0  0  0  0
   19.2531   19.3521   21.2474 C   0  0  0  0  0  0  0  0  0  0  0  0
   18.1572   19.2831   21.2592 H   0  0  0  0  0  0  0  0  0  0  0  0
   19.5009   20.3621   20.8948 H   0  0  0  0  0  0  0  0  0  0  0  0
   19.8126   18.3049   20.2563 C   0  0  0  0  0  0  0  0  0  0  0  0
   19.3336   18.4481   19.2775 H   0  0  0  0  0  0  0  0  0  0  0  0
   19.5368   17.2946   20.5902 H   0  0  0  0  0  0  0  0  0  0  0  0
   21.3464   18.3943   20.0848 C   0  0  0  0  0  0  0  0  0  0  0  0
   21.6495   19.3973   19.7571 H   0  0  0  0  0  0  0  0  0  0  0  0
   21.6918   17.6767   19.3293 H   0  0  0  0  0  0  0  0  0  0  0  0
   21.8711   18.1666   21.0213 H   0  0  0  0  0  0  0  0  0  0  0  0
  1  2  1  0  0  0  0
  1  3  1  0  0  0  0
  1  4  1  0  0  0  0
  1  5  1  0  0  0  0
  5  6  1  0  0  0  0
  5  7  1  0  0  0  0
  5  8  1  0  0  0  0
  8  9  1  0  0  0  0
  8 10  1  0  0  0  0
  8 11  1  0  0  0  0
 11 12  1  0  0  0  0
 11 13  1  0  0  0  0
 11 14  1  0  0  0  0
 14 15  1  0  0  0  0
 14 16  1  0  0  0  0
 14 17  1  0  0  0  0
M  END
> <VConfSearch Rank>
644

> <Conf_Id>
36

> <Delta U+W>
0.275

> <U+W>
-15.590

> <U>
45.174

> <W>
-60.765

> <W(PB)>
-62.518

> <W(SA)>
1.754

> <Valence>
1.161

> <Coulomb>
43.789

> <VdW>
0.224

> <VdW6>
-2.897

> <VdW12>
3.121

> <Bond>
0.100

> <Angle>
0.500

> <Pdih>
0.561

> <Idih>
0.000

> <Tether>
0.000

$$$$
VeraChem MOL file


 17 16  0  0  0  0  0  0  0  0999 V2000     
   18.5886   18.1596   20.6279 N   0  3  0  0  0  0  0  0  0  0  0  0
   19.1424   17.4761   21.1503 H   0  0  0  0  0  0  0  0  0  0  0  0
   18.9151   18.1333   19.6572 H   0  0  0  0  0  0  0  0  0  0  0  0
   17.6197   17.8249   20.6247 H   0  0  0  0  0  0  0  0  0  0  0  0
   18.7034   19.5496   21.2236 C   0  0  0  0  0  0  0  0  0  0  0  0
   18.2793   19.5326   22.2311 H   0  0  0  0  0  0  0  0  0  0  0  0
   18.0881   20.2126   20.6092 H   0  0  0  0  0  0  0  0  0  0  0  0
   20.1436   20.1020   21.2722 C   0  0  0  0  0  0  0  0  0  0  0  0
   20.6580   19.8937   20.3247 H   0  0  0  0  0  0  0  0  0  0  0  0
   20.0803   21.1958   21.3463 H   0  0  0  0  0  0  0  0  0  0  0  0
   20.9878   19.5914   22.4677 C   0  0  0  0  0  0  0  0  0  0  0  0
   20.4935   19.8618   23.4114 H   0  0  0  0  0  0  0  0  0  0  0  0
   21.9492   20.1240   22.4649 H   0  0  0  0  0  0  0  0  0  0  0  0
   21.2672   18.0714   22.4497 C   0  0  0  0  0  0  0  0  0  0  0  0
   20.3601   17.4930   22.6599 H   0  0  0  0  0  0  0  0  0  0  0  0
   22.0019   17.8104   23.2226 H   0  0  0  0  0  0  0  0  0  0  0  0
   21.6749   17.7525   21.4816 H   0  0  0  0  0  0  0  0  0  0  0  0
  1  2  1  0  0  0  0
  1  3  1  0  0  0  0
  1  4  1  0  0  0  0
  1  5  1  0  0  0  0
  5  6  1  0  0  0  0
  5  7  1  0  0  0  0
  5  8  1  0  0  0  0
  8  9  1  0  0  0  0
  8 10  1  0  0  0  0
  8 11  1  0  0  0  0
 11 12  1  0  0  0  0
 11 13  1  0  0  0  0
 11 14  1  0  0  0  0
 14 15  1  0  0  0  0
 14 16  1  0  0  0  0
 14 17  1  0  0  0  0
M  END
> <VConfSearch Rank>
645

> <Conf_Id>
19

> <Delta U+W>
2.662

> <U+W>
-13.203

> <U>
47.423

> <W>
-60.626

> <W(PB)>
-62.328

> <W(SA)>
1.702

> <Valence>
2.414

> <Coulomb>
44.831

> <VdW>
0.178

> <VdW6>
-3.743

> <VdW12>
3.921

> <Bond>
0.138

> <Angle>
0.941

> <Pdih>
1.335

> <Idih>
0.000

> <Tether>
0.000

$$$$
VeraChem MOL file


 17 16  0  0  0  0  0  0  0  0999 V2000     
   18.4300   20.1003   21.0787 N   0  3  0  0  0  0  0  0  0  0  0  0
   17.8798   20.9477   21.2521 H   0  0  0  0  0  0  0  0  0  0  0  0
   17.8935   19.5272   20.4205 H   0  0  0  0  0  0  0  0  0  0  0  0
   19.2858   20.3891   20.5980 H   0  0  0  0  0  0  0  0  0  0  0  0
   18.7317   19.3510   22.3623 C   0  0  0  0  0  0  0  0  0  0  0  0
   17.7707   19.0797   22.8076 H   0  0  0  0  0  0  0  0  0  0  0  0
   19.2429   20.0302   23.0499 H   0  0  0  0  0  0  0  0  0  0  0  0
   19.5744   18.0729   22.1677 C   0  0  0  0  0  0  0  0  0  0  0  0
   19.4139   17.4295   23.0430 H   0  0  0  0  0  0  0  0  0  0  0  0
   19.2022   17.5054   21.3045 H   0  0  0  0  0  0  0  0  0  0  0  0
   21.0983   18.3222   22.0326 C   0  0  0  0  0  0  0  0  0  0  0  0
   21.6072   17.3483   22.0057 H   0  0  0  0  0  0  0  0  0  0  0  0
   21.4701   18.8344   22.9312 H   0  0  0  0  0  0  0  0  0  0  0  0
   21.5056   19.1251   20.7764 C   0  0  0  0  0  0  0  0  0  0  0  0
   21.0692   18.6914   19.8672 H   0  0  0  0  0  0  0  0  0  0  0  0
   22.5970   19.1183   20.6577 H   0  0  0  0  0  0  0  0  0  0  0  0
   21.1968   20.1742   20.8518 H   0  0  0  0  0  0  0  0  0  0  0  0
  1  2  1  0  0  0  0
  1  3  1  0  0  0  0
  1  4  1  0  0  0  0
  1  5  1  0  0  0  0
  5  6  1  0  0  0  0
  5  7  1  0  0  0  0
  5  8  1  0  0  0  0
  8  9  1  0  0  0  0
  8 10  1  0  0  0  0
  8 11  1  0  0  0  0
 11 12  1  0  0  0  0
 11 13  1  0  0  0  0
 11 14  1  0  0  0  0
 14 15  1  0  0  0  0
 14 16  1  0  0  0  0
 14 17  1  0  0  0  0
M  END
> <VConfSearch Rank>
646

> <Conf_Id>
44

> <Delta U+W>
2.712

> <U+W>
-13.153

> <U>
47.423

> <W>
-60.576

> <W(PB)>
-62.262

> <W(SA)>
1.687

> <Valence>
2.414

> <Coulomb>
44.831

> <VdW>
0.178

> <VdW6>
-3.743

> <VdW12>
3.922

> <Bond>
0.138

> <Angle>
0.941

> <Pdih>
1.335

> <Idih>
0.000

> <Tether>
0.000

$$$$
VeraChem MOL file


 17 16  0  0  0  0  0  0  0  0999 V2000     
   20.9121   20.3629   20.5012 N   0  3  0  0  0  0  0  0  0  0  0  0
   19.9142   20.5482   20.3662 H   0  0  0  0  0  0  0  0  0  0  0  0
   21.2625   19.9452   19.6340 H   0  0  0  0  0  0  0  0  0  0  0  0
   21.3744   21.2723   20.6015 H   0  0  0  0  0  0  0  0  0  0  0  0
   21.1604   19.4687   21.7006 C   0  0  0  0  0  0  0  0  0  0  0  0
   20.7913   19.9846   22.5908 H   0  0  0  0  0  0  0  0  0  0  0  0
   22.2417   19.3452   21.8057 H   0  0  0  0  0  0  0  0  0  0  0  0
   20.4961   18.0807   21.5907 C   0  0  0  0  0  0  0  0  0  0  0  0
   20.9030   17.5546   20.7170 H   0  0  0  0  0  0  0  0  0  0  0  0
   20.7818   17.4842   22.4672 H   0  0  0  0  0  0  0  0  0  0  0  0
   18.9511   18.1280   21.4886 C   0  0  0  0  0  0  0  0  0  0  0  0
   18.5708   17.1007   21.4000 H   0  0  0  0  0  0  0  0  0  0  0  0
   18.6492   18.6434   20.5667 H   0  0  0  0  0  0  0  0  0  0  0  0
   18.2843   18.8070   22.7069 C   0  0  0  0  0  0  0  0  0  0  0  0
   18.5703   18.3083   23.6420 H   0  0  0  0  0  0  0  0  0  0  0  0
   17.1908   18.7597   22.6233 H   0  0  0  0  0  0  0  0  0  0  0  0
   18.5647   19.8650   22.7833 H   0  0  0  0  0  0  0  0  0  0  0  0
  1  2  1  0  0  0  0
  1  3  1  0  0  0  0
  1  4  1  0  0  0  0
  1  5  1  0  0  0  0
  5  6  1  0  0  0  0
  5  7  1  0  0  0  0
  5  8  1  0  0  0  0
  8  9  1  0  0  0  0
  8 10  1  0  0  0  0
  8 11  1  0  0  0  0
 11 12  1  0  0  0  0
 11 13  1  0  0  0  0
 11 14  1  0  0  0  0
 14 15  1  0  0  0  0
 14 16  1  0  0  0  0
 14 17  1  0  0  0  0
M  END
> <VConfSearch Rank>
647

> <Conf_Id>
1

> <Delta U+W>
0.685

> <U+W>
-15.179

> <U>
45.697

> <W>
-60.876

> <W(PB)>
-62.586

> <W(SA)>
1.710

> <Valence>
1.263

> <Coulomb>
44.179

> <VdW>
0.255

> <VdW6>
-3.552

> <VdW12>
3.807

> <Bond>
0.125

> <Angle>
0.616

> <Pdih>
0.521

> <Idih>
0.000

> <Tether>
0.000

$$$$
VeraChem MOL file


 17 16  0  0  0  0  0  0  0  0999 V2000     
   18.0872   19.7155   21.2901 N   0  3  0  0  0  0  0  0  0  0  0  0
   17.6741   20.0855   22.1514 H   0  0  0  0  0  0  0  0  0  0  0  0
   18.0237   18.6947   21.3381 H   0  0  0  0  0  0  0  0  0  0  0  0
   17.4846   20.0168   20.5177 H   0  0  0  0  0  0  0  0  0  0  0  0
   19.5184   20.1812   21.1037 C   0  0  0  0  0  0  0  0  0  0  0  0
   19.5060   21.2715   21.0233 H   0  0  0  0  0  0  0  0  0  0  0  0
   19.8863   19.7769   20.1571 H   0  0  0  0  0  0  0  0  0  0  0  0
   20.4633   19.7642   22.2497 C   0  0  0  0  0  0  0  0  0  0  0  0
   21.4549   20.1970   22.0623 H   0  0  0  0  0  0  0  0  0  0  0  0
   20.1084   20.2085   23.1890 H   0  0  0  0  0  0  0  0  0  0  0  0
   20.6016   18.2315   22.4261 C   0  0  0  0  0  0  0  0  0  0  0  0
   19.6331   17.7945   22.7049 H   0  0  0  0  0  0  0  0  0  0  0  0
   21.2781   18.0320   23.2690 H   0  0  0  0  0  0  0  0  0  0  0  0
   21.1483   17.5238   21.1651 C   0  0  0  0  0  0  0  0  0  0  0  0
   21.2915   16.4524   21.3565 H   0  0  0  0  0  0  0  0  0  0  0  0
   22.1180   17.9429   20.8665 H   0  0  0  0  0  0  0  0  0  0  0  0
   20.4584   17.6191   20.3172 H   0  0  0  0  0  0  0  0  0  0  0  0
  1  2  1  0  0  0  0
  1  3  1  0  0  0  0
  1  4  1  0  0  0  0
  1  5  1  0  0  0  0
  5  6  1  0  0  0  0
  5  7  1  0  0  0  0
  5  8  1  0  0  0  0
  8  9  1  0  0  0  0
  8 10  1  0  0  0  0
  8 11  1  0  0  0  0
 11 12  1  0  0  0  0
 11 13  1  0  0  0  0
 11 14  1  0  0  0  0
 14 15  1  0  0  0  0
 14 16  1  0  0  0  0
 14 17  1  0  0  0  0
M  END
> <VConfSearch Rank>
648

> <Conf_Id>
43

> <Delta U+W>
0.642

> <U+W>
-15.222

> <U>
45.697

> <W>
-60.919

> <W(PB)>
-62.631

> <W(SA)>
1.712

> <Valence>
1.262

> <Coulomb>
44.179

> <VdW>
0.255

> <VdW6>
-3.552

> <VdW12>
3.807

> <Bond>
0.125

> <Angle>
0.616

> <Pdih>
0.521

> <Idih>
0.000

> <Tether>
0.000

$$$$
VeraChem MOL file


 17 16  0  0  0  0  0  0  0  0999 V2000     
   22.1381   17.9324   22.3470 N   0  3  0  0  0  0  0  0  0  0  0  0
   22.1644   18.3099   23.2991 H   0  0  0  0  0  0  0  0  0  0  0  0
   22.7792   18.4973   21.7817 H   0  0  0  0  0  0  0  0  0  0  0  0
   22.5355   16.9885   22.3915 H   0  0  0  0  0  0  0  0  0  0  0  0
   20.7336   17.9262   21.7772 C   0  0  0  0  0  0  0  0  0  0  0  0
   20.1155   17.2831   22.4096 H   0  0  0  0  0  0  0  0  0  0  0  0
   20.7766   17.4845   20.7779 H   0  0  0  0  0  0  0  0  0  0  0  0
   20.1056   19.3295   21.6960 C   0  0  0  0  0  0  0  0  0  0  0  0
   20.0782   19.7761   22.6989 H   0  0  0  0  0  0  0  0  0  0  0  0
   20.7369   19.9768   21.0727 H   0  0  0  0  0  0  0  0  0  0  0  0
   18.6771   19.2784   21.1110 C   0  0  0  0  0  0  0  0  0  0  0  0
   18.0455   18.6280   21.7326 H   0  0  0  0  0  0  0  0  0  0  0  0
   18.7034   18.8285   20.1084 H   0  0  0  0  0  0  0  0  0  0  0  0
   18.0406   20.6826   21.0266 C   0  0  0  0  0  0  0  0  0  0  0  0
   17.0271   20.6246   20.6089 H   0  0  0  0  0  0  0  0  0  0  0  0
   18.6321   21.3467   20.3828 H   0  0  0  0  0  0  0  0  0  0  0  0
   17.9690   21.1446   22.0198 H   0  0  0  0  0  0  0  0  0  0  0  0
  1  2  1  0  0  0  0
  1  3  1  0  0  0  0
  1  4  1  0  0  0  0
  1  5  1  0  0  0  0
  5  6  1  0  0  0  0
  5  7  1  0  0  0  0
  5  8  1  0  0  0  0
  8  9  1  0  0  0  0
  8 10  1  0  0  0  0
  8 11  1  0  0  0  0
 11 12  1  0  0  0  0
 11 13  1  0  0  0  0
 11 14  1  0  0  0  0
 14 15  1  0  0  0  0
 14 16  1  0  0  0  0
 14 17  1  0  0  0  0
M  END
> <VConfSearch Rank>
649

> <Conf_Id>
7

> <Delta U+W>
0.000

> <U+W>
-15.865

> <U>
44.664

> <W>
-60.529

> <W(PB)>
-62.309

> <W(SA)>
1.780

> <Valence>
0.872

> <Coulomb>
43.648

> <VdW>
0.144

> <VdW6>
-2.370

> <VdW12>
2.515

> <Bond>
0.080

> <Angle>
0.376

> <Pdih>
0.416

> <Idih>
0.000

> <Tether>
0.000

$$$$
VeraChem MOL file


 17 16  0  0  0  0  0  0  0  0999 V2000     
   22.0427   18.3327   20.7399 N   0  3  0  0  0  0  0  0  0  0  0  0
   21.8672   17.7879   19.8902 H   0  0  0  0  0  0  0  0  0  0  0  0
   22.2711   17.6656   21.4831 H   0  0  0  0  0  0  0  0  0  0  0  0
   22.8886   18.8856   20.5677 H   0  0  0  0  0  0  0  0  0  0  0  0
   20.8616   19.2089   21.1067 C   0  0  0  0  0  0  0  0  0  0  0  0
   20.6947   19.9121   20.2863 H   0  0  0  0  0  0  0  0  0  0  0  0
   21.1316   19.7804   21.9986 H   0  0  0  0  0  0  0  0  0  0  0  0
   19.5721   18.4087   21.3728 C   0  0  0  0  0  0  0  0  0  0  0  0
   19.3320   17.8078   20.4856 H   0  0  0  0  0  0  0  0  0  0  0  0
   19.7402   17.7013   22.1957 H   0  0  0  0  0  0  0  0  0  0  0  0
   18.3653   19.3163   21.7076 C   0  0  0  0  0  0  0  0  0  0  0  0
   17.4659   18.6923   21.8060 H   0  0  0  0  0  0  0  0  0  0  0  0
   18.1748   20.0028   20.8705 H   0  0  0  0  0  0  0  0  0  0  0  0
   18.5615   20.1267   23.0093 C   0  0  0  0  0  0  0  0  0  0  0  0
   18.7598   19.4636   23.8615 H   0  0  0  0  0  0  0  0  0  0  0  0
   17.6595   20.7081   23.2404 H   0  0  0  0  0  0  0  0  0  0  0  0
   19.3969   20.8330   22.9229 H   0  0  0  0  0  0  0  0  0  0  0  0
  1  2  1  0  0  0  0
  1  3  1  0  0  0  0
  1  4  1  0  0  0  0
  1  5  1  0  0  0  0
  5  6  1  0  0  0  0
  5  7  1  0  0  0  0
  5  8  1  0  0  0  0
  8  9  1  0  0  0  0
  8 10  1  0  0  0  0
  8 11  1  0  0  0  0
 11 12  1  0  0  0  0
 11 13  1  0  0  0  0
 11 14  1  0  0  0  0
 14 15  1  0  0  0  0
 14 16  1  0  0  0  0
 14 17  1  0  0  0  0
M  END
> <VConfSearch Rank>
650

> <Conf_Id>
36

> <Delta U+W>
0.275

> <U+W>
-15.590

> <U>
45.174

> <W>
-60.765

> <W(PB)>
-62.518

> <W(SA)>
1.754

> <Valence>
1.161

> <Coulomb>
43.789

> <VdW>
0.224

> <VdW6>
-2.897

> <VdW12>
3.121

> <Bond>
0.100

> <Angle>
0.500

> <Pdih>
0.561

> <Idih>
0.000

> <Tether>
0.000

$$$$
VeraChem MOL file


 17 16  0  0  0  0  0  0  0  0999 V2000     
   20.8302   20.4515   22.3198 N   0  3  0  0  0  0  0  0  0  0  0  0
   21.0077   19.6043   22.8652 H   0  0  0  0  0  0  0  0  0  0  0  0
   20.1232   20.9931   22.8260 H   0  0  0  0  0  0  0  0  0  0  0  0
   21.6930   21.0050   22.3312 H   0  0  0  0  0  0  0  0  0  0  0  0
   20.3865   20.1275   20.9062 C   0  0  0  0  0  0  0  0  0  0  0  0
   21.2034   19.6115   20.3946 H   0  0  0  0  0  0  0  0  0  0  0  0
   20.2179   21.0806   20.3976 H   0  0  0  0  0  0  0  0  0  0  0  0
   19.1000   19.2792   20.8238 C   0  0  0  0  0  0  0  0  0  0  0  0
   18.3532   19.6595   21.5334 H   0  0  0  0  0  0  0  0  0  0  0  0
   18.6671   19.4236   19.8250 H   0  0  0  0  0  0  0  0  0  0  0  0
   19.3179   17.7590   21.0335 C   0  0  0  0  0  0  0  0  0  0  0  0
   20.0189   17.3783   20.2774 H   0  0  0  0  0  0  0  0  0  0  0  0
   18.3643   17.2442   20.8502 H   0  0  0  0  0  0  0  0  0  0  0  0
   19.8220   17.3741   22.4431 C   0  0  0  0  0  0  0  0  0  0  0  0
   20.8604   17.6888   22.5988 H   0  0  0  0  0  0  0  0  0  0  0  0
   19.7925   16.2845   22.5733 H   0  0  0  0  0  0  0  0  0  0  0  0
   19.1950   17.8200   23.2261 H   0  0  0  0  0  0  0  0  0  0  0  0
  1  2  1  0  0  0  0
  1  3  1  0  0  0  0
  1  4  1  0  0  0  0
  1  5  1  0  0  0  0
  5  6  1  0  0  0  0
  5  7  1  0  0  0  0
  5  8  1  0  0  0  0
  8  9  1  0  0  0  0
  8 10  1  0  0  0  0
  8 11  1  0  0  0  0
 11 12  1  0  0  0  0
 11 13  1  0  0  0  0
 11 14  1  0  0  0  0
 14 15  1  0  0  0  0
 14 16  1  0  0  0  0
 14 17  1  0  0  0  0
M  END
> <VConfSearch Rank>
651

> <Conf_Id>
19

> <Delta U+W>
2.662

> <U+W>
-13.203

> <U>
47.423

> <W>
-60.626

> <W(PB)>
-62.328

> <W(SA)>
1.702

> <Valence>
2.414

> <Coulomb>
44.831

> <VdW>
0.178

> <VdW6>
-3.743

> <VdW12>
3.921

> <Bond>
0.138

> <Angle>
0.941

> <Pdih>
1.335

> <Idih>
0.000

> <Tether>
0.000

$$$$
VeraChem MOL file


 17 16  0  0  0  0  0  0  0  0999 V2000     
   20.3917   20.4712   22.6990 N   0  3  0  0  0  0  0  0  0  0  0  0
   20.0817   21.2428   23.2984 H   0  0  0  0  0  0  0  0  0  0  0  0
   21.3971   20.5975   22.5483 H   0  0  0  0  0  0  0  0  0  0  0  0
   20.2738   19.6071   23.2340 H   0  0  0  0  0  0  0  0  0  0  0  0
   19.6264   20.4310   21.3903 C   0  0  0  0  0  0  0  0  0  0  0  0
   19.8069   21.3836   20.8848 H   0  0  0  0  0  0  0  0  0  0  0  0
   18.5582   20.3643   21.6136 H   0  0  0  0  0  0  0  0  0  0  0  0
   20.0366   19.2776   20.4506 C   0  0  0  0  0  0  0  0  0  0  0  0
   19.7292   19.5499   19.4322 H   0  0  0  0  0  0  0  0  0  0  0  0
   21.1306   19.1882   20.4211 H   0  0  0  0  0  0  0  0  0  0  0  0
   19.3929   17.9097   20.7930 C   0  0  0  0  0  0  0  0  0  0  0  0
   19.6663   17.1921   20.0066 H   0  0  0  0  0  0  0  0  0  0  0  0
   18.2978   17.9972   20.7569 H   0  0  0  0  0  0  0  0  0  0  0  0
   19.8183   17.3275   22.1601 C   0  0  0  0  0  0  0  0  0  0  0  0
   20.9109   17.3152   22.2655 H   0  0  0  0  0  0  0  0  0  0  0  0
   19.4624   16.2939   22.2608 H   0  0  0  0  0  0  0  0  0  0  0  0
   19.3886   17.8982   22.9916 H   0  0  0  0  0  0  0  0  0  0  0  0
  1  2  1  0  0  0  0
  1  3  1  0  0  0  0
  1  4  1  0  0  0  0
  1  5  1  0  0  0  0
  5  6  1  0  0  0  0
  5  7  1  0  0  0  0
  5  8  1  0  0  0  0
  8  9  1  0  0  0  0
  8 10  1  0  0  0  0
  8 11  1  0  0  0  0
 11 12  1  0  0  0  0
 11 13  1  0  0  0  0
 11 14  1  0  0  0  0
 14 15  1  0  0  0  0
 14 16  1  0  0  0  0
 14 17  1  0  0  0  0
M  END
> <VConfSearch Rank>
652

> <Conf_Id>
44

> <Delta U+W>
2.712

> <U+W>
-13.153

> <U>
47.423

> <W>
-60.576

> <W(PB)>
-62.262

> <W(SA)>
1.687

> <Valence>
2.414

> <Coulomb>
44.831

> <VdW>
0.178

> <VdW6>
-3.743

> <VdW12>
3.922

> <Bond>
0.138

> <Angle>
0.941

> <Pdih>
1.335

> <Idih>
0.000

> <Tether>
0.000

$$$$
VeraChem MOL file


 17 16  0  0  0  0  0  0  0  0999 V2000     
   18.3560   20.2636   21.5393 N   0  3  0  0  0  0  0  0  0  0  0  0
   17.9888   19.3080   21.5608 H   0  0  0  0  0  0  0  0  0  0  0  0
   18.1991   20.6272   20.5946 H   0  0  0  0  0  0  0  0  0  0  0  0
   17.7752   20.8216   22.1732 H   0  0  0  0  0  0  0  0  0  0  0  0
   19.8212   20.3113   21.9278 C   0  0  0  0  0  0  0  0  0  0  0  0
   19.9132   19.9391   22.9514 H   0  0  0  0  0  0  0  0  0  0  0  0
   20.1338   21.3590   21.9199 H   0  0  0  0  0  0  0  0  0  0  0  0
   20.7400   19.4970   20.9936 C   0  0  0  0  0  0  0  0  0  0  0  0
   20.6714   19.9042   19.9761 H   0  0  0  0  0  0  0  0  0  0  0  0
   21.7811   19.6419   21.3112 H   0  0  0  0  0  0  0  0  0  0  0  0
   20.4232   17.9810   20.9630 C   0  0  0  0  0  0  0  0  0  0  0  0
   21.1145   17.4892   20.2643 H   0  0  0  0  0  0  0  0  0  0  0  0
   19.4152   17.8140   20.5598 H   0  0  0  0  0  0  0  0  0  0  0  0
   20.5475   17.3084   22.3493 C   0  0  0  0  0  0  0  0  0  0  0  0
   21.5484   17.4607   22.7735 H   0  0  0  0  0  0  0  0  0  0  0  0
   20.3792   16.2267   22.2689 H   0  0  0  0  0  0  0  0  0  0  0  0
   19.8108   17.7060   23.0587 H   0  0  0  0  0  0  0  0  0  0  0  0
  1  2  1  0  0  0  0
  1  3  1  0  0  0  0
  1  4  1  0  0  0  0
  1  5  1  0  0  0  0
  5  6  1  0  0  0  0
  5  7  1  0  0  0  0
  5  8  1  0  0  0  0
  8  9  1  0  0  0  0
  8 10  1  0  0  0  0
  8 11  1  0  0  0  0
 11 12  1  0  0  0  0
 11 13  1  0  0  0  0
 11 14  1  0  0  0  0
 14 15  1  0  0  0  0
 14 16  1  0  0  0  0
 14 17  1  0  0  0  0
M  END
> <VConfSearch Rank>
653

> <Conf_Id>
1

> <Delta U+W>
0.685

> <U+W>
-15.179

> <U>
45.697

> <W>
-60.876

> <W(PB)>
-62.586

> <W(SA)>
1.710

> <Valence>
1.263

> <Coulomb>
44.179

> <VdW>
0.255

> <VdW6>
-3.552

> <VdW12>
3.807

> <Bond>
0.125

> <Angle>
0.616

> <Pdih>
0.521

> <Idih>
0.000

> <Tether>
0.000

$$$$
VeraChem MOL file


 17 16  0  0  0  0  0  0  0  0999 V2000     
   18.2151   19.2550   20.6150 N   0  3  0  0  0  0  0  0  0  0  0  0
   17.5882   18.4586   20.7635 H   0  0  0  0  0  0  0  0  0  0  0  0
   18.9194   18.9625   19.9317 H   0  0  0  0  0  0  0  0  0  0  0  0
   17.6584   19.9937   20.1733 H   0  0  0  0  0  0  0  0  0  0  0  0
   18.8497   19.7248   21.9098 C   0  0  0  0  0  0  0  0  0  0  0  0
   18.0462   20.0551   22.5737 H   0  0  0  0  0  0  0  0  0  0  0  0
   19.4792   20.5897   21.6851 H   0  0  0  0  0  0  0  0  0  0  0  0
   19.6876   18.6423   22.6212 C   0  0  0  0  0  0  0  0  0  0  0  0
   20.0514   19.0495   23.5739 H   0  0  0  0  0  0  0  0  0  0  0  0
   19.0380   17.7954   22.8791 H   0  0  0  0  0  0  0  0  0  0  0  0
   20.8925   18.1321   21.7921 C   0  0  0  0  0  0  0  0  0  0  0  0
   20.5390   17.6386   20.8766 H   0  0  0  0  0  0  0  0  0  0  0  0
   21.4175   17.3586   22.3701 H   0  0  0  0  0  0  0  0  0  0  0  0
   21.8936   19.2520   21.4266 C   0  0  0  0  0  0  0  0  0  0  0  0
   22.7609   18.8356   20.8980 H   0  0  0  0  0  0  0  0  0  0  0  0
   22.2628   19.7604   22.3267 H   0  0  0  0  0  0  0  0  0  0  0  0
   21.4367   20.0042   20.7714 H   0  0  0  0  0  0  0  0  0  0  0  0
  1  2  1  0  0  0  0
  1  3  1  0  0  0  0
  1  4  1  0  0  0  0
  1  5  1  0  0  0  0
  5  6  1  0  0  0  0
  5  7  1  0  0  0  0
  5  8  1  0  0  0  0
  8  9  1  0  0  0  0
  8 10  1  0  0  0  0
  8 11  1  0  0  0  0
 11 12  1  0  0  0  0
 11 13  1  0  0  0  0
 11 14  1  0  0  0  0
 14 15  1  0  0  0  0
 14 16  1  0  0  0  0
 14 17  1  0  0  0  0
M  END
> <VConfSearch Rank>
654

> <Conf_Id>
43

> <Delta U+W>
0.642

> <U+W>
-15.222

> <U>
45.697

> <W>
-60.919

> <W(PB)>
-62.631

> <W(SA)>
1.712

> <Valence>
1.262

> <Coulomb>
44.179

> <VdW>
0.255

> <VdW6>
-3.552

> <VdW12>
3.807

> <Bond>
0.125

> <Angle>
0.616

> <Pdih>
0.521

> <Idih>
0.000

> <Tether>
0.000

$$$$
VeraChem MOL file


 17 16  0  0  0  0  0  0  0  0999 V2000     
   19.4492   16.6357   20.9329 N   0  3  0  0  0  0  0  0  0  0  0  0
   20.1330   16.1828   21.5469 H   0  0  0  0  0  0  0  0  0  0  0  0
   19.8616   16.6678   19.9956 H   0  0  0  0  0  0  0  0  0  0  0  0
   18.6393   16.0096   20.8788 H   0  0  0  0  0  0  0  0  0  0  0  0
   19.0636   18.0142   21.4313 C   0  0  0  0  0  0  0  0  0  0  0  0
   18.6046   17.9005   22.4172 H   0  0  0  0  0  0  0  0  0  0  0  0
   18.3128   18.4220   20.7490 H   0  0  0  0  0  0  0  0  0  0  0  0
   20.2576   18.9815   21.5248 C   0  0  0  0  0  0  0  0  0  0  0  0
   21.0162   18.5614   22.1987 H   0  0  0  0  0  0  0  0  0  0  0  0
   20.7253   19.0812   20.5362 H   0  0  0  0  0  0  0  0  0  0  0  0
   19.8218   20.3723   22.0360 C   0  0  0  0  0  0  0  0  0  0  0  0
   19.3506   20.2727   23.0241 H   0  0  0  0  0  0  0  0  0  0  0  0
   19.0602   20.7919   21.3636 H   0  0  0  0  0  0  0  0  0  0  0  0
   21.0145   21.3481   22.1325 C   0  0  0  0  0  0  0  0  0  0  0  0
   20.6842   22.3294   22.4972 H   0  0  0  0  0  0  0  0  0  0  0  0
   21.4855   21.4949   21.1518 H   0  0  0  0  0  0  0  0  0  0  0  0
   21.7783   20.9716   22.8253 H   0  0  0  0  0  0  0  0  0  0  0  0
  1  2  1  0  0  0  0
  1  3  1  0  0  0  0
  1  4  1  0  0  0  0
  1  5  1  0  0  0  0
  5  6  1  0  0  0  0
  5  7  1  0  0  0  0
  5  8  1  0  0  0  0
  8  9  1  0  0  0  0
  8 10  1  0  0  0  0
  8 11  1  0  0  0  0
 11 12  1  0  0  0  0
 11 13  1  0  0  0  0
 11 14  1  0  0  0  0
 14 15  1  0  0  0  0
 14 16  1  0  0  0  0
 14 17  1  0  0  0  0
M  END
> <VConfSearch Rank>
655

> <Conf_Id>
7

> <Delta U+W>
0.000

> <U+W>
-15.865

> <U>
44.664

> <W>
-60.529

> <W(PB)>
-62.309

> <W(SA)>
1.780

> <Valence>
0.872

> <Coulomb>
43.648

> <VdW>
0.144

> <VdW6>
-2.370

> <VdW12>
2.515

> <Bond>
0.080

> <Angle>
0.376

> <Pdih>
0.416

> <Idih>
0.000

> <Tether>
0.000

$$$$
VeraChem MOL file


 17 16  0  0  0  0  0  0  0  0999 V2000     
   21.0313   17.0358   21.0146 N   0  3  0  0  0  0  0  0  0  0  0  0
   21.8180   16.8843   21.6532 H   0  0  0  0  0  0  0  0  0  0  0  0
   21.4248   17.3453   20.1208 H   0  0  0  0  0  0  0  0  0  0  0  0
   20.6037   16.1190   20.8487 H   0  0  0  0  0  0  0  0  0  0  0  0
   20.0325   18.0313   21.5702 C   0  0  0  0  0  0  0  0  0  0  0  0
   19.6332   17.6246   22.5032 H   0  0  0  0  0  0  0  0  0  0  0  0
   19.2109   18.1178   20.8544 H   0  0  0  0  0  0  0  0  0  0  0  0
   20.6429   19.4217   21.8313 C   0  0  0  0  0  0  0  0  0  0  0  0
   21.4920   19.3184   22.5199 H   0  0  0  0  0  0  0  0  0  0  0  0
   21.0454   19.8296   20.8945 H   0  0  0  0  0  0  0  0  0  0  0  0
   19.6240   20.4167   22.4345 C   0  0  0  0  0  0  0  0  0  0  0  0
   20.1406   21.3578   22.6700 H   0  0  0  0  0  0  0  0  0  0  0  0
   19.2449   20.0254   23.3892 H   0  0  0  0  0  0  0  0  0  0  0  0
   18.4384   20.7156   21.4884 C   0  0  0  0  0  0  0  0  0  0  0  0
   18.7909   21.1028   20.5236 H   0  0  0  0  0  0  0  0  0  0  0  0
   17.7746   21.4703   21.9297 H   0  0  0  0  0  0  0  0  0  0  0  0
   17.8375   19.8173   21.2985 H   0  0  0  0  0  0  0  0  0  0  0  0
  1  2  1  0  0  0  0
  1  3  1  0  0  0  0
  1  4  1  0  0  0  0
  1  5  1  0  0  0  0
  5  6  1  0  0  0  0
  5  7  1  0  0  0  0
  5  8  1  0  0  0  0
  8  9  1  0  0  0  0
  8 10  1  0  0  0  0
  8 11  1  0  0  0  0
 11 12  1  0  0  0  0
 11 13  1  0  0  0  0
 11 14  1  0  0  0  0
 14 15  1  0  0  0  0
 14 16  1  0  0  0  0
 14 17  1  0  0  0  0
M  END
> <VConfSearch Rank>
656

> <Conf_Id>
36

> <Delta U+W>
0.275

> <U+W>
-15.590

> <U>
45.174

> <W>
-60.765

> <W(PB)>
-62.518

> <W(SA)>
1.754

> <Valence>
1.161

> <Coulomb>
43.789

> <VdW>
0.224

> <VdW6>
-2.897

> <VdW12>
3.121

> <Bond>
0.100

> <Angle>
0.500

> <Pdih>
0.561

> <Idih>
0.000

> <Tether>
0.000

$$$$
VeraChem MOL file


 17 16  0  0  0  0  0  0  0  0999 V2000     
   20.2528   17.7159   20.2825 N   0  3  0  0  0  0  0  0  0  0  0  0
   19.9998   17.2752   21.1705 H   0  0  0  0  0  0  0  0  0  0  0  0
   21.2710   17.6481   20.1917 H   0  0  0  0  0  0  0  0  0  0  0  0
   19.8489   17.1430   19.5345 H   0  0  0  0  0  0  0  0  0  0  0  0
   19.7753   19.1537   20.2122 C   0  0  0  0  0  0  0  0  0  0  0  0
   18.6826   19.1596   20.2452 H   0  0  0  0  0  0  0  0  0  0  0  0
   20.0861   19.5467   19.2404 H   0  0  0  0  0  0  0  0  0  0  0  0
   20.3364   20.0636   21.3253 C   0  0  0  0  0  0  0  0  0  0  0  0
   21.4094   19.8736   21.4605 H   0  0  0  0  0  0  0  0  0  0  0  0
   20.2558   21.1030   20.9805 H   0  0  0  0  0  0  0  0  0  0  0  0
   19.5941   19.9525   22.6815 C   0  0  0  0  0  0  0  0  0  0  0  0
   18.5336   20.2065   22.5443 H   0  0  0  0  0  0  0  0  0  0  0  0
   20.0027   20.7119   23.3628 H   0  0  0  0  0  0  0  0  0  0  0  0
   19.7085   18.5690   23.3611 C   0  0  0  0  0  0  0  0  0  0  0  0
   19.1334   17.8072   22.8222 H   0  0  0  0  0  0  0  0  0  0  0  0
   19.3081   18.6125   24.3824 H   0  0  0  0  0  0  0  0  0  0  0  0
   20.7546   18.2428   23.4275 H   0  0  0  0  0  0  0  0  0  0  0  0
  1  2  1  0  0  0  0
  1  3  1  0  0  0  0
  1  4  1  0  0  0  0
  1  5  1  0  0  0  0
  5  6  1  0  0  0  0
  5  7  1  0  0  0  0
  5  8  1  0  0  0  0
  8  9  1  0  0  0  0
  8 10  1  0  0  0  0
  8 11  1  0  0  0  0
 11 12  1  0  0  0  0
 11 13  1  0  0  0  0
 11 14  1  0  0  0  0
 14 15  1  0  0  0  0
 14 16  1  0  0  0  0
 14 17  1  0  0  0  0
M  END
> <VConfSearch Rank>
657

> <Conf_Id>
19

> <Delta U+W>
2.662

> <U+W>
-13.203

> <U>
47.423

> <W>
-60.626

> <W(PB)>
-62.328

> <W(SA)>
1.702

> <Valence>
2.414

> <Coulomb>
44.831

> <VdW>
0.178

> <VdW6>
-3.743

> <VdW12>
3.921

> <Bond>
0.138

> <Angle>
0.941

> <Pdih>
1.335

> <Idih>
0.000

> <Tether>
0.000

$$$$
VeraChem MOL file


 17 16  0  0  0  0  0  0  0  0999 V2000     
   20.3011   18.2927   23.2396 N   0  3  0  0  0  0  0  0  0  0  0  0
   20.9143   18.3137   24.0607 H   0  0  0  0  0  0  0  0  0  0  0  0
   19.7763   17.4139   23.2832 H   0  0  0  0  0  0  0  0  0  0  0  0
   19.6248   19.0527   23.3483 H   0  0  0  0  0  0  0  0  0  0  0  0
   21.0844   18.4178   21.9470 C   0  0  0  0  0  0  0  0  0  0  0  0
   21.7767   17.5723   21.9096 H   0  0  0  0  0  0  0  0  0  0  0  0
   21.6754   19.3368   21.9857 H   0  0  0  0  0  0  0  0  0  0  0  0
   20.2127   18.4105   20.6736 C   0  0  0  0  0  0  0  0  0  0  0  0
   20.8545   18.1234   19.8301 H   0  0  0  0  0  0  0  0  0  0  0  0
   19.4455   17.6285   20.7481 H   0  0  0  0  0  0  0  0  0  0  0  0
   19.5605   19.7750   20.3334 C   0  0  0  0  0  0  0  0  0  0  0  0
   19.0551   19.6841   19.3617 H   0  0  0  0  0  0  0  0  0  0  0  0
   20.3428   20.5352   20.1990 H   0  0  0  0  0  0  0  0  0  0  0  0
   18.5345   20.2709   21.3775 C   0  0  0  0  0  0  0  0  0  0  0  0
   17.7912   19.4957   21.6053 H   0  0  0  0  0  0  0  0  0  0  0  0
   17.9951   21.1470   20.9945 H   0  0  0  0  0  0  0  0  0  0  0  0
   19.0243   20.5767   22.3093 H   0  0  0  0  0  0  0  0  0  0  0  0
  1  2  1  0  0  0  0
  1  3  1  0  0  0  0
  1  4  1  0  0  0  0
  1  5  1  0  0  0  0
  5  6  1  0  0  0  0
  5  7  1  0  0  0  0
  5  8  1  0  0  0  0
  8  9  1  0  0  0  0
  8 10  1  0  0  0  0
  8 11  1  0  0  0  0
 11 12  1  0  0  0  0
 11 13  1  0  0  0  0
 11 14  1  0  0  0  0
 14 15  1  0  0  0  0
 14 16  1  0  0  0  0
 14 17  1  0  0  0  0
M  END
> <VConfSearch Rank>
658

> <Conf_Id>
44

> <Delta U+W>
2.712

> <U+W>
-13.153

> <U>
47.423

> <W>
-60.576

> <W(PB)>
-62.262

> <W(SA)>
1.687

> <Valence>
2.414

> <Coulomb>
44.831

> <VdW>
0.178

> <VdW6>
-3.743

> <VdW12>
3.922

> <Bond>
0.138

> <Angle>
0.941

> <Pdih>
1.335

> <Idih>
0.000

> <Tether>
0.000

$$$$
VeraChem MOL file


 17 16  0  0  0  0  0  0  0  0999 V2000     
   18.0799   18.4790   21.0980 N   0  3  0  0  0  0  0  0  0  0  0  0
   18.7285   17.9105   20.5462 H   0  0  0  0  0  0  0  0  0  0  0  0
   17.6442   19.1492   20.4574 H   0  0  0  0  0  0  0  0  0  0  0  0
   17.3367   17.8532   21.4246 H   0  0  0  0  0  0  0  0  0  0  0  0
   18.7809   19.1717   22.2507 C   0  0  0  0  0  0  0  0  0  0  0  0
   19.1955   18.4026   22.9074 H   0  0  0  0  0  0  0  0  0  0  0  0
   18.0260   19.7264   22.8145 H   0  0  0  0  0  0  0  0  0  0  0  0
   19.9001   20.1373   21.8091 C   0  0  0  0  0  0  0  0  0  0  0  0
   19.4671   20.9290   21.1834 H   0  0  0  0  0  0  0  0  0  0  0  0
   20.3038   20.6377   22.6993 H   0  0  0  0  0  0  0  0  0  0  0  0
   21.0577   19.4511   21.0417 C   0  0  0  0  0  0  0  0  0  0  0  0
   21.7951   20.2147   20.7572 H   0  0  0  0  0  0  0  0  0  0  0  0
   20.6858   19.0236   20.1007 H   0  0  0  0  0  0  0  0  0  0  0  0
   21.7653   18.3532   21.8686 C   0  0  0  0  0  0  0  0  0  0  0  0
   22.1474   18.7568   22.8152 H   0  0  0  0  0  0  0  0  0  0  0  0
   22.6172   17.9412   21.3123 H   0  0  0  0  0  0  0  0  0  0  0  0
   21.0876   17.5216   22.0995 H   0  0  0  0  0  0  0  0  0  0  0  0
  1  2  1  0  0  0  0
  1  3  1  0  0  0  0
  1  4  1  0  0  0  0
  1  5  1  0  0  0  0
  5  6  1  0  0  0  0
  5  7  1  0  0  0  0
  5  8  1  0  0  0  0
  8  9  1  0  0  0  0
  8 10  1  0  0  0  0
  8 11  1  0  0  0  0
 11 12  1  0  0  0  0
 11 13  1  0  0  0  0
 11 14  1  0  0  0  0
 14 15  1  0  0  0  0
 14 16  1  0  0  0  0
 14 17  1  0  0  0  0
M  END
> <VConfSearch Rank>
659

> <Conf_Id>
1

> <Delta U+W>
0.685

> <U+W>
-15.179

> <U>
45.697

> <W>
-60.876

> <W(PB)>
-62.586

> <W(SA)>
1.710

> <Valence>
1.263

> <Coulomb>
44.179

> <VdW>
0.255

> <VdW6>
-3.552

> <VdW12>
3.807

> <Bond>
0.125

> <Angle>
0.616

> <Pdih>
0.521

> <Idih>
0.000

> <Tether>
0.000

$$$$
VeraChem MOL file


 17 16  0  0  0  0  0  0  0  0999 V2000     
   19.8206   21.0116   21.6830 N   0  3  0  0  0  0  0  0  0  0  0  0
   19.4088   21.4027   20.8305 H   0  0  0  0  0  0  0  0  0  0  0  0
   20.7920   20.7706   21.4669 H   0  0  0  0  0  0  0  0  0  0  0  0
   19.8468   21.7676   22.3747 H   0  0  0  0  0  0  0  0  0  0  0  0
   19.0430   19.8116   22.1881 C   0  0  0  0  0  0  0  0  0  0  0  0
   18.0322   20.1490   22.4331 H   0  0  0  0  0  0  0  0  0  0  0  0
   19.5159   19.4643   23.1103 H   0  0  0  0  0  0  0  0  0  0  0  0
   18.9624   18.6506   21.1754 C   0  0  0  0  0  0  0  0  0  0  0  0
   18.3311   17.8583   21.5989 H   0  0  0  0  0  0  0  0  0  0  0  0
   18.4496   18.9981   20.2687 H   0  0  0  0  0  0  0  0  0  0  0  0
   20.3391   18.0537   20.7905 C   0  0  0  0  0  0  0  0  0  0  0  0
   20.9501   18.8113   20.2814 H   0  0  0  0  0  0  0  0  0  0  0  0
   20.1834   17.2483   20.0591 H   0  0  0  0  0  0  0  0  0  0  0  0
   21.1141   17.4882   22.0027 C   0  0  0  0  0  0  0  0  0  0  0  0
   22.0507   17.0184   21.6757 H   0  0  0  0  0  0  0  0  0  0  0  0
   20.5235   16.7268   22.5284 H   0  0  0  0  0  0  0  0  0  0  0  0
   21.3727   18.2769   22.7204 H   0  0  0  0  0  0  0  0  0  0  0  0
  1  2  1  0  0  0  0
  1  3  1  0  0  0  0
  1  4  1  0  0  0  0
  1  5  1  0  0  0  0
  5  6  1  0  0  0  0
  5  7  1  0  0  0  0
  5  8  1  0  0  0  0
  8  9  1  0  0  0  0
  8 10  1  0  0  0  0
  8 11  1  0  0  0  0
 11 12  1  0  0  0  0
 11 13  1  0  0  0  0
 11 14  1  0  0  0  0
 14 15  1  0  0  0  0
 14 16  1  0  0  0  0
 14 17  1  0  0  0  0
M  END
> <VConfSearch Rank>
660

> <Conf_Id>
43

> <Delta U+W>
0.642

> <U+W>
-15.222

> <U>
45.697

> <W>
-60.919

> <W(PB)>
-62.631

> <W(SA)>
1.712

> <Valence>
1.262

> <Coulomb>
44.179

> <VdW>
0.255

> <VdW6>
-3.552

> <VdW12>
3.807

> <Bond>
0.125

> <Angle>
0.616

> <Pdih>
0.521

> <Idih>
0.000

> <Tether>
0.000

$$$$
VeraChem MOL file


 17 16  0  0  0  0  0  0  0  0999 V2000     
   18.3135   20.3318   20.0945 N   0  3  0  0  0  0  0  0  0  0  0  0
   18.5655   21.2791   20.3926 H   0  0  0  0  0  0  0  0  0  0  0  0
   17.4542   20.0787   20.5916 H   0  0  0  0  0  0  0  0  0  0  0  0
   18.0743   20.3883   19.0992 H   0  0  0  0  0  0  0  0  0  0  0  0
   19.4307   19.3400   20.3502 C   0  0  0  0  0  0  0  0  0  0  0  0
   20.3009   19.6540   19.7674 H   0  0  0  0  0  0  0  0  0  0  0  0
   19.1059   18.3632   19.9814 H   0  0  0  0  0  0  0  0  0  0  0  0
   19.8159   19.2299   21.8367 C   0  0  0  0  0  0  0  0  0  0  0  0
   20.1267   20.2157   22.2075 H   0  0  0  0  0  0  0  0  0  0  0  0
   18.9359   18.9292   22.4208 H   0  0  0  0  0  0  0  0  0  0  0  0
   20.9559   18.2105   22.0530 C   0  0  0  0  0  0  0  0  0  0  0  0
   21.8360   18.5091   21.4659 H   0  0  0  0  0  0  0  0  0  0  0  0
   20.6466   17.2242   21.6790 H   0  0  0  0  0  0  0  0  0  0  0  0
   21.3477   18.0947   23.5419 C   0  0  0  0  0  0  0  0  0  0  0  0
   22.1583   17.3664   23.6742 H   0  0  0  0  0  0  0  0  0  0  0  0
   20.4959   17.7639   24.1503 H   0  0  0  0  0  0  0  0  0  0  0  0
   21.6946   19.0590   23.9356 H   0  0  0  0  0  0  0  0  0  0  0  0
  1  2  1  0  0  0  0
  1  3  1  0  0  0  0
  1  4  1  0  0  0  0
  1  5  1  0  0  0  0
  5  6  1  0  0  0  0
  5  7  1  0  0  0  0
  5  8  1  0  0  0  0
  8  9  1  0  0  0  0
  8 10  1  0  0  0  0
  8 11  1  0  0  0  0
 11 12  1  0  0  0  0
 11 13  1  0  0  0  0
 11 14  1  0  0  0  0
 14 15  1  0  0  0  0
 14 16  1  0  0  0  0
 14 17  1  0  0  0  0
M  END
> <VConfSearch Rank>
661

> <Conf_Id>
7

> <Delta U+W>
0.000

> <U+W>
-15.865

> <U>
44.664

> <W>
-60.529

> <W(PB)>
-62.309

> <W(SA)>
1.780

> <Valence>
0.872

> <Coulomb>
43.648

> <VdW>
0.144

> <VdW6>
-2.370

> <VdW12>
2.515

> <Bond>
0.080

> <Angle>
0.376

> <Pdih>
0.416

> <Idih>
0.000

> <Tether>
0.000

$$$$
VeraChem MOL file


 17 16  0  0  0  0  0  0  0  0999 V2000     
   17.7161   18.4532   20.8995 N   0  3  0  0  0  0  0  0  0  0  0  0
   17.0708   18.5561   21.6886 H   0  0  0  0  0  0  0  0  0  0  0  0
   17.8924   17.4506   20.7840 H   0  0  0  0  0  0  0  0  0  0  0  0
   17.2124   18.7640   20.0626 H   0  0  0  0  0  0  0  0  0  0  0  0
   18.9979   19.2346   21.1087 C   0  0  0  0  0  0  0  0  0  0  0  0
   18.7383   20.2933   21.1934 H   0  0  0  0  0  0  0  0  0  0  0  0
   19.6197   19.1042   20.2192 H   0  0  0  0  0  0  0  0  0  0  0  0
   19.7810   18.7922   22.3596 C   0  0  0  0  0  0  0  0  0  0  0  0
   19.1344   18.8893   23.2419 H   0  0  0  0  0  0  0  0  0  0  0  0
   20.0403   17.7284   22.2752 H   0  0  0  0  0  0  0  0  0  0  0  0
   21.0661   19.6230   22.5837 C   0  0  0  0  0  0  0  0  0  0  0  0
   21.5315   19.3125   23.5297 H   0  0  0  0  0  0  0  0  0  0  0  0
   20.8052   20.6842   22.7016 H   0  0  0  0  0  0  0  0  0  0  0  0
   22.0946   19.4653   21.4403 C   0  0  0  0  0  0  0  0  0  0  0  0
   22.3681   18.4117   21.2975 H   0  0  0  0  0  0  0  0  0  0  0  0
   23.0130   20.0214   21.6692 H   0  0  0  0  0  0  0  0  0  0  0  0
   21.7035   19.8498   20.4899 H   0  0  0  0  0  0  0  0  0  0  0  0
  1  2  1  0  0  0  0
  1  3  1  0  0  0  0
  1  4  1  0  0  0  0
  1  5  1  0  0  0  0
  5  6  1  0  0  0  0
  5  7  1  0  0  0  0
  5  8  1  0  0  0  0
  8  9  1  0  0  0  0
  8 10  1  0  0  0  0
  8 11  1  0  0  0  0
 11 12  1  0  0  0  0
 11 13  1  0  0  0  0
 11 14  1  0  0  0  0
 14 15  1  0  0  0  0
 14 16  1  0  0  0  0
 14 17  1  0  0  0  0
M  END
> <VConfSearch Rank>
662

> <Conf_Id>
36

> <Delta U+W>
0.275

> <U+W>
-15.590

> <U>
45.174

> <W>
-60.765

> <W(PB)>
-62.518

> <W(SA)>
1.754

> <Valence>
1.161

> <Coulomb>
43.789

> <VdW>
0.224

> <VdW6>
-2.897

> <VdW12>
3.121

> <Bond>
0.100

> <Angle>
0.500

> <Pdih>
0.561

> <Idih>
0.000

> <Tether>
0.000

$$$$
VeraChem MOL file


 17 16  0  0  0  0  0  0  0  0999 V2000     
   19.8071   17.4023   20.6394 N   0  3  0  0  0  0  0  0  0  0  0  0
   20.0442   18.1887   20.0292 H   0  0  0  0  0  0  0  0  0  0  0  0
   18.8050   17.2233   20.5244 H   0  0  0  0  0  0  0  0  0  0  0  0
   20.2995   16.5794   20.2774 H   0  0  0  0  0  0  0  0  0  0  0  0
   20.1669   17.6843   22.0854 C   0  0  0  0  0  0  0  0  0  0  0  0
   21.2517   17.7992   22.1582 H   0  0  0  0  0  0  0  0  0  0  0  0
   19.8810   16.8017   22.6641 H   0  0  0  0  0  0  0  0  0  0  0  0
   19.4691   18.9245   22.6826 C   0  0  0  0  0  0  0  0  0  0  0  0
   18.4095   18.9345   22.3946 H   0  0  0  0  0  0  0  0  0  0  0  0
   19.4830   18.8226   23.7759 H   0  0  0  0  0  0  0  0  0  0  0  0
   20.1387   20.2750   22.3213 C   0  0  0  0  0  0  0  0  0  0  0  0
   21.1806   20.2762   22.6713 H   0  0  0  0  0  0  0  0  0  0  0  0
   19.6300   21.0737   22.8793 H   0  0  0  0  0  0  0  0  0  0  0  0
   20.1005   20.6249   20.8163 C   0  0  0  0  0  0  0  0  0  0  0  0
   20.7669   19.9767   20.2355 H   0  0  0  0  0  0  0  0  0  0  0  0
   20.4365   21.6578   20.6572 H   0  0  0  0  0  0  0  0  0  0  0  0
   19.0830   20.5400   20.4131 H   0  0  0  0  0  0  0  0  0  0  0  0
  1  2  1  0  0  0  0
  1  3  1  0  0  0  0
  1  4  1  0  0  0  0
  1  5  1  0  0  0  0
  5  6  1  0  0  0  0
  5  7  1  0  0  0  0
  5  8  1  0  0  0  0
  8  9  1  0  0  0  0
  8 10  1  0  0  0  0
  8 11  1  0  0  0  0
 11 12  1  0  0  0  0
 11 13  1  0  0  0  0
 11 14  1  0  0  0  0
 14 15  1  0  0  0  0
 14 16  1  0  0  0  0
 14 17  1  0  0  0  0
M  END
> <VConfSearch Rank>
663

> <Conf_Id>
19

> <Delta U+W>
2.662

> <U+W>
-13.203

> <U>
47.423

> <W>
-60.626

> <W(PB)>
-62.328

> <W(SA)>
1.702

> <Valence>
2.414

> <Coulomb>
44.831

> <VdW>
0.178

> <VdW6>
-3.743

> <VdW12>
3.921

> <Bond>
0.138

> <Angle>
0.941

> <Pdih>
1.335

> <Idih>
0.000

> <Tether>
0.000

$$$$
VeraChem MOL file


 17 16  0  0  0  0  0  0  0  0999 V2000     
   20.8636   20.1864   22.7064 N   0  3  0  0  0  0  0  0  0  0  0  0
   21.7884   20.5653   22.9347 H   0  0  0  0  0  0  0  0  0  0  0  0
   20.2394   20.4417   23.4775 H   0  0  0  0  0  0  0  0  0  0  0  0
   20.5318   20.6807   21.8743 H   0  0  0  0  0  0  0  0  0  0  0  0
   20.9066   18.6861   22.4893 C   0  0  0  0  0  0  0  0  0  0  0  0
   21.2670   18.2385   23.4196 H   0  0  0  0  0  0  0  0  0  0  0  0
   21.6365   18.4686   21.7049 H   0  0  0  0  0  0  0  0  0  0  0  0
   19.5448   18.0586   22.1242 C   0  0  0  0  0  0  0  0  0  0  0  0
   19.5949   16.9878   22.3621 H   0  0  0  0  0  0  0  0  0  0  0  0
   18.7561   18.4731   22.7660 H   0  0  0  0  0  0  0  0  0  0  0  0
   19.1530   18.1971   20.6309 C   0  0  0  0  0  0  0  0  0  0  0  0
   18.2272   17.6294   20.4620 H   0  0  0  0  0  0  0  0  0  0  0  0
   19.9194   17.7224   20.0022 H   0  0  0  0  0  0  0  0  0  0  0  0
   18.9305   19.6526   20.1609 C   0  0  0  0  0  0  0  0  0  0  0  0
   18.2395   20.1854   20.8271 H   0  0  0  0  0  0  0  0  0  0  0  0
   18.4965   19.6648   19.1526 H   0  0  0  0  0  0  0  0  0  0  0  0
   19.8742   20.2083   20.1117 H   0  0  0  0  0  0  0  0  0  0  0  0
  1  2  1  0  0  0  0
  1  3  1  0  0  0  0
  1  4  1  0  0  0  0
  1  5  1  0  0  0  0
  5  6  1  0  0  0  0
  5  7  1  0  0  0  0
  5  8  1  0  0  0  0
  8  9  1  0  0  0  0
  8 10  1  0  0  0  0
  8 11  1  0  0  0  0
 11 12  1  0  0  0  0
 11 13  1  0  0  0  0
 11 14  1  0  0  0  0
 14 15  1  0  0  0  0
 14 16  1  0  0  0  0
 14 17  1  0  0  0  0
M  END
> <VConfSearch Rank>
664

> <Conf_Id>
44

> <Delta U+W>
2.712

> <U+W>
-13.153

> <U>
47.423

> <W>
-60.576

> <W(PB)>
-62.262

> <W(SA)>
1.687

> <Valence>
2.414

> <Coulomb>
44.831

> <VdW>
0.178

> <VdW6>
-3.743

> <VdW12>
3.922

> <Bond>
0.138

> <Angle>
0.941

> <Pdih>
1.335

> <Idih>
0.000

> <Tether>
0.000

$$$$
VeraChem MOL file


 17 16  0  0  0  0  0  0  0  0999 V2000     
   18.3791   19.8631   22.5455 N   0  3  0  0  0  0  0  0  0  0  0  0
   18.1297   18.8880   22.3575 H   0  0  0  0  0  0  0  0  0  0  0  0
   17.8189   20.4457   21.9161 H   0  0  0  0  0  0  0  0  0  0  0  0
   18.0690   20.0726   23.4998 H   0  0  0  0  0  0  0  0  0  0  0  0
   19.8655   20.1069   22.3692 C   0  0  0  0  0  0  0  0  0  0  0  0
   20.3999   19.4793   23.0870 H   0  0  0  0  0  0  0  0  0  0  0  0
   20.0636   21.1523   22.6212 H   0  0  0  0  0  0  0  0  0  0  0  0
   20.3788   19.8192   20.9432 C   0  0  0  0  0  0  0  0  0  0  0  0
   19.8655   20.4827   20.2346 H   0  0  0  0  0  0  0  0  0  0  0  0
   21.4434   20.0837   20.8931 H   0  0  0  0  0  0  0  0  0  0  0  0
   20.1979   18.3480   20.4933 C   0  0  0  0  0  0  0  0  0  0  0  0
   20.5764   18.2429   19.4668 H   0  0  0  0  0  0  0  0  0  0  0  0
   19.1298   18.0951   20.4497 H   0  0  0  0  0  0  0  0  0  0  0  0
   20.9346   17.3409   21.4058 C   0  0  0  0  0  0  0  0  0  0  0  0
   22.0060   17.5723   21.4648 H   0  0  0  0  0  0  0  0  0  0  0  0
   20.8338   16.3206   21.0134 H   0  0  0  0  0  0  0  0  0  0  0  0
   20.5267   17.3453   22.4244 H   0  0  0  0  0  0  0  0  0  0  0  0
  1  2  1  0  0  0  0
  1  3  1  0  0  0  0
  1  4  1  0  0  0  0
  1  5  1  0  0  0  0
  5  6  1  0  0  0  0
  5  7  1  0  0  0  0
  5  8  1  0  0  0  0
  8  9  1  0  0  0  0
  8 10  1  0  0  0  0
  8 11  1  0  0  0  0
 11 12  1  0  0  0  0
 11 13  1  0  0  0  0
 11 14  1  0  0  0  0
 14 15  1  0  0  0  0
 14 16  1  0  0  0  0
 14 17  1  0  0  0  0
M  END
> <VConfSearch Rank>
665

> <Conf_Id>
1

> <Delta U+W>
0.685

> <U+W>
-15.179

> <U>
45.697

> <W>
-60.876

> <W(PB)>
-62.586

> <W(SA)>
1.710

> <Valence>
1.263

> <Coulomb>
44.179

> <VdW>
0.255

> <VdW6>
-3.552

> <VdW12>
3.807

> <Bond>
0.125

> <Angle>
0.616

> <Pdih>
0.521

> <Idih>
0.000

> <Tether>
0.000

$$$$
VeraChem MOL file


 17 16  0  0  0  0  0  0  0  0999 V2000     
   19.0042   17.8168   20.3247 N   0  3  0  0  0  0  0  0  0  0  0  0
   18.6135   18.3324   19.5304 H   0  0  0  0  0  0  0  0  0  0  0  0
   18.3715   17.9572   21.1174 H   0  0  0  0  0  0  0  0  0  0  0  0
   18.9638   16.8216   20.0823 H   0  0  0  0  0  0  0  0  0  0  0  0
   20.4174   18.2616   20.6480 C   0  0  0  0  0  0  0  0  0  0  0  0
   21.0414   18.0487   19.7757 H   0  0  0  0  0  0  0  0  0  0  0  0
   20.7823   17.6545   21.4806 H   0  0  0  0  0  0  0  0  0  0  0  0
   20.5329   19.7579   21.0055 C   0  0  0  0  0  0  0  0  0  0  0  0
   21.5925   20.0014   21.1598 H   0  0  0  0  0  0  0  0  0  0  0  0
   20.2026   20.3597   20.1485 H   0  0  0  0  0  0  0  0  0  0  0  0
   19.7275   20.1691   22.2632 C   0  0  0  0  0  0  0  0  0  0  0  0
   18.6534   20.0171   22.0902 H   0  0  0  0  0  0  0  0  0  0  0  0
   19.8580   21.2476   22.4299 H   0  0  0  0  0  0  0  0  0  0  0  0
   20.1626   19.4080   23.5365 C   0  0  0  0  0  0  0  0  0  0  0  0
   19.6129   19.7767   24.4122 H   0  0  0  0  0  0  0  0  0  0  0  0
   21.2341   19.5456   23.7317 H   0  0  0  0  0  0  0  0  0  0  0  0
   19.9654   18.3320   23.4511 H   0  0  0  0  0  0  0  0  0  0  0  0
  1  2  1  0  0  0  0
  1  3  1  0  0  0  0
  1  4  1  0  0  0  0
  1  5  1  0  0  0  0
  5  6  1  0  0  0  0
  5  7  1  0  0  0  0
  5  8  1  0  0  0  0
  8  9  1  0  0  0  0
  8 10  1  0  0  0  0
  8 11  1  0  0  0  0
 11 12  1  0  0  0  0
 11 13  1  0  0  0  0
 11 14  1  0  0  0  0
 14 15  1  0  0  0  0
 14 16  1  0  0  0  0
 14 17  1  0  0  0  0
M  END
> <VConfSearch Rank>
666

> <Conf_Id>
43

> <Delta U+W>
0.642

> <U+W>
-15.222

> <U>
45.697

> <W>
-60.919

> <W(PB)>
-62.631

> <W(SA)>
1.712

> <Valence>
1.262

> <Coulomb>
44.179

> <VdW>
0.255

> <VdW6>
-3.552

> <VdW12>
3.807

> <Bond>
0.125

> <Angle>
0.616

> <Pdih>
0.521

> <Idih>
0.000

> <Tether>
0.000

$$$$
VeraChem MOL file


 17 16  0  0  0  0  0  0  0  0999 V2000     
   22.1171   18.1998   22.6876 N   0  3  0  0  0  0  0  0  0  0  0  0
   22.3655   17.5173   21.9650 H   0  0  0  0  0  0  0  0  0  0  0  0
   21.6817   17.6797   23.4555 H   0  0  0  0  0  0  0  0  0  0  0  0
   22.9970   18.5813   23.0497 H   0  0  0  0  0  0  0  0  0  0  0  0
   21.2087   19.2886   22.1522 C   0  0  0  0  0  0  0  0  0  0  0  0
   21.7468   19.8188   21.3618 H   0  0  0  0  0  0  0  0  0  0  0  0
   21.0116   19.9935   22.9645 H   0  0  0  0  0  0  0  0  0  0  0  0
   19.8764   18.7501   21.5997 C   0  0  0  0  0  0  0  0  0  0  0  0
   20.0788   18.0310   20.7947 H   0  0  0  0  0  0  0  0  0  0  0  0
   19.3460   18.2052   22.3920 H   0  0  0  0  0  0  0  0  0  0  0  0
   18.9821   19.8902   21.0651 C   0  0  0  0  0  0  0  0  0  0  0  0
   19.5139   20.4381   20.2743 H   0  0  0  0  0  0  0  0  0  0  0  0
   18.7819   20.6120   21.8696 H   0  0  0  0  0  0  0  0  0  0  0  0
   17.6438   19.3575   20.5091 C   0  0  0  0  0  0  0  0  0  0  0  0
   17.0237   20.1822   20.1346 H   0  0  0  0  0  0  0  0  0  0  0  0
   17.0729   18.8339   21.2871 H   0  0  0  0  0  0  0  0  0  0  0  0
   17.8107   18.6586   19.6792 H   0  0  0  0  0  0  0  0  0  0  0  0
  1  2  1  0  0  0  0
  1  3  1  0  0  0  0
  1  4  1  0  0  0  0
  1  5  1  0  0  0  0
  5  6  1  0  0  0  0
  5  7  1  0  0  0  0
  5  8  1  0  0  0  0
  8  9  1  0  0  0  0
  8 10  1  0  0  0  0
  8 11  1  0  0  0  0
 11 12  1  0  0  0  0
 11 13  1  0  0  0  0
 11 14  1  0  0  0  0
 14 15  1  0  0  0  0
 14 16  1  0  0  0  0
 14 17  1  0  0  0  0
M  END
> <VConfSearch Rank>
667

> <Conf_Id>
7

> <Delta U+W>
0.000

> <U+W>
-15.865

> <U>
44.664

> <W>
-60.529

> <W(PB)>
-62.309

> <W(SA)>
1.780

> <Valence>
0.872

> <Coulomb>
43.648

> <VdW>
0.144

> <VdW6>
-2.370

> <VdW12>
2.515

> <Bond>
0.080

> <Angle>
0.376

> <Pdih>
0.416

> <Idih>
0.000

> <Tether>
0.000

$$$$
VeraChem MOL file


 17 16  0  0  0  0  0  0  0  0999 V2000     
   20.5762   20.6189   19.8627 N   0  3  0  0  0  0  0  0  0  0  0  0
   19.7868   21.2390   19.6579 H   0  0  0  0  0  0  0  0  0  0  0  0
   20.6291   19.9374   19.0995 H   0  0  0  0  0  0  0  0  0  0  0  0
   21.4247   21.1916   19.8079 H   0  0  0  0  0  0  0  0  0  0  0  0
   20.4354   19.9478   21.2144 C   0  0  0  0  0  0  0  0  0  0  0  0
   20.4158   20.7289   21.9791 H   0  0  0  0  0  0  0  0  0  0  0  0
   21.3230   19.3308   21.3771 H   0  0  0  0  0  0  0  0  0  0  0  0
   19.1692   19.0777   21.3308 C   0  0  0  0  0  0  0  0  0  0  0  0
   18.2864   19.6980   21.1263 H   0  0  0  0  0  0  0  0  0  0  0  0
   19.1881   18.2942   20.5617 H   0  0  0  0  0  0  0  0  0  0  0  0
   19.0167   18.4302   22.7271 C   0  0  0  0  0  0  0  0  0  0  0  0
   18.0590   17.8926   22.7686 H   0  0  0  0  0  0  0  0  0  0  0  0
   18.9641   19.2146   23.4953 H   0  0  0  0  0  0  0  0  0  0  0  0
   20.1613   17.4478   23.0657 C   0  0  0  0  0  0  0  0  0  0  0  0
   20.2394   16.6562   22.3091 H   0  0  0  0  0  0  0  0  0  0  0  0
   19.9813   16.9668   24.0359 H   0  0  0  0  0  0  0  0  0  0  0  0
   21.1292   17.9613   23.1259 H   0  0  0  0  0  0  0  0  0  0  0  0
  1  2  1  0  0  0  0
  1  3  1  0  0  0  0
  1  4  1  0  0  0  0
  1  5  1  0  0  0  0
  5  6  1  0  0  0  0
  5  7  1  0  0  0  0
  5  8  1  0  0  0  0
  8  9  1  0  0  0  0
  8 10  1  0  0  0  0
  8 11  1  0  0  0  0
 11 12  1  0  0  0  0
 11 13  1  0  0  0  0
 11 14  1  0  0  0  0
 14 15  1  0  0  0  0
 14 16  1  0  0  0  0
 14 17  1  0  0  0  0
M  END
> <VConfSearch Rank>
668

> <Conf_Id>
36

> <Delta U+W>
0.275

> <U+W>
-15.590

> <U>
45.174

> <W>
-60.765

> <W(PB)>
-62.518

> <W(SA)>
1.754

> <Valence>
1.161

> <Coulomb>
43.789

> <VdW>
0.224

> <VdW6>
-2.897

> <VdW12>
3.121

> <Bond>
0.100

> <Angle>
0.500

> <Pdih>
0.561

> <Idih>
0.000

> <Tether>
0.000

$$$$
VeraChem MOL file


 17 16  0  0  0  0  0  0  0  0999 V2000     
   20.6742   20.4942   22.4035 N   0  3  0  0  0  0  0  0  0  0  0  0
   20.9344   20.4346   21.4158 H   0  0  0  0  0  0  0  0  0  0  0  0
   21.4766   20.1622   22.9470 H   0  0  0  0  0  0  0  0  0  0  0  0
   20.5553   21.4878   22.6257 H   0  0  0  0  0  0  0  0  0  0  0  0
   19.4207   19.6951   22.7039 C   0  0  0  0  0  0  0  0  0  0  0  0
   18.5865   20.1350   22.1507 H   0  0  0  0  0  0  0  0  0  0  0  0
   19.2161   19.8105   23.7718 H   0  0  0  0  0  0  0  0  0  0  0  0
   19.5320   18.1919   22.3729 C   0  0  0  0  0  0  0  0  0  0  0  0
   20.4981   17.8015   22.7194 H   0  0  0  0  0  0  0  0  0  0  0  0
   18.7668   17.6629   22.9563 H   0  0  0  0  0  0  0  0  0  0  0  0
   19.3155   17.8452   20.8777 C   0  0  0  0  0  0  0  0  0  0  0  0
   18.3197   18.1850   20.5600 H   0  0  0  0  0  0  0  0  0  0  0  0
   19.3107   16.7511   20.7734 H   0  0  0  0  0  0  0  0  0  0  0  0
   20.3858   18.4256   19.9256 C   0  0  0  0  0  0  0  0  0  0  0  0
   20.2943   19.5140   19.8332 H   0  0  0  0  0  0  0  0  0  0  0  0
   20.2670   18.0056   18.9183 H   0  0  0  0  0  0  0  0  0  0  0  0
   21.3995   18.1828   20.2701 H   0  0  0  0  0  0  0  0  0  0  0  0
  1  2  1  0  0  0  0
  1  3  1  0  0  0  0
  1  4  1  0  0  0  0
  1  5  1  0  0  0  0
  5  6  1  0  0  0  0
  5  7  1  0  0  0  0
  5  8  1  0  0  0  0
  8  9  1  0  0  0  0
  8 10  1  0  0  0  0
  8 11  1  0  0  0  0
 11 12  1  0  0  0  0
 11 13  1  0  0  0  0
 11 14  1  0  0  0  0
 14 15  1  0  0  0  0
 14 16  1  0  0  0  0
 14 17  1  0  0  0  0
M  END
> <VConfSearch Rank>
669

> <Conf_Id>
19

> <Delta U+W>
2.662

> <U+W>
-13.203

> <U>
47.423

> <W>
-60.626

> <W(PB)>
-62.328

> <W(SA)>
1.702

> <Valence>
2.414

> <Coulomb>
44.831

> <VdW>
0.178

> <VdW6>
-3.743

> <VdW12>
3.921

> <Bond>
0.138

> <Angle>
0.941

> <Pdih>
1.335

> <Idih>
0.000

> <Tether>
0.000

$$$$
VeraChem MOL file


 17 16  0  0  0  0  0  0  0  0999 V2000     
   18.9075   19.7496   20.1739 N   0  3  0  0  0  0  0  0  0  0  0  0
   18.2085   19.5631   19.4476 H   0  0  0  0  0  0  0  0  0  0  0  0
   19.3324   20.6549   19.9517 H   0  0  0  0  0  0  0  0  0  0  0  0
   18.4029   19.8627   21.0567 H   0  0  0  0  0  0  0  0  0  0  0  0
   19.9440   18.6456   20.2561 C   0  0  0  0  0  0  0  0  0  0  0  0
   20.4340   18.5937   19.2801 H   0  0  0  0  0  0  0  0  0  0  0  0
   19.4289   17.6964   20.4264 H   0  0  0  0  0  0  0  0  0  0  0  0
   21.0155   18.8612   21.3457 C   0  0  0  0  0  0  0  0  0  0  0  0
   21.8898   18.2519   21.0808 H   0  0  0  0  0  0  0  0  0  0  0  0
   21.3599   19.9038   21.3327 H   0  0  0  0  0  0  0  0  0  0  0  0
   20.5693   18.4586   22.7745 C   0  0  0  0  0  0  0  0  0  0  0  0
   21.4341   18.5519   23.4463 H   0  0  0  0  0  0  0  0  0  0  0  0
   20.2874   17.3963   22.7881 H   0  0  0  0  0  0  0  0  0  0  0  0
   19.4095   19.3065   23.3446 C   0  0  0  0  0  0  0  0  0  0  0  0
   19.6208   20.3803   23.2580 H   0  0  0  0  0  0  0  0  0  0  0  0
   19.2608   19.0812   24.4087 H   0  0  0  0  0  0  0  0  0  0  0  0
   18.4638   19.0892   22.8346 H   0  0  0  0  0  0  0  0  0  0  0  0
  1  2  1  0  0  0  0
  1  3  1  0  0  0  0
  1  4  1  0  0  0  0
  1  5  1  0  0  0  0
  5  6  1  0  0  0  0
  5  7  1  0  0  0  0
  5  8  1  0  0  0  0
  8  9  1  0  0  0  0
  8 10  1  0  0  0  0
  8 11  1  0  0  0  0
 11 12  1  0  0  0  0
 11 13  1  0  0  0  0
 11 14  1  0  0  0  0
 14 15  1  0  0  0  0
 14 16  1  0  0  0  0
 14 17  1  0  0  0  0
M  END
> <VConfSearch Rank>
670

> <Conf_Id>
44

> <Delta U+W>
2.712

> <U+W>
-13.153

> <U>
47.423

> <W>
-60.576

> <W(PB)>
-62.262

> <W(SA)>
1.687

> <Valence>
2.414

> <Coulomb>
44.831

> <VdW>
0.178

> <VdW6>
-3.743

> <VdW12>
3.922

> <Bond>
0.138

> <Angle>
0.941

> <Pdih>
1.335

> <Idih>
0.000

> <Tether>
0.000

$$$$
VeraChem MOL file


 17 16  0  0  0  0  0  0  0  0999 V2000     
   20.9531   19.6286   23.1891 N   0  3  0  0  0  0  0  0  0  0  0  0
   20.8419   18.6133   23.2621 H   0  0  0  0  0  0  0  0  0  0  0  0
   20.3457   20.0515   23.8973 H   0  0  0  0  0  0  0  0  0  0  0  0
   21.9185   19.8439   23.4581 H   0  0  0  0  0  0  0  0  0  0  0  0
   20.6309   20.1303   21.7947 C   0  0  0  0  0  0  0  0  0  0  0  0
   21.3310   19.6648   21.0962 H   0  0  0  0  0  0  0  0  0  0  0  0
   20.8065   21.2094   21.7802 H   0  0  0  0  0  0  0  0  0  0  0  0
   19.1824   19.8426   21.3487 C   0  0  0  0  0  0  0  0  0  0  0  0
   18.4876   20.3478   22.0326 H   0  0  0  0  0  0  0  0  0  0  0  0
   19.0224   20.2954   20.3611 H   0  0  0  0  0  0  0  0  0  0  0  0
   18.8317   18.3353   21.2806 C   0  0  0  0  0  0  0  0  0  0  0  0
   17.7827   18.2297   20.9702 H   0  0  0  0  0  0  0  0  0  0  0  0
   18.8982   17.8866   22.2811 H   0  0  0  0  0  0  0  0  0  0  0  0
   19.7281   17.5489   20.2967 C   0  0  0  0  0  0  0  0  0  0  0  0
   19.6778   17.9783   19.2877 H   0  0  0  0  0  0  0  0  0  0  0  0
   19.4027   16.5026   20.2317 H   0  0  0  0  0  0  0  0  0  0  0  0
   20.7774   17.5498   20.6174 H   0  0  0  0  0  0  0  0  0  0  0  0
  1  2  1  0  0  0  0
  1  3  1  0  0  0  0
  1  4  1  0  0  0  0
  1  5  1  0  0  0  0
  5  6  1  0  0  0  0
  5  7  1  0  0  0  0
  5  8  1  0  0  0  0
  8  9  1  0  0  0  0
  8 10  1  0  0  0  0
  8 11  1  0  0  0  0
 11 12  1  0  0  0  0
 11 13  1  0  0  0  0
 11 14  1  0  0  0  0
 14 15  1  0  0  0  0
 14 16  1  0  0  0  0
 14 17  1  0  0  0  0
M  END
> <VConfSearch Rank>
671

> <Conf_Id>
1

> <Delta U+W>
0.685

> <U+W>
-15.179

> <U>
45.697

> <W>
-60.876

> <W(PB)>
-62.586

> <W(SA)>
1.710

> <Valence>
1.263

> <Coulomb>
44.179

> <VdW>
0.255

> <VdW6>
-3.552

> <VdW12>
3.807

> <Bond>
0.125

> <Angle>
0.616

> <Pdih>
0.521

> <Idih>
0.000

> <Tether>
0.000

$$$$
VeraChem MOL file


 17 16  0  0  0  0  0  0  0  0999 V2000     
   19.3493   18.2900   23.3502 N   0  3  0  0  0  0  0  0  0  0  0  0
   19.0994   19.0337   24.0088 H   0  0  0  0  0  0  0  0  0  0  0  0
   20.3717   18.2398   23.3240 H   0  0  0  0  0  0  0  0  0  0  0  0
   19.0168   17.4093   23.7557 H   0  0  0  0  0  0  0  0  0  0  0  0
   18.7634   18.5335   21.9729 C   0  0  0  0  0  0  0  0  0  0  0  0
   17.6743   18.5375   22.0703 H   0  0  0  0  0  0  0  0  0  0  0  0
   19.0420   17.6930   21.3320 H   0  0  0  0  0  0  0  0  0  0  0  0
   19.2231   19.8561   21.3254 C   0  0  0  0  0  0  0  0  0  0  0  0
   18.7019   19.9776   20.3666 H   0  0  0  0  0  0  0  0  0  0  0  0
   18.9030   20.6963   21.9558 H   0  0  0  0  0  0  0  0  0  0  0  0
   20.7515   19.9440   21.0890 C   0  0  0  0  0  0  0  0  0  0  0  0
   21.2843   19.9163   22.0492 H   0  0  0  0  0  0  0  0  0  0  0  0
   20.9846   20.9202   20.6410 H   0  0  0  0  0  0  0  0  0  0  0  0
   21.2864   18.8266   20.1644 C   0  0  0  0  0  0  0  0  0  0  0  0
   22.3581   18.9659   19.9724 H   0  0  0  0  0  0  0  0  0  0  0  0
   20.7692   18.8343   19.1961 H   0  0  0  0  0  0  0  0  0  0  0  0
   21.1571   17.8340   20.6138 H   0  0  0  0  0  0  0  0  0  0  0  0
  1  2  1  0  0  0  0
  1  3  1  0  0  0  0
  1  4  1  0  0  0  0
  1  5  1  0  0  0  0
  5  6  1  0  0  0  0
  5  7  1  0  0  0  0
  5  8  1  0  0  0  0
  8  9  1  0  0  0  0
  8 10  1  0  0  0  0
  8 11  1  0  0  0  0
 11 12  1  0  0  0  0
 11 13  1  0  0  0  0
 11 14  1  0  0  0  0
 14 15  1  0  0  0  0
 14 16  1  0  0  0  0
 14 17  1  0  0  0  0
M  END
> <VConfSearch Rank>
672

> <Conf_Id>
43

> <Delta U+W>
0.642

> <U+W>
-15.222

> <U>
45.697

> <W>
-60.919

> <W(PB)>
-62.631

> <W(SA)>
1.712

> <Valence>
1.262

> <Coulomb>
44.179

> <VdW>
0.255

> <VdW6>
-3.552

> <VdW12>
3.807

> <Bond>
0.125

> <Angle>
0.616

> <Pdih>
0.521

> <Idih>
0.000

> <Tether>
0.000

$$$$
VeraChem MOL file


 17 16  0  0  0  0  0  0  0  0999 V2000     
   21.9193   17.6308   22.4327 N   0  3  0  0  0  0  0  0  0  0  0  0
   21.7894   16.8424   21.7914 H   0  0  0  0  0  0  0  0  0  0  0  0
   21.5126   17.3568   23.3322 H   0  0  0  0  0  0  0  0  0  0  0  0
   22.9289   17.7284   22.5815 H   0  0  0  0  0  0  0  0  0  0  0  0
   21.3027   18.9071   21.8958 C   0  0  0  0  0  0  0  0  0  0  0  0
   21.8032   19.1543   20.9556 H   0  0  0  0  0  0  0  0  0  0  0  0
   21.5055   19.7075   22.6126 H   0  0  0  0  0  0  0  0  0  0  0  0
   19.7853   18.7955   21.6604 C   0  0  0  0  0  0  0  0  0  0  0  0
   19.5844   17.9807   20.9521 H   0  0  0  0  0  0  0  0  0  0  0  0
   19.2878   18.5322   22.6033 H   0  0  0  0  0  0  0  0  0  0  0  0
   19.1979   20.1154   21.1141 C   0  0  0  0  0  0  0  0  0  0  0  0
   19.6978   20.3813   20.1720 H   0  0  0  0  0  0  0  0  0  0  0  0
   19.4015   20.9320   21.8212 H   0  0  0  0  0  0  0  0  0  0  0  0
   17.6760   20.0110   20.8755 C   0  0  0  0  0  0  0  0  0  0  0  0
   17.2784   20.9579   20.4878 H   0  0  0  0  0  0  0  0  0  0  0  0
   17.1445   19.7798   21.8079 H   0  0  0  0  0  0  0  0  0  0  0  0
   17.4432   19.2247   20.1456 H   0  0  0  0  0  0  0  0  0  0  0  0
  1  2  1  0  0  0  0
  1  3  1  0  0  0  0
  1  4  1  0  0  0  0
  1  5  1  0  0  0  0
  5  6  1  0  0  0  0
  5  7  1  0  0  0  0
  5  8  1  0  0  0  0
  8  9  1  0  0  0  0
  8 10  1  0  0  0  0
  8 11  1  0  0  0  0
 11 12  1  0  0  0  0
 11 13  1  0  0  0  0
 11 14  1  0  0  0  0
 14 15  1  0  0  0  0
 14 16  1  0  0  0  0
 14 17  1  0  0  0  0
M  END
> <VConfSearch Rank>
673

> <Conf_Id>
7

> <Delta U+W>
0.000

> <U+W>
-15.865

> <U>
44.664

> <W>
-60.529

> <W(PB)>
-62.309

> <W(SA)>
1.780

> <Valence>
0.872

> <Coulomb>
43.648

> <VdW>
0.144

> <VdW6>
-2.370

> <VdW12>
2.515

> <Bond>
0.080

> <Angle>
0.376

> <Pdih>
0.416

> <Idih>
0.000

> <Tether>
0.000

$$$$
VeraChem MOL file


 17 16  0  0  0  0  0  0  0  0999 V2000     
   20.6509   21.3592   22.0498 N   0  3  0  0  0  0  0  0  0  0  0  0
   20.0295   22.0026   21.5503 H   0  0  0  0  0  0  0  0  0  0  0  0
   21.5319   21.3262   21.5280 H   0  0  0  0  0  0  0  0  0  0  0  0
   20.8589   21.7916   22.9557 H   0  0  0  0  0  0  0  0  0  0  0  0
   20.0342   19.9839   22.2100 C   0  0  0  0  0  0  0  0  0  0  0  0
   19.1190   20.0904   22.7985 H   0  0  0  0  0  0  0  0  0  0  0  0
   20.7357   19.3651   22.7756 H   0  0  0  0  0  0  0  0  0  0  0  0
   19.7089   19.3045   20.8659 C   0  0  0  0  0  0  0  0  0  0  0  0
   19.0358   19.9524   20.2888 H   0  0  0  0  0  0  0  0  0  0  0  0
   20.6279   19.1991   20.2741 H   0  0  0  0  0  0  0  0  0  0  0  0
   19.0445   17.9192   21.0431 C   0  0  0  0  0  0  0  0  0  0  0  0
   18.7667   17.5274   20.0545 H   0  0  0  0  0  0  0  0  0  0  0  0
   18.1071   18.0275   21.6069 H   0  0  0  0  0  0  0  0  0  0  0  0
   19.9611   16.8956   21.7517 C   0  0  0  0  0  0  0  0  0  0  0  0
   20.9086   16.7732   21.2110 H   0  0  0  0  0  0  0  0  0  0  0  0
   19.4746   15.9128   21.8011 H   0  0  0  0  0  0  0  0  0  0  0  0
   20.1903   17.2032   22.7798 H   0  0  0  0  0  0  0  0  0  0  0  0
  1  2  1  0  0  0  0
  1  3  1  0  0  0  0
  1  4  1  0  0  0  0
  1  5  1  0  0  0  0
  5  6  1  0  0  0  0
  5  7  1  0  0  0  0
  5  8  1  0  0  0  0
  8  9  1  0  0  0  0
  8 10  1  0  0  0  0
  8 11  1  0  0  0  0
 11 12  1  0  0  0  0
 11 13  1  0  0  0  0
 11 14  1  0  0  0  0
 14 15  1  0  0  0  0
 14 16  1  0  0  0  0
 14 17  1  0  0  0  0
M  END
> <VConfSearch Rank>
674

> <Conf_Id>
36

> <Delta U+W>
0.275

> <U+W>
-15.590

> <U>
45.174

> <W>
-60.765

> <W(PB)>
-62.518

> <W(SA)>
1.754

> <Valence>
1.161

> <Coulomb>
43.789

> <VdW>
0.224

> <VdW6>
-2.897

> <VdW12>
3.121

> <Bond>
0.100

> <Angle>
0.500

> <Pdih>
0.561

> <Idih>
0.000

> <Tether>
0.000

$$$$
VeraChem MOL file


 17 16  0  0  0  0  0  0  0  0999 V2000     
   18.8276   19.9107   22.7713 N   0  3  0  0  0  0  0  0  0  0  0  0
   18.2866   19.4201   22.0547 H   0  0  0  0  0  0  0  0  0  0  0  0
   18.8766   20.8947   22.4908 H   0  0  0  0  0  0  0  0  0  0  0  0
   18.2823   19.8756   23.6387 H   0  0  0  0  0  0  0  0  0  0  0  0
   20.2070   19.3054   22.9472 C   0  0  0  0  0  0  0  0  0  0  0  0
   20.0937   18.2807   23.3111 H   0  0  0  0  0  0  0  0  0  0  0  0
   20.7141   19.8854   23.7231 H   0  0  0  0  0  0  0  0  0  0  0  0
   21.0709   19.3130   21.6684 C   0  0  0  0  0  0  0  0  0  0  0  0
   20.9851   20.2841   21.1630 H   0  0  0  0  0  0  0  0  0  0  0  0
   22.1219   19.2244   21.9739 H   0  0  0  0  0  0  0  0  0  0  0  0
   20.7636   18.1607   20.6783 C   0  0  0  0  0  0  0  0  0  0  0  0
   20.9143   17.1937   21.1783 H   0  0  0  0  0  0  0  0  0  0  0  0
   21.4999   18.1993   19.8632 H   0  0  0  0  0  0  0  0  0  0  0  0
   19.3462   18.2073   20.0636 C   0  0  0  0  0  0  0  0  0  0  0  0
   18.5774   17.9644   20.8064 H   0  0  0  0  0  0  0  0  0  0  0  0
   19.2576   17.4698   19.2553 H   0  0  0  0  0  0  0  0  0  0  0  0
   19.1285   19.1955   19.6379 H   0  0  0  0  0  0  0  0  0  0  0  0
  1  2  1  0  0  0  0
  1  3  1  0  0  0  0
  1  4  1  0  0  0  0
  1  5  1  0  0  0  0
  5  6  1  0  0  0  0
  5  7  1  0  0  0  0
  5  8  1  0  0  0  0
  8  9  1  0  0  0  0
  8 10  1  0  0  0  0
  8 11  1  0  0  0  0
 11 12  1  0  0  0  0
 11 13  1  0  0  0  0
 11 14  1  0  0  0  0
 14 15  1  0  0  0  0
 14 16  1  0  0  0  0
 14 17  1  0  0  0  0
M  END
> <VConfSearch Rank>
675

> <Conf_Id>
19

> <Delta U+W>
2.662

> <U+W>
-13.203

> <U>
47.423

> <W>
-60.626

> <W(PB)>
-62.328

> <W(SA)>
1.702

> <Valence>
2.414

> <Coulomb>
44.831

> <VdW>
0.178

> <VdW6>
-3.743

> <VdW12>
3.921

> <Bond>
0.138

> <Angle>
0.941

> <Pdih>
1.335

> <Idih>
0.000

> <Tether>
0.000

$$$$
VeraChem MOL file


 17 16  0  0  0  0  0  0  0  0999 V2000     
   21.5252   19.8326   21.2059 N   0  3  0  0  0  0  0  0  0  0  0  0
   22.3220   19.8627   20.5617 H   0  0  0  0  0  0  0  0  0  0  0  0
   21.7977   20.3610   22.0402 H   0  0  0  0  0  0  0  0  0  0  0  0
   20.7587   20.3450   20.7622 H   0  0  0  0  0  0  0  0  0  0  0  0
   21.1276   18.4090   21.5454 C   0  0  0  0  0  0  0  0  0  0  0  0
   21.9959   17.9375   22.0136 H   0  0  0  0  0  0  0  0  0  0  0  0
   20.9144   17.8758   20.6151 H   0  0  0  0  0  0  0  0  0  0  0  0
   19.9198   18.2980   22.4996 C   0  0  0  0  0  0  0  0  0  0  0  0
   19.9551   17.3067   22.9706 H   0  0  0  0  0  0  0  0  0  0  0  0
   20.0194   19.0238   23.3176 H   0  0  0  0  0  0  0  0  0  0  0  0
   18.5398   18.4490   21.8099 C   0  0  0  0  0  0  0  0  0  0  0  0
   17.7569   18.2493   22.5550 H   0  0  0  0  0  0  0  0  0  0  0  0
   18.4269   17.6767   21.0361 H   0  0  0  0  0  0  0  0  0  0  0  0
   18.2846   19.8413   21.1891 C   0  0  0  0  0  0  0  0  0  0  0  0
   18.4819   20.6427   21.9129 H   0  0  0  0  0  0  0  0  0  0  0  0
   17.2376   19.9300   20.8712 H   0  0  0  0  0  0  0  0  0  0  0  0
   18.9055   20.0056   20.3007 H   0  0  0  0  0  0  0  0  0  0  0  0
  1  2  1  0  0  0  0
  1  3  1  0  0  0  0
  1  4  1  0  0  0  0
  1  5  1  0  0  0  0
  5  6  1  0  0  0  0
  5  7  1  0  0  0  0
  5  8  1  0  0  0  0
  8  9  1  0  0  0  0
  8 10  1  0  0  0  0
  8 11  1  0  0  0  0
 11 12  1  0  0  0  0
 11 13  1  0  0  0  0
 11 14  1  0  0  0  0
 14 15  1  0  0  0  0
 14 16  1  0  0  0  0
 14 17  1  0  0  0  0
M  END
> <VConfSearch Rank>
676

> <Conf_Id>
44

> <Delta U+W>
2.712

> <U+W>
-13.153

> <U>
47.423

> <W>
-60.576

> <W(PB)>
-62.262

> <W(SA)>
1.687

> <Valence>
2.414

> <Coulomb>
44.831

> <VdW>
0.178

> <VdW6>
-3.743

> <VdW12>
3.922

> <Bond>
0.138

> <Angle>
0.941

> <Pdih>
1.335

> <Idih>
0.000

> <Tether>
0.000

$$$$
VeraChem MOL file


 17 16  0  0  0  0  0  0  0  0999 V2000     
   21.6738   19.0182   22.5292 N   0  3  0  0  0  0  0  0  0  0  0  0
   21.5252   18.0803   22.1462 H   0  0  0  0  0  0  0  0  0  0  0  0
   21.5603   18.9519   23.5452 H   0  0  0  0  0  0  0  0  0  0  0  0
   22.6543   19.2608   22.3545 H   0  0  0  0  0  0  0  0  0  0  0  0
   20.7247   20.0313   21.9188 C   0  0  0  0  0  0  0  0  0  0  0  0
   20.9182   20.0731   20.8438 H   0  0  0  0  0  0  0  0  0  0  0  0
   20.9641   21.0100   22.3435 H   0  0  0  0  0  0  0  0  0  0  0  0
   19.2348   19.7174   22.1674 C   0  0  0  0  0  0  0  0  0  0  0  0
   19.0419   19.7178   23.2483 H   0  0  0  0  0  0  0  0  0  0  0  0
   18.6296   20.5323   21.7486 H   0  0  0  0  0  0  0  0  0  0  0  0
   18.7651   18.3712   21.5618 C   0  0  0  0  0  0  0  0  0  0  0  0
   17.7019   18.2277   21.8006 H   0  0  0  0  0  0  0  0  0  0  0  0
   19.2978   17.5367   22.0377 H   0  0  0  0  0  0  0  0  0  0  0  0
   18.9494   18.2998   20.0286 C   0  0  0  0  0  0  0  0  0  0  0  0
   18.4243   19.1244   19.5292 H   0  0  0  0  0  0  0  0  0  0  0  0
   18.5444   17.3583   19.6355 H   0  0  0  0  0  0  0  0  0  0  0  0
   20.0087   18.3476   19.7465 H   0  0  0  0  0  0  0  0  0  0  0  0
  1  2  1  0  0  0  0
  1  3  1  0  0  0  0
  1  4  1  0  0  0  0
  1  5  1  0  0  0  0
  5  6  1  0  0  0  0
  5  7  1  0  0  0  0
  5  8  1  0  0  0  0
  8  9  1  0  0  0  0
  8 10  1  0  0  0  0
  8 11  1  0  0  0  0
 11 12  1  0  0  0  0
 11 13  1  0  0  0  0
 11 14  1  0  0  0  0
 14 15  1  0  0  0  0
 14 16  1  0  0  0  0
 14 17  1  0  0  0  0
M  END
> <VConfSearch Rank>
677

> <Conf_Id>
1

> <Delta U+W>
0.685

> <U+W>
-15.179

> <U>
45.697

> <W>
-60.876

> <W(PB)>
-62.586

> <W(SA)>
1.710

> <Valence>
1.263

> <Coulomb>
44.179

> <VdW>
0.255

> <VdW6>
-3.552

> <VdW12>
3.807

> <Bond>
0.125

> <Angle>
0.616

> <Pdih>
0.521

> <Idih>
0.000

> <Tether>
0.000

$$$$
VeraChem MOL file


 17 16  0  0  0  0  0  0  0  0999 V2000     
   21.8021   19.1718   22.2351 N   0  3  0  0  0  0  0  0  0  0  0  0
   22.2660   18.2586   22.2445 H   0  0  0  0  0  0  0  0  0  0  0  0
   21.2000   19.2140   23.0622 H   0  0  0  0  0  0  0  0  0  0  0  0
   22.5337   19.8786   22.3612 H   0  0  0  0  0  0  0  0  0  0  0  0
   21.0171   19.3945   20.9568 C   0  0  0  0  0  0  0  0  0  0  0  0
   21.7247   19.3739   20.1236 H   0  0  0  0  0  0  0  0  0  0  0  0
   20.5748   20.3932   20.9997 H   0  0  0  0  0  0  0  0  0  0  0  0
   19.9117   18.3461   20.7141 C   0  0  0  0  0  0  0  0  0  0  0  0
   19.4434   18.5481   19.7417 H   0  0  0  0  0  0  0  0  0  0  0  0
   20.3701   17.3516   20.6319 H   0  0  0  0  0  0  0  0  0  0  0  0
   18.8177   18.3187   21.8104 C   0  0  0  0  0  0  0  0  0  0  0  0
   19.2564   18.0273   22.7745 H   0  0  0  0  0  0  0  0  0  0  0  0
   18.0867   17.5367   21.5613 H   0  0  0  0  0  0  0  0  0  0  0  0
   18.0780   19.6677   21.9615 C   0  0  0  0  0  0  0  0  0  0  0  0
   17.2707   19.5835   22.7005 H   0  0  0  0  0  0  0  0  0  0  0  0
   17.6291   19.9803   21.0097 H   0  0  0  0  0  0  0  0  0  0  0  0
   18.7539   20.4634   22.2991 H   0  0  0  0  0  0  0  0  0  0  0  0
  1  2  1  0  0  0  0
  1  3  1  0  0  0  0
  1  4  1  0  0  0  0
  1  5  1  0  0  0  0
  5  6  1  0  0  0  0
  5  7  1  0  0  0  0
  5  8  1  0  0  0  0
  8  9  1  0  0  0  0
  8 10  1  0  0  0  0
  8 11  1  0  0  0  0
 11 12  1  0  0  0  0
 11 13  1  0  0  0  0
 11 14  1  0  0  0  0
 14 15  1  0  0  0  0
 14 16  1  0  0  0  0
 14 17  1  0  0  0  0
M  END
> <VConfSearch Rank>
678

> <Conf_Id>
43

> <Delta U+W>
0.642

> <U+W>
-15.222

> <U>
45.697

> <W>
-60.919

> <W(PB)>
-62.631

> <W(SA)>
1.712

> <Valence>
1.262

> <Coulomb>
44.179

> <VdW>
0.255

> <VdW6>
-3.552

> <VdW12>
3.807

> <Bond>
0.125

> <Angle>
0.616

> <Pdih>
0.521

> <Idih>
0.000

> <Tether>
0.000

$$$$
VeraChem MOL file


 17 16  0  0  0  0  0  0  0  0999 V2000     
   17.9082   19.0352   20.0557 N   0  3  0  0  0  0  0  0  0  0  0  0
   17.2118   19.3146   20.7533 H   0  0  0  0  0  0  0  0  0  0  0  0
   17.8357   18.0189   19.9486 H   0  0  0  0  0  0  0  0  0  0  0  0
   17.6168   19.4486   19.1640 H   0  0  0  0  0  0  0  0  0  0  0  0
   19.3078   19.4668   20.4461 C   0  0  0  0  0  0  0  0  0  0  0  0
   19.3186   20.5581   20.5117 H   0  0  0  0  0  0  0  0  0  0  0  0
   19.9896   19.1649   19.6464 H   0  0  0  0  0  0  0  0  0  0  0  0
   19.7781   18.8635   21.7822 C   0  0  0  0  0  0  0  0  0  0  0  0
   19.0826   19.1560   22.5801 H   0  0  0  0  0  0  0  0  0  0  0  0
   19.7514   17.7675   21.7177 H   0  0  0  0  0  0  0  0  0  0  0  0
   21.2065   19.3279   22.1423 C   0  0  0  0  0  0  0  0  0  0  0  0
   21.2347   20.4250   22.2037 H   0  0  0  0  0  0  0  0  0  0  0  0
   21.9027   19.0382   21.3425 H   0  0  0  0  0  0  0  0  0  0  0  0
   21.6851   18.7267   23.4815 C   0  0  0  0  0  0  0  0  0  0  0  0
   22.7009   19.0685   23.7191 H   0  0  0  0  0  0  0  0  0  0  0  0
   21.7007   17.6298   23.4394 H   0  0  0  0  0  0  0  0  0  0  0  0
   21.0274   19.0275   24.3074 H   0  0  0  0  0  0  0  0  0  0  0  0
  1  2  1  0  0  0  0
  1  3  1  0  0  0  0
  1  4  1  0  0  0  0
  1  5  1  0  0  0  0
  5  6  1  0  0  0  0
  5  7  1  0  0  0  0
  5  8  1  0  0  0  0
  8  9  1  0  0  0  0
  8 10  1  0  0  0  0
  8 11  1  0  0  0  0
 11 12  1  0  0  0  0
 11 13  1  0  0  0  0
 11 14  1  0  0  0  0
 14 15  1  0  0  0  0
 14 16  1  0  0  0  0
 14 17  1  0  0  0  0
M  END
> <VConfSearch Rank>
679

> <Conf_Id>
7

> <Delta U+W>
0.000

> <U+W>
-15.865

> <U>
44.664

> <W>
-60.529

> <W(PB)>
-62.309

> <W(SA)>
1.780

> <Valence>
0.872

> <Coulomb>
43.648

> <VdW>
0.144

> <VdW6>
-2.370

> <VdW12>
2.515

> <Bond>
0.080

> <Angle>
0.376

> <Pdih>
0.416

> <Idih>
0.000

> <Tether>
0.000

$$$$
VeraChem MOL file


 17 16  0  0  0  0  0  0  0  0999 V2000     
   18.1514   17.9738   22.8076 N   0  3  0  0  0  0  0  0  0  0  0  0
   18.5287   17.1231   23.2360 H   0  0  0  0  0  0  0  0  0  0  0  0
   17.6017   17.6822   21.9937 H   0  0  0  0  0  0  0  0  0  0  0  0
   17.4923   18.3774   23.4811 H   0  0  0  0  0  0  0  0  0  0  0  0
   19.2451   18.9539   22.4324 C   0  0  0  0  0  0  0  0  0  0  0  0
   19.7680   19.2434   23.3479 H   0  0  0  0  0  0  0  0  0  0  0  0
   18.7690   19.8441   22.0133 H   0  0  0  0  0  0  0  0  0  0  0  0
   20.2541   18.3786   21.4200 C   0  0  0  0  0  0  0  0  0  0  0  0
   20.6969   17.4630   21.8340 H   0  0  0  0  0  0  0  0  0  0  0  0
   19.7285   18.0863   20.5012 H   0  0  0  0  0  0  0  0  0  0  0  0
   21.3865   19.3740   21.0755 C   0  0  0  0  0  0  0  0  0  0  0  0
   22.1109   18.8761   20.4157 H   0  0  0  0  0  0  0  0  0  0  0  0
   21.9349   19.6420   21.9896 H   0  0  0  0  0  0  0  0  0  0  0  0
   20.8731   20.6573   20.3830 C   0  0  0  0  0  0  0  0  0  0  0  0
   20.3155   20.4167   19.4685 H   0  0  0  0  0  0  0  0  0  0  0  0
   21.7133   21.3055   20.1019 H   0  0  0  0  0  0  0  0  0  0  0  0
   20.2153   21.2364   21.0433 H   0  0  0  0  0  0  0  0  0  0  0  0
  1  2  1  0  0  0  0
  1  3  1  0  0  0  0
  1  4  1  0  0  0  0
  1  5  1  0  0  0  0
  5  6  1  0  0  0  0
  5  7  1  0  0  0  0
  5  8  1  0  0  0  0
  8  9  1  0  0  0  0
  8 10  1  0  0  0  0
  8 11  1  0  0  0  0
 11 12  1  0  0  0  0
 11 13  1  0  0  0  0
 11 14  1  0  0  0  0
 14 15  1  0  0  0  0
 14 16  1  0  0  0  0
 14 17  1  0  0  0  0
M  END
> <VConfSearch Rank>
680

> <Conf_Id>
36

> <Delta U+W>
0.275

> <U+W>
-15.590

> <U>
45.174

> <W>
-60.765

> <W(PB)>
-62.518

> <W(SA)>
1.754

> <Valence>
1.161

> <Coulomb>
43.789

> <VdW>
0.224

> <VdW6>
-2.897

> <VdW12>
3.121

> <Bond>
0.100

> <Angle>
0.500

> <Pdih>
0.561

> <Idih>
0.000

> <Tether>
0.000

$$$$
VeraChem MOL file


 17 16  0  0  0  0  0  0  0  0999 V2000     
   19.5632   19.6262   23.3062 N   0  3  0  0  0  0  0  0  0  0  0  0
   18.8565   19.9303   22.6317 H   0  0  0  0  0  0  0  0  0  0  0  0
   20.1958   20.4177   23.4574 H   0  0  0  0  0  0  0  0  0  0  0  0
   19.0805   19.4576   24.1947 H   0  0  0  0  0  0  0  0  0  0  0  0
   20.3064   18.3948   22.8253 C   0  0  0  0  0  0  0  0  0  0  0  0
   19.5957   17.5676   22.7475 H   0  0  0  0  0  0  0  0  0  0  0  0
   21.0374   18.1405   23.5976 H   0  0  0  0  0  0  0  0  0  0  0  0
   21.0401   18.5814   21.4805 C   0  0  0  0  0  0  0  0  0  0  0  0
   21.5627   19.5470   21.4686 H   0  0  0  0  0  0  0  0  0  0  0  0
   21.8232   17.8143   21.4170 H   0  0  0  0  0  0  0  0  0  0  0  0
   20.1349   18.4429   20.2298 C   0  0  0  0  0  0  0  0  0  0  0  0
   19.6669   17.4484   20.2206 H   0  0  0  0  0  0  0  0  0  0  0  0
   20.7717   18.4872   19.3352 H   0  0  0  0  0  0  0  0  0  0  0  0
   19.0409   19.5280   20.1094 C   0  0  0  0  0  0  0  0  0  0  0  0
   18.2584   19.3962   20.8657 H   0  0  0  0  0  0  0  0  0  0  0  0
   18.5532   19.4693   19.1276 H   0  0  0  0  0  0  0  0  0  0  0  0
   19.4657   20.5353   20.2104 H   0  0  0  0  0  0  0  0  0  0  0  0
  1  2  1  0  0  0  0
  1  3  1  0  0  0  0
  1  4  1  0  0  0  0
  1  5  1  0  0  0  0
  5  6  1  0  0  0  0
  5  7  1  0  0  0  0
  5  8  1  0  0  0  0
  8  9  1  0  0  0  0
  8 10  1  0  0  0  0
  8 11  1  0  0  0  0
 11 12  1  0  0  0  0
 11 13  1  0  0  0  0
 11 14  1  0  0  0  0
 14 15  1  0  0  0  0
 14 16  1  0  0  0  0
 14 17  1  0  0  0  0
M  END
> <VConfSearch Rank>
681

> <Conf_Id>
19

> <Delta U+W>
2.662

> <U+W>
-13.203

> <U>
47.423

> <W>
-60.626

> <W(PB)>
-62.328

> <W(SA)>
1.702

> <Valence>
2.414

> <Coulomb>
44.831

> <VdW>
0.178

> <VdW6>
-3.743

> <VdW12>
3.921

> <Bond>
0.138

> <Angle>
0.941

> <Pdih>
1.335

> <Idih>
0.000

> <Tether>
0.000

$$$$
VeraChem MOL file


 17 16  0  0  0  0  0  0  0  0999 V2000     
   18.5875   18.8705   20.2788 N   0  3  0  0  0  0  0  0  0  0  0  0
   18.3558   18.4772   19.3610 H   0  0  0  0  0  0  0  0  0  0  0  0
   17.8388   19.5275   20.5181 H   0  0  0  0  0  0  0  0  0  0  0  0
   18.5432   18.1043   20.9555 H   0  0  0  0  0  0  0  0  0  0  0  0
   19.9474   19.5419   20.2779 C   0  0  0  0  0  0  0  0  0  0  0  0
   19.9080   20.3430   19.5348 H   0  0  0  0  0  0  0  0  0  0  0  0
   20.6947   18.8140   19.9506 H   0  0  0  0  0  0  0  0  0  0  0  0
   20.3610   20.1389   21.6395 C   0  0  0  0  0  0  0  0  0  0  0  0
   21.1304   20.8996   21.4518 H   0  0  0  0  0  0  0  0  0  0  0  0
   19.5131   20.6727   22.0887 H   0  0  0  0  0  0  0  0  0  0  0  0
   20.9428   19.1101   22.6424 C   0  0  0  0  0  0  0  0  0  0  0  0
   21.2989   19.6540   23.5286 H   0  0  0  0  0  0  0  0  0  0  0  0
   21.8287   18.6283   22.2054 H   0  0  0  0  0  0  0  0  0  0  0  0
   19.9403   18.0264   23.1000 C   0  0  0  0  0  0  0  0  0  0  0  0
   19.0032   18.4747   23.4551 H   0  0  0  0  0  0  0  0  0  0  0  0
   20.3635   17.4413   23.9268 H   0  0  0  0  0  0  0  0  0  0  0  0
   19.7120   17.3223   22.2915 H   0  0  0  0  0  0  0  0  0  0  0  0
  1  2  1  0  0  0  0
  1  3  1  0  0  0  0
  1  4  1  0  0  0  0
  1  5  1  0  0  0  0
  5  6  1  0  0  0  0
  5  7  1  0  0  0  0
  5  8  1  0  0  0  0
  8  9  1  0  0  0  0
  8 10  1  0  0  0  0
  8 11  1  0  0  0  0
 11 12  1  0  0  0  0
 11 13  1  0  0  0  0
 11 14  1  0  0  0  0
 14 15  1  0  0  0  0
 14 16  1  0  0  0  0
 14 17  1  0  0  0  0
M  END
> <VConfSearch Rank>
682

> <Conf_Id>
44

> <Delta U+W>
2.712

> <U+W>
-13.153

> <U>
47.423

> <W>
-60.576

> <W(PB)>
-62.262

> <W(SA)>
1.687

> <Valence>
2.414

> <Coulomb>
44.831

> <VdW>
0.178

> <VdW6>
-3.743

> <VdW12>
3.922

> <Bond>
0.138

> <Angle>
0.941

> <Pdih>
1.335

> <Idih>
0.000

> <Tether>
0.000

$$$$
VeraChem MOL file


 17 16  0  0  0  0  0  0  0  0999 V2000     
   18.0941   18.9515   20.8189 N   0  3  0  0  0  0  0  0  0  0  0  0
   18.1559   18.2110   21.5234 H   0  0  0  0  0  0  0  0  0  0  0  0
   18.0990   18.4971   19.9008 H   0  0  0  0  0  0  0  0  0  0  0  0
   17.1751   19.3923   20.9279 H   0  0  0  0  0  0  0  0  0  0  0  0
   19.2216   19.9559   20.9591 C   0  0  0  0  0  0  0  0  0  0  0  0
   19.1402   20.4223   21.9443 H   0  0  0  0  0  0  0  0  0  0  0  0
   19.0714   20.7326   20.2043 H   0  0  0  0  0  0  0  0  0  0  0  0
   20.6268   19.3426   20.7883 C   0  0  0  0  0  0  0  0  0  0  0  0
   20.7125   18.9127   19.7815 H   0  0  0  0  0  0  0  0  0  0  0  0
   21.3706   20.1487   20.8407 H   0  0  0  0  0  0  0  0  0  0  0  0
   20.9739   18.2601   21.8406 C   0  0  0  0  0  0  0  0  0  0  0  0
   21.9812   17.8734   21.6313 H   0  0  0  0  0  0  0  0  0  0  0  0
   20.2936   17.4036   21.7398 H   0  0  0  0  0  0  0  0  0  0  0  0
   20.9313   18.7909   23.2919 C   0  0  0  0  0  0  0  0  0  0  0  0
   21.6051   19.6482   23.4185 H   0  0  0  0  0  0  0  0  0  0  0  0
   21.2467   18.0106   23.9966 H   0  0  0  0  0  0  0  0  0  0  0  0
   19.9196   19.1053   23.5775 H   0  0  0  0  0  0  0  0  0  0  0  0
  1  2  1  0  0  0  0
  1  3  1  0  0  0  0
  1  4  1  0  0  0  0
  1  5  1  0  0  0  0
  5  6  1  0  0  0  0
  5  7  1  0  0  0  0
  5  8  1  0  0  0  0
  8  9  1  0  0  0  0
  8 10  1  0  0  0  0
  8 11  1  0  0  0  0
 11 12  1  0  0  0  0
 11 13  1  0  0  0  0
 11 14  1  0  0  0  0
 14 15  1  0  0  0  0
 14 16  1  0  0  0  0
 14 17  1  0  0  0  0
M  END
> <VConfSearch Rank>
683

> <Conf_Id>
1

> <Delta U+W>
0.685

> <U+W>
-15.179

> <U>
45.697

> <W>
-60.876

> <W(PB)>
-62.586

> <W(SA)>
1.710

> <Valence>
1.263

> <Coulomb>
44.179

> <VdW>
0.255

> <VdW6>
-3.552

> <VdW12>
3.807

> <Bond>
0.125

> <Angle>
0.616

> <Pdih>
0.521

> <Idih>
0.000

> <Tether>
0.000

$$$$
VeraChem MOL file


 17 16  0  0  0  0  0  0  0  0999 V2000     
   20.0819   20.2349   20.0280 N   0  3  0  0  0  0  0  0  0  0  0  0
   20.5560   21.1099   20.2708 H   0  0  0  0  0  0  0  0  0  0  0  0
   19.1191   20.3077   20.3685 H   0  0  0  0  0  0  0  0  0  0  0  0
   20.0353   20.1957   19.0048 H   0  0  0  0  0  0  0  0  0  0  0  0
   20.7927   19.0267   20.6068 C   0  0  0  0  0  0  0  0  0  0  0  0
   21.7959   18.9913   20.1733 H   0  0  0  0  0  0  0  0  0  0  0  0
   20.2547   18.1307   20.2867 H   0  0  0  0  0  0  0  0  0  0  0  0
   20.9017   19.0463   22.1455 C   0  0  0  0  0  0  0  0  0  0  0  0
   21.4831   18.1723   22.4676 H   0  0  0  0  0  0  0  0  0  0  0  0
   21.4786   19.9280   22.4548 H   0  0  0  0  0  0  0  0  0  0  0  0
   19.5346   19.0451   22.8740 C   0  0  0  0  0  0  0  0  0  0  0  0
   18.9776   19.9607   22.6331 H   0  0  0  0  0  0  0  0  0  0  0  0
   19.7115   19.0743   23.9583 H   0  0  0  0  0  0  0  0  0  0  0  0
   18.6712   17.8072   22.5392 C   0  0  0  0  0  0  0  0  0  0  0  0
   17.7433   17.8150   23.1255 H   0  0  0  0  0  0  0  0  0  0  0  0
   19.2067   16.8778   22.7726 H   0  0  0  0  0  0  0  0  0  0  0  0
   18.3920   17.7844   21.4783 H   0  0  0  0  0  0  0  0  0  0  0  0
  1  2  1  0  0  0  0
  1  3  1  0  0  0  0
  1  4  1  0  0  0  0
  1  5  1  0  0  0  0
  5  6  1  0  0  0  0
  5  7  1  0  0  0  0
  5  8  1  0  0  0  0
  8  9  1  0  0  0  0
  8 10  1  0  0  0  0
  8 11  1  0  0  0  0
 11 12  1  0  0  0  0
 11 13  1  0  0  0  0
 11 14  1  0  0  0  0
 14 15  1  0  0  0  0
 14 16  1  0  0  0  0
 14 17  1  0  0  0  0
M  END
> <VConfSearch Rank>
684

> <Conf_Id>
43

> <Delta U+W>
0.642

> <U+W>
-15.222

> <U>
45.697

> <W>
-60.919

> <W(PB)>
-62.631

> <W(SA)>
1.712

> <Valence>
1.262

> <Coulomb>
44.179

> <VdW>
0.255

> <VdW6>
-3.552

> <VdW12>
3.807

> <Bond>
0.125

> <Angle>
0.616

> <Pdih>
0.521

> <Idih>
0.000

> <Tether>
0.000

$$$$
VeraChem MOL file


 17 16  0  0  0  0  0  0  0  0999 V2000     
   20.0096   21.6056   21.9349 N   0  3  0  0  0  0  0  0  0  0  0  0
   19.6509   21.6215   22.8944 H   0  0  0  0  0  0  0  0  0  0  0  0
   19.2256   21.8365   21.3169 H   0  0  0  0  0  0  0  0  0  0  0  0
   20.6837   22.3740   21.8579 H   0  0  0  0  0  0  0  0  0  0  0  0
   20.6348   20.2701   21.5843 C   0  0  0  0  0  0  0  0  0  0  0  0
   21.4784   20.1046   22.2599 H   0  0  0  0  0  0  0  0  0  0  0  0
   21.0212   20.3358   20.5636 H   0  0  0  0  0  0  0  0  0  0  0  0
   19.6489   19.0923   21.6895 C   0  0  0  0  0  0  0  0  0  0  0  0
   19.2512   19.0390   22.7118 H   0  0  0  0  0  0  0  0  0  0  0  0
   18.7957   19.2693   21.0212 H   0  0  0  0  0  0  0  0  0  0  0  0
   20.3252   17.7525   21.3248 C   0  0  0  0  0  0  0  0  0  0  0  0
   21.1814   17.5764   21.9913 H   0  0  0  0  0  0  0  0  0  0  0  0
   20.7263   17.8064   20.3027 H   0  0  0  0  0  0  0  0  0  0  0  0
   19.3422   16.5663   21.4281 C   0  0  0  0  0  0  0  0  0  0  0  0
   19.8416   15.6247   21.1653 H   0  0  0  0  0  0  0  0  0  0  0  0
   18.4915   16.6973   20.7467 H   0  0  0  0  0  0  0  0  0  0  0  0
   18.9501   16.4656   22.4485 H   0  0  0  0  0  0  0  0  0  0  0  0
  1  2  1  0  0  0  0
  1  3  1  0  0  0  0
  1  4  1  0  0  0  0
  1  5  1  0  0  0  0
  5  6  1  0  0  0  0
  5  7  1  0  0  0  0
  5  8  1  0  0  0  0
  8  9  1  0  0  0  0
  8 10  1  0  0  0  0
  8 11  1  0  0  0  0
 11 12  1  0  0  0  0
 11 13  1  0  0  0  0
 11 14  1  0  0  0  0
 14 15  1  0  0  0  0
 14 16  1  0  0  0  0
 14 17  1  0  0  0  0
M  END
> <VConfSearch Rank>
685

> <Conf_Id>
7

> <Delta U+W>
0.000

> <U+W>
-15.865

> <U>
44.664

> <W>
-60.529

> <W(PB)>
-62.309

> <W(SA)>
1.780

> <Valence>
0.872

> <Coulomb>
43.648

> <VdW>
0.144

> <VdW6>
-2.370

> <VdW12>
2.515

> <Bond>
0.080

> <Angle>
0.376

> <Pdih>
0.416

> <Idih>
0.000

> <Tether>
0.000

$$$$
VeraChem MOL file


 17 16  0  0  0  0  0  0  0  0999 V2000     
   19.8369   20.8822   19.9988 N   0  3  0  0  0  0  0  0  0  0  0  0
   19.2293   21.6235   20.3608 H   0  0  0  0  0  0  0  0  0  0  0  0
   19.3080   20.3867   19.2747 H   0  0  0  0  0  0  0  0  0  0  0  0
   20.6212   21.3453   19.5285 H   0  0  0  0  0  0  0  0  0  0  0  0
   20.3090   19.9488   21.0957 C   0  0  0  0  0  0  0  0  0  0  0  0
   20.8882   20.5363   21.8133 H   0  0  0  0  0  0  0  0  0  0  0  0
   20.9735   19.2080   20.6434 H   0  0  0  0  0  0  0  0  0  0  0  0
   19.1540   19.2351   21.8240 C   0  0  0  0  0  0  0  0  0  0  0  0
   18.4713   19.9878   22.2402 H   0  0  0  0  0  0  0  0  0  0  0  0
   18.5713   18.6464   21.1030 H   0  0  0  0  0  0  0  0  0  0  0  0
   19.6464   18.3160   22.9663 C   0  0  0  0  0  0  0  0  0  0  0  0
   18.7747   17.9031   23.4931 H   0  0  0  0  0  0  0  0  0  0  0  0
   20.2016   18.9098   23.7061 H   0  0  0  0  0  0  0  0  0  0  0  0
   20.5312   17.1513   22.4658 C   0  0  0  0  0  0  0  0  0  0  0  0
   20.0013   16.5449   21.7198 H   0  0  0  0  0  0  0  0  0  0  0  0
   20.8066   16.4916   23.2989 H   0  0  0  0  0  0  0  0  0  0  0  0
   21.4612   17.5170   22.0124 H   0  0  0  0  0  0  0  0  0  0  0  0
  1  2  1  0  0  0  0
  1  3  1  0  0  0  0
  1  4  1  0  0  0  0
  1  5  1  0  0  0  0
  5  6  1  0  0  0  0
  5  7  1  0  0  0  0
  5  8  1  0  0  0  0
  8  9  1  0  0  0  0
  8 10  1  0  0  0  0
  8 11  1  0  0  0  0
 11 12  1  0  0  0  0
 11 13  1  0  0  0  0
 11 14  1  0  0  0  0
 14 15  1  0  0  0  0
 14 16  1  0  0  0  0
 14 17  1  0  0  0  0
M  END
> <VConfSearch Rank>
686

> <Conf_Id>
36

> <Delta U+W>
0.275

> <U+W>
-15.590

> <U>
45.174

> <W>
-60.765

> <W(PB)>
-62.518

> <W(SA)>
1.754

> <Valence>
1.161

> <Coulomb>
43.789

> <VdW>
0.224

> <VdW6>
-2.897

> <VdW12>
3.121

> <Bond>
0.100

> <Angle>
0.500

> <Pdih>
0.561

> <Idih>
0.000

> <Tether>
0.000

$$$$
VeraChem MOL file


 17 16  0  0  0  0  0  0  0  0999 V2000     
   21.7618   19.1600   21.9184 N   0  3  0  0  0  0  0  0  0  0  0  0
   21.2531   18.9507   22.7811 H   0  0  0  0  0  0  0  0  0  0  0  0
   21.9550   20.1661   21.9190 H   0  0  0  0  0  0  0  0  0  0  0  0
   22.6675   18.6835   21.9781 H   0  0  0  0  0  0  0  0  0  0  0  0
   20.9816   18.7367   20.6887 C   0  0  0  0  0  0  0  0  0  0  0  0
   20.8649   17.6499   20.7075 H   0  0  0  0  0  0  0  0  0  0  0  0
   21.5908   18.9960   19.8185 H   0  0  0  0  0  0  0  0  0  0  0  0
   19.5988   19.4083   20.5524 C   0  0  0  0  0  0  0  0  0  0  0  0
   19.6775   20.4796   20.7803 H   0  0  0  0  0  0  0  0  0  0  0  0
   19.2987   19.3460   19.4980 H   0  0  0  0  0  0  0  0  0  0  0  0
   18.4808   18.7563   21.4054 C   0  0  0  0  0  0  0  0  0  0  0  0
   18.3691   17.6999   21.1232 H   0  0  0  0  0  0  0  0  0  0  0  0
   17.5267   19.2404   21.1537 H   0  0  0  0  0  0  0  0  0  0  0  0
   18.6983   18.8614   22.9320 C   0  0  0  0  0  0  0  0  0  0  0  0
   19.5228   18.2208   23.2660 H   0  0  0  0  0  0  0  0  0  0  0  0
   17.7981   18.5335   23.4681 H   0  0  0  0  0  0  0  0  0  0  0  0
   18.9076   19.8957   23.2346 H   0  0  0  0  0  0  0  0  0  0  0  0
  1  2  1  0  0  0  0
  1  3  1  0  0  0  0
  1  4  1  0  0  0  0
  1  5  1  0  0  0  0
  5  6  1  0  0  0  0
  5  7  1  0  0  0  0
  5  8  1  0  0  0  0
  8  9  1  0  0  0  0
  8 10  1  0  0  0  0
  8 11  1  0  0  0  0
 11 12  1  0  0  0  0
 11 13  1  0  0  0  0
 11 14  1  0  0  0  0
 14 15  1  0  0  0  0
 14 16  1  0  0  0  0
 14 17  1  0  0  0  0
M  END
> <VConfSearch Rank>
687

> <Conf_Id>
19

> <Delta U+W>
2.662

> <U+W>
-13.203

> <U>
47.423

> <W>
-60.626

> <W(PB)>
-62.328

> <W(SA)>
1.702

> <Valence>
2.414

> <Coulomb>
44.831

> <VdW>
0.178

> <VdW6>
-3.743

> <VdW12>
3.921

> <Bond>
0.138

> <Angle>
0.941

> <Pdih>
1.335

> <Idih>
0.000

> <Tether>
0.000

$$$$
VeraChem MOL file


 17 16  0  0  0  0  0  0  0  0999 V2000     
   20.6980   17.5176   20.9656 N   0  3  0  0  0  0  0  0  0  0  0  0
   21.5309   16.9204   20.9893 H   0  0  0  0  0  0  0  0  0  0  0  0
   20.1232   17.1948   20.1814 H   0  0  0  0  0  0  0  0  0  0  0  0
   20.1696   17.3330   21.8220 H   0  0  0  0  0  0  0  0  0  0  0  0
   21.0592   18.9846   20.8331 C   0  0  0  0  0  0  0  0  0  0  0  0
   21.6157   19.0937   19.8982 H   0  0  0  0  0  0  0  0  0  0  0  0
   21.7259   19.2547   21.6564 H   0  0  0  0  0  0  0  0  0  0  0  0
   19.8454   19.9373   20.8098 C   0  0  0  0  0  0  0  0  0  0  0  0
   20.1665   20.8774   20.3420 H   0  0  0  0  0  0  0  0  0  0  0  0
   19.0605   19.5298   20.1590 H   0  0  0  0  0  0  0  0  0  0  0  0
   19.2658   20.2741   22.2075 C   0  0  0  0  0  0  0  0  0  0  0  0
   18.4820   21.0344   22.0829 H   0  0  0  0  0  0  0  0  0  0  0  0
   20.0445   20.7394   22.8281 H   0  0  0  0  0  0  0  0  0  0  0  0
   18.6635   19.0646   22.9579 C   0  0  0  0  0  0  0  0  0  0  0  0
   17.9487   18.5199   22.3274 H   0  0  0  0  0  0  0  0  0  0  0  0
   18.1271   19.4017   23.8544 H   0  0  0  0  0  0  0  0  0  0  0  0
   19.4427   18.3695   23.2917 H   0  0  0  0  0  0  0  0  0  0  0  0
  1  2  1  0  0  0  0
  1  3  1  0  0  0  0
  1  4  1  0  0  0  0
  1  5  1  0  0  0  0
  5  6  1  0  0  0  0
  5  7  1  0  0  0  0
  5  8  1  0  0  0  0
  8  9  1  0  0  0  0
  8 10  1  0  0  0  0
  8 11  1  0  0  0  0
 11 12  1  0  0  0  0
 11 13  1  0  0  0  0
 11 14  1  0  0  0  0
 14 15  1  0  0  0  0
 14 16  1  0  0  0  0
 14 17  1  0  0  0  0
M  END
> <VConfSearch Rank>
688

> <Conf_Id>
44

> <Delta U+W>
2.712

> <U+W>
-13.153

> <U>
47.423

> <W>
-60.576

> <W(PB)>
-62.262

> <W(SA)>
1.687

> <Valence>
2.414

> <Coulomb>
44.831

> <VdW>
0.178

> <VdW6>
-3.743

> <VdW12>
3.922

> <Bond>
0.138

> <Angle>
0.941

> <Pdih>
1.335

> <Idih>
0.000

> <Tether>
0.000

$$$$
VeraChem MOL file


 17 16  0  0  0  0  0  0  0  0999 V2000     
   18.8970   20.7387   21.7091 N   0  3  0  0  0  0  0  0  0  0  0  0
   19.1764   20.6182   20.7315 H   0  0  0  0  0  0  0  0  0  0  0  0
   19.4677   21.4962   22.0961 H   0  0  0  0  0  0  0  0  0  0  0  0
   17.9268   21.0696   21.7044 H   0  0  0  0  0  0  0  0  0  0  0  0
   19.0508   19.4538   22.4998 C   0  0  0  0  0  0  0  0  0  0  0  0
   18.3962   18.7004   22.0540 H   0  0  0  0  0  0  0  0  0  0  0  0
   18.7009   19.6454   23.5179 H   0  0  0  0  0  0  0  0  0  0  0  0
   20.4982   18.9221   22.5488 C   0  0  0  0  0  0  0  0  0  0  0  0
   21.1401   19.6688   23.0348 H   0  0  0  0  0  0  0  0  0  0  0  0
   20.5239   18.0322   23.1915 H   0  0  0  0  0  0  0  0  0  0  0  0
   21.0854   18.5649   21.1606 C   0  0  0  0  0  0  0  0  0  0  0  0
   22.1176   18.2114   21.2935 H   0  0  0  0  0  0  0  0  0  0  0  0
   21.1518   19.4657   20.5355 H   0  0  0  0  0  0  0  0  0  0  0  0
   20.2733   17.4769   20.4214 C   0  0  0  0  0  0  0  0  0  0  0  0
   20.1936   16.5645   21.0265 H   0  0  0  0  0  0  0  0  0  0  0  0
   20.7606   17.2092   19.4749 H   0  0  0  0  0  0  0  0  0  0  0  0
   19.2585   17.8209   20.1852 H   0  0  0  0  0  0  0  0  0  0  0  0
  1  2  1  0  0  0  0
  1  3  1  0  0  0  0
  1  4  1  0  0  0  0
  1  5  1  0  0  0  0
  5  6  1  0  0  0  0
  5  7  1  0  0  0  0
  5  8  1  0  0  0  0
  8  9  1  0  0  0  0
  8 10  1  0  0  0  0
  8 11  1  0  0  0  0
 11 12  1  0  0  0  0
 11 13  1  0  0  0  0
 11 14  1  0  0  0  0
 14 15  1  0  0  0  0
 14 16  1  0  0  0  0
 14 17  1  0  0  0  0
M  END
> <VConfSearch Rank>
689

> <Conf_Id>
1

> <Delta U+W>
0.685

> <U+W>
-15.179

> <U>
45.697

> <W>
-60.876

> <W(PB)>
-62.586

> <W(SA)>
1.710

> <Valence>
1.263

> <Coulomb>
44.179

> <VdW>
0.255

> <VdW6>
-3.552

> <VdW12>
3.807

> <Bond>
0.125

> <Angle>
0.616

> <Pdih>
0.521

> <Idih>
0.000

> <Tether>
0.000

$$$$
VeraChem MOL file


 17 16  0  0  0  0  0  0  0  0999 V2000     
   18.7981   20.3953   20.6994 N   0  3  0  0  0  0  0  0  0  0  0  0
   18.3182   20.9935   21.3785 H   0  0  0  0  0  0  0  0  0  0  0  0
   18.2860   19.5094   20.6614 H   0  0  0  0  0  0  0  0  0  0  0  0
   18.6925   20.8415   19.7827 H   0  0  0  0  0  0  0  0  0  0  0  0
   20.2561   20.1863   21.0604 C   0  0  0  0  0  0  0  0  0  0  0  0
   20.7462   21.1636   21.0454 H   0  0  0  0  0  0  0  0  0  0  0  0
   20.7128   19.5675   20.2836 H   0  0  0  0  0  0  0  0  0  0  0  0
   20.4682   19.5297   22.4402 C   0  0  0  0  0  0  0  0  0  0  0  0
   21.5462   19.4779   22.6426 H   0  0  0  0  0  0  0  0  0  0  0  0
   20.0422   20.1783   23.2172 H   0  0  0  0  0  0  0  0  0  0  0  0
   19.8581   18.1112   22.5633 C   0  0  0  0  0  0  0  0  0  0  0  0
   18.7661   18.1590   22.4543 H   0  0  0  0  0  0  0  0  0  0  0  0
   20.0451   17.7325   23.5780 H   0  0  0  0  0  0  0  0  0  0  0  0
   20.4403   17.1107   21.5387 C   0  0  0  0  0  0  0  0  0  0  0  0
   20.0291   16.1065   21.7048 H   0  0  0  0  0  0  0  0  0  0  0  0
   21.5323   17.0442   21.6287 H   0  0  0  0  0  0  0  0  0  0  0  0
   20.1985   17.4009   20.5085 H   0  0  0  0  0  0  0  0  0  0  0  0
  1  2  1  0  0  0  0
  1  3  1  0  0  0  0
  1  4  1  0  0  0  0
  1  5  1  0  0  0  0
  5  6  1  0  0  0  0
  5  7  1  0  0  0  0
  5  8  1  0  0  0  0
  8  9  1  0  0  0  0
  8 10  1  0  0  0  0
  8 11  1  0  0  0  0
 11 12  1  0  0  0  0
 11 13  1  0  0  0  0
 11 14  1  0  0  0  0
 14 15  1  0  0  0  0
 14 16  1  0  0  0  0
 14 17  1  0  0  0  0
M  END
> <VConfSearch Rank>
690

> <Conf_Id>
43

> <Delta U+W>
0.642

> <U+W>
-15.222

> <U>
45.697

> <W>
-60.919

> <W(PB)>
-62.631

> <W(SA)>
1.712

> <Valence>
1.262

> <Coulomb>
44.179

> <VdW>
0.255

> <VdW6>
-3.552

> <VdW12>
3.807

> <Bond>
0.125

> <Angle>
0.616

> <Pdih>
0.521

> <Idih>
0.000

> <Tether>
0.000

$$$$
VeraChem MOL file


 17 16  0  0  0  0  0  0  0  0999 V2000     
   22.3335   18.4634   22.3641 N   0  3  0  0  0  0  0  0  0  0  0  0
   22.0826   18.0427   23.2640 H   0  0  0  0  0  0  0  0  0  0  0  0
   22.6546   19.4170   22.5571 H   0  0  0  0  0  0  0  0  0  0  0  0
   23.1433   17.9442   22.0099 H   0  0  0  0  0  0  0  0  0  0  0  0
   21.1771   18.4409   21.3845 C   0  0  0  0  0  0  0  0  0  0  0  0
   20.9090   17.3966   21.2027 H   0  0  0  0  0  0  0  0  0  0  0  0
   21.5241   18.8744   20.4426 H   0  0  0  0  0  0  0  0  0  0  0  0
   19.9425   19.2124   21.8853 C   0  0  0  0  0  0  0  0  0  0  0  0
   19.6063   18.7841   22.8390 H   0  0  0  0  0  0  0  0  0  0  0  0
   20.2192   20.2569   22.0814 H   0  0  0  0  0  0  0  0  0  0  0  0
   18.7893   19.1644   20.8591 C   0  0  0  0  0  0  0  0  0  0  0  0
   18.5141   18.1189   20.6599 H   0  0  0  0  0  0  0  0  0  0  0  0
   19.1263   19.5900   19.9032 H   0  0  0  0  0  0  0  0  0  0  0  0
   17.5473   19.9362   21.3547 C   0  0  0  0  0  0  0  0  0  0  0  0
   16.7401   19.8901   20.6121 H   0  0  0  0  0  0  0  0  0  0  0  0
   17.7830   20.9940   21.5298 H   0  0  0  0  0  0  0  0  0  0  0  0
   17.1660   19.5114   22.2925 H   0  0  0  0  0  0  0  0  0  0  0  0
  1  2  1  0  0  0  0
  1  3  1  0  0  0  0
  1  4  1  0  0  0  0
  1  5  1  0  0  0  0
  5  6  1  0  0  0  0
  5  7  1  0  0  0  0
  5  8  1  0  0  0  0
  8  9  1  0  0  0  0
  8 10  1  0  0  0  0
  8 11  1  0  0  0  0
 11 12  1  0  0  0  0
 11 13  1  0  0  0  0
 11 14  1  0  0  0  0
 14 15  1  0  0  0  0
 14 16  1  0  0  0  0
 14 17  1  0  0  0  0
M  END
> <VConfSearch Rank>
691

> <Conf_Id>
7

> <Delta U+W>
0.000

> <U+W>
-15.865

> <U>
44.664

> <W>
-60.529

> <W(PB)>
-62.309

> <W(SA)>
1.780

> <Valence>
0.872

> <Coulomb>
43.648

> <VdW>
0.144

> <VdW6>
-2.370

> <VdW12>
2.515

> <Bond>
0.080

> <Angle>
0.376

> <Pdih>
0.416

> <Idih>
0.000

> <Tether>
0.000

$$$$
VeraChem MOL file


 17 16  0  0  0  0  0  0  0  0999 V2000     
   19.4705   19.9445   23.8335 N   0  3  0  0  0  0  0  0  0  0  0  0
   19.4117   20.9663   23.7878 H   0  0  0  0  0  0  0  0  0  0  0  0
   20.3725   19.7140   24.2611 H   0  0  0  0  0  0  0  0  0  0  0  0
   18.7446   19.6349   24.4877 H   0  0  0  0  0  0  0  0  0  0  0  0
   19.3093   19.3049   22.4688 C   0  0  0  0  0  0  0  0  0  0  0  0
   18.3185   19.5668   22.0877 H   0  0  0  0  0  0  0  0  0  0  0  0
   19.3509   18.2204   22.5991 H   0  0  0  0  0  0  0  0  0  0  0  0
   20.3857   19.7488   21.4597 C   0  0  0  0  0  0  0  0  0  0  0  0
   20.3621   20.8427   21.3664 H   0  0  0  0  0  0  0  0  0  0  0  0
   21.3809   19.4872   21.8432 H   0  0  0  0  0  0  0  0  0  0  0  0
   20.1873   19.1200   20.0607 C   0  0  0  0  0  0  0  0  0  0  0  0
   20.9353   19.5377   19.3723 H   0  0  0  0  0  0  0  0  0  0  0  0
   19.2048   19.4083   19.6610 H   0  0  0  0  0  0  0  0  0  0  0  0
   20.3133   17.5792   20.0674 C   0  0  0  0  0  0  0  0  0  0  0  0
   21.2854   17.2640   20.4685 H   0  0  0  0  0  0  0  0  0  0  0  0
   20.2271   17.1815   19.0479 H   0  0  0  0  0  0  0  0  0  0  0  0
   19.5253   17.1126   20.6720 H   0  0  0  0  0  0  0  0  0  0  0  0
  1  2  1  0  0  0  0
  1  3  1  0  0  0  0
  1  4  1  0  0  0  0
  1  5  1  0  0  0  0
  5  6  1  0  0  0  0
  5  7  1  0  0  0  0
  5  8  1  0  0  0  0
  8  9  1  0  0  0  0
  8 10  1  0  0  0  0
  8 11  1  0  0  0  0
 11 12  1  0  0  0  0
 11 13  1  0  0  0  0
 11 14  1  0  0  0  0
 14 15  1  0  0  0  0
 14 16  1  0  0  0  0
 14 17  1  0  0  0  0
M  END
> <VConfSearch Rank>
692

> <Conf_Id>
36

> <Delta U+W>
0.275

> <U+W>
-15.590

> <U>
45.174

> <W>
-60.765

> <W(PB)>
-62.518

> <W(SA)>
1.754

> <Valence>
1.161

> <Coulomb>
43.789

> <VdW>
0.224

> <VdW6>
-2.897

> <VdW12>
3.121

> <Bond>
0.100

> <Angle>
0.500

> <Pdih>
0.561

> <Idih>
0.000

> <Tether>
0.000

$$$$
VeraChem MOL file


 17 16  0  0  0  0  0  0  0  0999 V2000     
   19.0459   20.5506   21.1381 N   0  3  0  0  0  0  0  0  0  0  0  0
   18.5590   20.0532   21.8880 H   0  0  0  0  0  0  0  0  0  0  0  0
   18.5479   20.3446   20.2670 H   0  0  0  0  0  0  0  0  0  0  0  0
   18.9311   21.5536   21.3161 H   0  0  0  0  0  0  0  0  0  0  0  0
   20.5080   20.1556   21.0583 C   0  0  0  0  0  0  0  0  0  0  0  0
   21.0019   20.4598   21.9850 H   0  0  0  0  0  0  0  0  0  0  0  0
   20.9492   20.7269   20.2371 H   0  0  0  0  0  0  0  0  0  0  0  0
   20.7460   18.6513   20.8091 C   0  0  0  0  0  0  0  0  0  0  0  0
   20.0613   18.2863   20.0322 H   0  0  0  0  0  0  0  0  0  0  0  0
   21.7575   18.5360   20.3974 H   0  0  0  0  0  0  0  0  0  0  0  0
   20.6439   17.7657   22.0772 C   0  0  0  0  0  0  0  0  0  0  0  0
   21.3782   18.1017   22.8228 H   0  0  0  0  0  0  0  0  0  0  0  0
   20.9328   16.7402   21.8072 H   0  0  0  0  0  0  0  0  0  0  0  0
   19.2384   17.7282   22.7190 C   0  0  0  0  0  0  0  0  0  0  0  0
   18.9871   18.6840   23.1933 H   0  0  0  0  0  0  0  0  0  0  0  0
   19.1979   16.9596   23.5018 H   0  0  0  0  0  0  0  0  0  0  0  0
   18.4671   17.4874   21.9758 H   0  0  0  0  0  0  0  0  0  0  0  0
  1  2  1  0  0  0  0
  1  3  1  0  0  0  0
  1  4  1  0  0  0  0
  1  5  1  0  0  0  0
  5  6  1  0  0  0  0
  5  7  1  0  0  0  0
  5  8  1  0  0  0  0
  8  9  1  0  0  0  0
  8 10  1  0  0  0  0
  8 11  1  0  0  0  0
 11 12  1  0  0  0  0
 11 13  1  0  0  0  0
 11 14  1  0  0  0  0
 14 15  1  0  0  0  0
 14 16  1  0  0  0  0
 14 17  1  0  0  0  0
M  END
> <VConfSearch Rank>
693

> <Conf_Id>
19

> <Delta U+W>
2.662

> <U+W>
-13.203

> <U>
47.423

> <W>
-60.626

> <W(PB)>
-62.328

> <W(SA)>
1.702

> <Valence>
2.414

> <Coulomb>
44.831

> <VdW>
0.178

> <VdW6>
-3.743

> <VdW12>
3.921

> <Bond>
0.138

> <Angle>
0.941

> <Pdih>
1.335

> <Idih>
0.000

> <Tether>
0.000

$$$$
VeraChem MOL file


 17 16  0  0  0  0  0  0  0  0999 V2000     
   18.4048   20.0364   21.0284 N   0  3  0  0  0  0  0  0  0  0  0  0
   17.9040   20.4381   20.2293 H   0  0  0  0  0  0  0  0  0  0  0  0
   17.9821   20.4322   21.8735 H   0  0  0  0  0  0  0  0  0  0  0  0
   18.2072   19.0325   21.0349 H   0  0  0  0  0  0  0  0  0  0  0  0
   19.8939   20.3158   20.9594 C   0  0  0  0  0  0  0  0  0  0  0  0
   20.0156   21.4024   20.9587 H   0  0  0  0  0  0  0  0  0  0  0  0
   20.2763   19.9325   20.0095 H   0  0  0  0  0  0  0  0  0  0  0  0
   20.7061   19.7195   22.1282 C   0  0  0  0  0  0  0  0  0  0  0  0
   21.6508   20.2750   22.1972 H   0  0  0  0  0  0  0  0  0  0  0  0
   20.1831   19.8958   23.0775 H   0  0  0  0  0  0  0  0  0  0  0  0
   21.0479   18.2157   21.9722 C   0  0  0  0  0  0  0  0  0  0  0  0
   21.7109   17.9239   22.7988 H   0  0  0  0  0  0  0  0  0  0  0  0
   21.6261   18.0618   21.0502 H   0  0  0  0  0  0  0  0  0  0  0  0
   19.8194   17.2778   21.9722 C   0  0  0  0  0  0  0  0  0  0  0  0
   19.1689   17.4729   22.8347 H   0  0  0  0  0  0  0  0  0  0  0  0
   20.1409   16.2296   22.0282 H   0  0  0  0  0  0  0  0  0  0  0  0
   19.2312   17.3852   21.0534 H   0  0  0  0  0  0  0  0  0  0  0  0
  1  2  1  0  0  0  0
  1  3  1  0  0  0  0
  1  4  1  0  0  0  0
  1  5  1  0  0  0  0
  5  6  1  0  0  0  0
  5  7  1  0  0  0  0
  5  8  1  0  0  0  0
  8  9  1  0  0  0  0
  8 10  1  0  0  0  0
  8 11  1  0  0  0  0
 11 12  1  0  0  0  0
 11 13  1  0  0  0  0
 11 14  1  0  0  0  0
 14 15  1  0  0  0  0
 14 16  1  0  0  0  0
 14 17  1  0  0  0  0
M  END
> <VConfSearch Rank>
694

> <Conf_Id>
44

> <Delta U+W>
2.712

> <U+W>
-13.153

> <U>
47.423

> <W>
-60.576

> <W(PB)>
-62.262

> <W(SA)>
1.687

> <Valence>
2.414

> <Coulomb>
44.831

> <VdW>
0.178

> <VdW6>
-3.743

> <VdW12>
3.922

> <Bond>
0.138

> <Angle>
0.941

> <Pdih>
1.335

> <Idih>
0.000

> <Tether>
0.000

$$$$
VeraChem MOL file


 17 16  0  0  0  0  0  0  0  0999 V2000     
   21.0625   19.2350   23.2113 N   0  3  0  0  0  0  0  0  0  0  0  0
   21.0510   20.1430   22.7381 H   0  0  0  0  0  0  0  0  0  0  0  0
   21.9916   18.8290   23.0650 H   0  0  0  0  0  0  0  0  0  0  0  0
   20.9733   19.4198   24.2156 H   0  0  0  0  0  0  0  0  0  0  0  0
   19.9608   18.3238   22.7055 C   0  0  0  0  0  0  0  0  0  0  0  0
   19.0009   18.8013   22.9184 H   0  0  0  0  0  0  0  0  0  0  0  0
   20.0095   17.3932   23.2774 H   0  0  0  0  0  0  0  0  0  0  0  0
   20.0599   18.0036   21.1996 C   0  0  0  0  0  0  0  0  0  0  0  0
   21.0092   17.4880   21.0025 H   0  0  0  0  0  0  0  0  0  0  0  0
   19.2656   17.2916   20.9390 H   0  0  0  0  0  0  0  0  0  0  0  0
   19.9502   19.2471   20.2825 C   0  0  0  0  0  0  0  0  0  0  0  0
   20.0457   18.9246   19.2362 H   0  0  0  0  0  0  0  0  0  0  0  0
   20.7919   19.9282   20.4676 H   0  0  0  0  0  0  0  0  0  0  0  0
   18.6163   20.0095   20.4531 C   0  0  0  0  0  0  0  0  0  0  0  0
   17.7583   19.3491   20.2719 H   0  0  0  0  0  0  0  0  0  0  0  0
   18.5545   20.8417   19.7400 H   0  0  0  0  0  0  0  0  0  0  0  0
   18.5176   20.4302   21.4617 H   0  0  0  0  0  0  0  0  0  0  0  0
  1  2  1  0  0  0  0
  1  3  1  0  0  0  0
  1  4  1  0  0  0  0
  1  5  1  0  0  0  0
  5  6  1  0  0  0  0
  5  7  1  0  0  0  0
  5  8  1  0  0  0  0
  8  9  1  0  0  0  0
  8 10  1  0  0  0  0
  8 11  1  0  0  0  0
 11 12  1  0  0  0  0
 11 13  1  0  0  0  0
 11 14  1  0  0  0  0
 14 15  1  0  0  0  0
 14 16  1  0  0  0  0
 14 17  1  0  0  0  0
M  END
> <VConfSearch Rank>
695

> <Conf_Id>
1

> <Delta U+W>
0.685

> <U+W>
-15.179

> <U>
45.697

> <W>
-60.876

> <W(PB)>
-62.586

> <W(SA)>
1.710

> <Valence>
1.263

> <Coulomb>
44.179

> <VdW>
0.255

> <VdW6>
-3.552

> <VdW12>
3.807

> <Bond>
0.125

> <Angle>
0.616

> <Pdih>
0.521

> <Idih>
0.000

> <Tether>
0.000

$$$$
VeraChem MOL file


 17 16  0  0  0  0  0  0  0  0999 V2000     
   18.8441   17.5394   20.8548 N   0  3  0  0  0  0  0  0  0  0  0  0
   18.8030   16.7455   21.5008 H   0  0  0  0  0  0  0  0  0  0  0  0
   19.7579   17.5077   20.3940 H   0  0  0  0  0  0  0  0  0  0  0  0
   18.1380   17.3711   20.1311 H   0  0  0  0  0  0  0  0  0  0  0  0
   18.6192   18.8598   21.5661 C   0  0  0  0  0  0  0  0  0  0  0  0
   17.6158   18.8375   22.0001 H   0  0  0  0  0  0  0  0  0  0  0  0
   18.6462   19.6569   20.8186 H   0  0  0  0  0  0  0  0  0  0  0  0
   19.6495   19.1525   22.6763 C   0  0  0  0  0  0  0  0  0  0  0  0
   19.3714   20.0904   23.1752 H   0  0  0  0  0  0  0  0  0  0  0  0
   19.5863   18.3685   23.4425 H   0  0  0  0  0  0  0  0  0  0  0  0
   21.1092   19.2590   22.1690 C   0  0  0  0  0  0  0  0  0  0  0  0
   21.4340   18.2974   21.7488 H   0  0  0  0  0  0  0  0  0  0  0  0
   21.7685   19.4532   23.0266 H   0  0  0  0  0  0  0  0  0  0  0  0
   21.3059   20.3782   21.1209 C   0  0  0  0  0  0  0  0  0  0  0  0
   22.3637   20.4604   20.8393 H   0  0  0  0  0  0  0  0  0  0  0  0
   20.9888   21.3511   21.5183 H   0  0  0  0  0  0  0  0  0  0  0  0
   20.7344   20.1794   20.2055 H   0  0  0  0  0  0  0  0  0  0  0  0
  1  2  1  0  0  0  0
  1  3  1  0  0  0  0
  1  4  1  0  0  0  0
  1  5  1  0  0  0  0
  5  6  1  0  0  0  0
  5  7  1  0  0  0  0
  5  8  1  0  0  0  0
  8  9  1  0  0  0  0
  8 10  1  0  0  0  0
  8 11  1  0  0  0  0
 11 12  1  0  0  0  0
 11 13  1  0  0  0  0
 11 14  1  0  0  0  0
 14 15  1  0  0  0  0
 14 16  1  0  0  0  0
 14 17  1  0  0  0  0
M  END
> <VConfSearch Rank>
696

> <Conf_Id>
43

> <Delta U+W>
0.642

> <U+W>
-15.222

> <U>
45.697

> <W>
-60.919

> <W(PB)>
-62.631

> <W(SA)>
1.712

> <Valence>
1.262

> <Coulomb>
44.179

> <VdW>
0.255

> <VdW6>
-3.552

> <VdW12>
3.807

> <Bond>
0.125

> <Angle>
0.616

> <Pdih>
0.521

> <Idih>
0.000

> <Tether>
0.000

$$$$
VeraChem MOL file


 17 16  0  0  0  0  0  0  0  0999 V2000     
   17.7941   20.4415   21.5196 N   0  3  0  0  0  0  0  0  0  0  0  0
   17.3723   20.0790   22.3801 H   0  0  0  0  0  0  0  0  0  0  0  0
   17.3522   19.9489   20.7374 H   0  0  0  0  0  0  0  0  0  0  0  0
   17.5161   21.4254   21.4452 H   0  0  0  0  0  0  0  0  0  0  0  0
   19.3011   20.2797   21.5140 C   0  0  0  0  0  0  0  0  0  0  0  0
   19.7054   20.8533   22.3525 H   0  0  0  0  0  0  0  0  0  0  0  0
   19.6837   20.7135   20.5861 H   0  0  0  0  0  0  0  0  0  0  0  0
   19.7543   18.8125   21.6245 C   0  0  0  0  0  0  0  0  0  0  0  0
   19.3553   18.3757   22.5498 H   0  0  0  0  0  0  0  0  0  0  0  0
   19.3339   18.2364   20.7894 H   0  0  0  0  0  0  0  0  0  0  0  0
   21.2941   18.6925   21.6153 C   0  0  0  0  0  0  0  0  0  0  0  0
   21.7156   19.2717   22.4491 H   0  0  0  0  0  0  0  0  0  0  0  0
   21.6942   19.1325   20.6908 H   0  0  0  0  0  0  0  0  0  0  0  0
   21.7561   17.2234   21.7260 C   0  0  0  0  0  0  0  0  0  0  0  0
   22.8520   17.1598   21.7177 H   0  0  0  0  0  0  0  0  0  0  0  0
   21.3783   16.6258   20.8861 H   0  0  0  0  0  0  0  0  0  0  0  0
   21.3998   16.7660   22.6582 H   0  0  0  0  0  0  0  0  0  0  0  0
  1  2  1  0  0  0  0
  1  3  1  0  0  0  0
  1  4  1  0  0  0  0
  1  5  1  0  0  0  0
  5  6  1  0  0  0  0
  5  7  1  0  0  0  0
  5  8  1  0  0  0  0
  8  9  1  0  0  0  0
  8 10  1  0  0  0  0
  8 11  1  0  0  0  0
 11 12  1  0  0  0  0
 11 13  1  0  0  0  0
 11 14  1  0  0  0  0
 14 15  1  0  0  0  0
 14 16  1  0  0  0  0
 14 17  1  0  0  0  0
M  END
> <VConfSearch Rank>
697

> <Conf_Id>
7

> <Delta U+W>
0.000

> <U+W>
-15.865

> <U>
44.664

> <W>
-60.529

> <W(PB)>
-62.309

> <W(SA)>
1.780

> <Valence>
0.872

> <Coulomb>
43.648

> <VdW>
0.144

> <VdW6>
-2.370

> <VdW12>
2.515

> <Bond>
0.080

> <Angle>
0.376

> <Pdih>
0.416

> <Idih>
0.000

> <Tether>
0.000

$$$$
VeraChem MOL file


 17 16  0  0  0  0  0  0  0  0999 V2000     
   21.9641   20.0885   20.7839 N   0  3  0  0  0  0  0  0  0  0  0  0
   22.4084   20.6150   21.5422 H   0  0  0  0  0  0  0  0  0  0  0  0
   21.5368   20.7731   20.1527 H   0  0  0  0  0  0  0  0  0  0  0  0
   22.7172   19.6315   20.2597 H   0  0  0  0  0  0  0  0  0  0  0  0
   20.9520   19.0876   21.3048 C   0  0  0  0  0  0  0  0  0  0  0  0
   21.4799   18.3743   21.9434 H   0  0  0  0  0  0  0  0  0  0  0  0
   20.5449   18.5447   20.4478 H   0  0  0  0  0  0  0  0  0  0  0  0
   19.8047   19.7419   22.0982 C   0  0  0  0  0  0  0  0  0  0  0  0
   20.2268   20.3172   22.9329 H   0  0  0  0  0  0  0  0  0  0  0  0
   19.2755   20.4595   21.4573 H   0  0  0  0  0  0  0  0  0  0  0  0
   18.8004   18.7071   22.6575 C   0  0  0  0  0  0  0  0  0  0  0  0
   18.0574   19.2293   23.2766 H   0  0  0  0  0  0  0  0  0  0  0  0
   19.3226   18.0079   23.3257 H   0  0  0  0  0  0  0  0  0  0  0  0
   18.0672   17.9168   21.5494 C   0  0  0  0  0  0  0  0  0  0  0  0
   17.5414   18.5935   20.8634 H   0  0  0  0  0  0  0  0  0  0  0  0
   17.3225   17.2399   21.9880 H   0  0  0  0  0  0  0  0  0  0  0  0
   18.7637   17.3058   20.9615 H   0  0  0  0  0  0  0  0  0  0  0  0
  1  2  1  0  0  0  0
  1  3  1  0  0  0  0
  1  4  1  0  0  0  0
  1  5  1  0  0  0  0
  5  6  1  0  0  0  0
  5  7  1  0  0  0  0
  5  8  1  0  0  0  0
  8  9  1  0  0  0  0
  8 10  1  0  0  0  0
  8 11  1  0  0  0  0
 11 12  1  0  0  0  0
 11 13  1  0  0  0  0
 11 14  1  0  0  0  0
 14 15  1  0  0  0  0
 14 16  1  0  0  0  0
 14 17  1  0  0  0  0
M  END
> <VConfSearch Rank>
698

> <Conf_Id>
36

> <Delta U+W>
0.275

> <U+W>
-15.590

> <U>
45.174

> <W>
-60.765

> <W(PB)>
-62.518

> <W(SA)>
1.754

> <Valence>
1.161

> <Coulomb>
43.789

> <VdW>
0.224

> <VdW6>
-2.897

> <VdW12>
3.121

> <Bond>
0.100

> <Angle>
0.500

> <Pdih>
0.561

> <Idih>
0.000

> <Tether>
0.000

$$$$
VeraChem MOL file


 17 16  0  0  0  0  0  0  0  0999 V2000     
   21.4472   19.7920   20.8727 N   0  3  0  0  0  0  0  0  0  0  0  0
   20.5965   20.0911   20.3892 H   0  0  0  0  0  0  0  0  0  0  0  0
   21.8925   19.0798   20.2863 H   0  0  0  0  0  0  0  0  0  0  0  0
   22.0812   20.5972   20.8954 H   0  0  0  0  0  0  0  0  0  0  0  0
   21.1486   19.2697   22.2648 C   0  0  0  0  0  0  0  0  0  0  0  0
   20.7397   20.0881   22.8635 H   0  0  0  0  0  0  0  0  0  0  0  0
   22.1036   18.9724   22.7065 H   0  0  0  0  0  0  0  0  0  0  0  0
   20.1833   18.0660   22.2973 C   0  0  0  0  0  0  0  0  0  0  0  0
   20.4548   17.3457   21.5142 H   0  0  0  0  0  0  0  0  0  0  0  0
   20.3317   17.5434   23.2516 H   0  0  0  0  0  0  0  0  0  0  0  0
   18.6835   18.4417   22.1879 C   0  0  0  0  0  0  0  0  0  0  0  0
   18.4094   19.1129   23.0140 H   0  0  0  0  0  0  0  0  0  0  0  0
   18.0871   17.5291   22.3274 H   0  0  0  0  0  0  0  0  0  0  0  0
   18.2836   19.0901   20.8431 C   0  0  0  0  0  0  0  0  0  0  0  0
   18.6906   20.1036   20.7483 H   0  0  0  0  0  0  0  0  0  0  0  0
   17.1913   19.1736   20.7708 H   0  0  0  0  0  0  0  0  0  0  0  0
   18.6285   18.4883   19.9922 H   0  0  0  0  0  0  0  0  0  0  0  0
  1  2  1  0  0  0  0
  1  3  1  0  0  0  0
  1  4  1  0  0  0  0
  1  5  1  0  0  0  0
  5  6  1  0  0  0  0
  5  7  1  0  0  0  0
  5  8  1  0  0  0  0
  8  9  1  0  0  0  0
  8 10  1  0  0  0  0
  8 11  1  0  0  0  0
 11 12  1  0  0  0  0
 11 13  1  0  0  0  0
 11 14  1  0  0  0  0
 14 15  1  0  0  0  0
 14 16  1  0  0  0  0
 14 17  1  0  0  0  0
M  END
> <VConfSearch Rank>
699

> <Conf_Id>
19

> <Delta U+W>
2.662

> <U+W>
-13.203

> <U>
47.423

> <W>
-60.626

> <W(PB)>
-62.328

> <W(SA)>
1.702

> <Valence>
2.414

> <Coulomb>
44.831

> <VdW>
0.178

> <VdW6>
-3.743

> <VdW12>
3.921

> <Bond>
0.138

> <Angle>
0.941

> <Pdih>
1.335

> <Idih>
0.000

> <Tether>
0.000

$$$$
VeraChem MOL file


 17 16  0  0  0  0  0  0  0  0999 V2000     
   21.3177   18.7159   20.4734 N   0  3  0  0  0  0  0  0  0  0  0  0
   22.3287   18.8021   20.3273 H   0  0  0  0  0  0  0  0  0  0  0  0
   20.9124   18.4221   19.5796 H   0  0  0  0  0  0  0  0  0  0  0  0
   21.1725   17.9499   21.1359 H   0  0  0  0  0  0  0  0  0  0  0  0
   20.7070   20.0122   20.9701 C   0  0  0  0  0  0  0  0  0  0  0  0
   20.9042   20.7712   20.2081 H   0  0  0  0  0  0  0  0  0  0  0  0
   21.2229   20.3114   21.8864 H   0  0  0  0  0  0  0  0  0  0  0  0
   19.1869   19.9401   21.2262 C   0  0  0  0  0  0  0  0  0  0  0  0
   18.7943   20.9654   21.2028 H   0  0  0  0  0  0  0  0  0  0  0  0
   18.6919   19.4093   20.4022 H   0  0  0  0  0  0  0  0  0  0  0  0
   18.7935   19.3103   22.5868 C   0  0  0  0  0  0  0  0  0  0  0  0
   17.7055   19.4050   22.7103 H   0  0  0  0  0  0  0  0  0  0  0  0
   19.2437   19.8887   23.4058 H   0  0  0  0  0  0  0  0  0  0  0  0
   19.1779   17.8207   22.7364 C   0  0  0  0  0  0  0  0  0  0  0  0
   18.8228   17.2297   21.8821 H   0  0  0  0  0  0  0  0  0  0  0  0
   18.7247   17.4001   23.6435 H   0  0  0  0  0  0  0  0  0  0  0  0
   20.2626   17.6925   22.8295 H   0  0  0  0  0  0  0  0  0  0  0  0
  1  2  1  0  0  0  0
  1  3  1  0  0  0  0
  1  4  1  0  0  0  0
  1  5  1  0  0  0  0
  5  6  1  0  0  0  0
  5  7  1  0  0  0  0
  5  8  1  0  0  0  0
  8  9  1  0  0  0  0
  8 10  1  0  0  0  0
  8 11  1  0  0  0  0
 11 12  1  0  0  0  0
 11 13  1  0  0  0  0
 11 14  1  0  0  0  0
 14 15  1  0  0  0  0
 14 16  1  0  0  0  0
 14 17  1  0  0  0  0
M  END
> <VConfSearch Rank>
700

> <Conf_Id>
44

> <Delta U+W>
2.712

> <U+W>
-13.153

> <U>
47.423

> <W>
-60.576

> <W(PB)>
-62.262

> <W(SA)>
1.687

> <Valence>
2.414

> <Coulomb>
44.831

> <VdW>
0.178

> <VdW6>
-3.743

> <VdW12>
3.922

> <Bond>
0.138

> <Angle>
0.941

> <Pdih>
1.335

> <Idih>
0.000

> <Tether>
0.000

$$$$
VeraChem MOL file


 17 16  0  0  0  0  0  0  0  0999 V2000     
   19.6062   20.9949   21.4527 N   0  3  0  0  0  0  0  0  0  0  0  0
   19.1408   20.5551   20.6537 H   0  0  0  0  0  0  0  0  0  0  0  0
   20.4320   21.4818   21.0918 H   0  0  0  0  0  0  0  0  0  0  0  0
   18.9697   21.7141   21.8111 H   0  0  0  0  0  0  0  0  0  0  0  0
   19.9689   19.9803   22.5199 C   0  0  0  0  0  0  0  0  0  0  0  0
   19.0445   19.5217   22.8805 H   0  0  0  0  0  0  0  0  0  0  0  0
   20.4247   20.5220   23.3532 H   0  0  0  0  0  0  0  0  0  0  0  0
   20.9381   18.8835   22.0326 C   0  0  0  0  0  0  0  0  0  0  0  0
   21.8784   19.3505   21.7107 H   0  0  0  0  0  0  0  0  0  0  0  0
   21.1934   18.2372   22.8829 H   0  0  0  0  0  0  0  0  0  0  0  0
   20.3764   18.0124   20.8815 C   0  0  0  0  0  0  0  0  0  0  0  0
   21.1373   17.2735   20.5932 H   0  0  0  0  0  0  0  0  0  0  0  0
   20.2017   18.6308   19.9906 H   0  0  0  0  0  0  0  0  0  0  0  0
   19.0751   17.2702   21.2633 C   0  0  0  0  0  0  0  0  0  0  0  0
   19.2247   16.6434   22.1520 H   0  0  0  0  0  0  0  0  0  0  0  0
   18.7500   16.6165   20.4436 H   0  0  0  0  0  0  0  0  0  0  0  0
   18.2569   17.9708   21.4722 H   0  0  0  0  0  0  0  0  0  0  0  0
  1  2  1  0  0  0  0
  1  3  1  0  0  0  0
  1  4  1  0  0  0  0
  1  5  1  0  0  0  0
  5  6  1  0  0  0  0
  5  7  1  0  0  0  0
  5  8  1  0  0  0  0
  8  9  1  0  0  0  0
  8 10  1  0  0  0  0
  8 11  1  0  0  0  0
 11 12  1  0  0  0  0
 11 13  1  0  0  0  0
 11 14  1  0  0  0  0
 14 15  1  0  0  0  0
 14 16  1  0  0  0  0
 14 17  1  0  0  0  0
M  END
> <VConfSearch Rank>
701

> <Conf_Id>
1

> <Delta U+W>
0.685

> <U+W>
-15.179

> <U>
45.697

> <W>
-60.876

> <W(PB)>
-62.586

> <W(SA)>
1.710

> <Valence>
1.263

> <Coulomb>
44.179

> <VdW>
0.255

> <VdW6>
-3.552

> <VdW12>
3.807

> <Bond>
0.125

> <Angle>
0.616

> <Pdih>
0.521

> <Idih>
0.000

> <Tether>
0.000

$$$$
VeraChem MOL file


 17 16  0  0  0  0  0  0  0  0999 V2000     
   20.0160   20.8161   20.7351 N   0  3  0  0  0  0  0  0  0  0  0  0
   20.9135   20.9603   20.2628 H   0  0  0  0  0  0  0  0  0  0  0  0
   20.1747   20.9579   21.7366 H   0  0  0  0  0  0  0  0  0  0  0  0
   19.3910   21.5658   20.4220 H   0  0  0  0  0  0  0  0  0  0  0  0
   19.4390   19.4436   20.4465 C   0  0  0  0  0  0  0  0  0  0  0  0
   19.2612   19.3768   19.3697 H   0  0  0  0  0  0  0  0  0  0  0  0
   18.4736   19.3677   20.9536 H   0  0  0  0  0  0  0  0  0  0  0  0
   20.3507   18.2796   20.8867 C   0  0  0  0  0  0  0  0  0  0  0  0
   19.8844   17.3334   20.5816 H   0  0  0  0  0  0  0  0  0  0  0  0
   21.3021   18.3411   20.3419 H   0  0  0  0  0  0  0  0  0  0  0  0
   20.6320   18.2409   22.4095 C   0  0  0  0  0  0  0  0  0  0  0  0
   21.1813   19.1418   22.7151 H   0  0  0  0  0  0  0  0  0  0  0  0
   21.2970   17.3928   22.6250 H   0  0  0  0  0  0  0  0  0  0  0  0
   19.3481   18.1007   23.2591 C   0  0  0  0  0  0  0  0  0  0  0  0
   19.5989   18.0116   24.3240 H   0  0  0  0  0  0  0  0  0  0  0  0
   18.7812   17.2053   22.9727 H   0  0  0  0  0  0  0  0  0  0  0  0
   18.6915   18.9725   23.1457 H   0  0  0  0  0  0  0  0  0  0  0  0
  1  2  1  0  0  0  0
  1  3  1  0  0  0  0
  1  4  1  0  0  0  0
  1  5  1  0  0  0  0
  5  6  1  0  0  0  0
  5  7  1  0  0  0  0
  5  8  1  0  0  0  0
  8  9  1  0  0  0  0
  8 10  1  0  0  0  0
  8 11  1  0  0  0  0
 11 12  1  0  0  0  0
 11 13  1  0  0  0  0
 11 14  1  0  0  0  0
 14 15  1  0  0  0  0
 14 16  1  0  0  0  0
 14 17  1  0  0  0  0
M  END
> <VConfSearch Rank>
702

> <Conf_Id>
43

> <Delta U+W>
0.642

> <U+W>
-15.222

> <U>
45.697

> <W>
-60.919

> <W(PB)>
-62.631

> <W(SA)>
1.712

> <Valence>
1.262

> <Coulomb>
44.179

> <VdW>
0.255

> <VdW6>
-3.552

> <VdW12>
3.807

> <Bond>
0.125

> <Angle>
0.616

> <Pdih>
0.521

> <Idih>
0.000

> <Tether>
0.000

$$$$
VeraChem MOL file


 17 16  0  0  0  0  0  0  0  0999 V2000     
   18.4643   17.0485   22.1606 N   0  3  0  0  0  0  0  0  0  0  0  0
   17.5612   17.5031   21.9950 H   0  0  0  0  0  0  0  0  0  0  0  0
   18.6185   17.0460   23.1735 H   0  0  0  0  0  0  0  0  0  0  0  0
   18.3602   16.0697   21.8743 H   0  0  0  0  0  0  0  0  0  0  0  0
   19.5913   17.7365   21.4163 C   0  0  0  0  0  0  0  0  0  0  0  0
   19.3764   17.6744   20.3460 H   0  0  0  0  0  0  0  0  0  0  0  0
   20.5133   17.1828   21.6132 H   0  0  0  0  0  0  0  0  0  0  0  0
   19.7759   19.2100   21.8223 C   0  0  0  0  0  0  0  0  0  0  0  0
   18.8431   19.7595   21.6376 H   0  0  0  0  0  0  0  0  0  0  0  0
   19.9763   19.2696   22.9004 H   0  0  0  0  0  0  0  0  0  0  0  0
   20.9322   19.8726   21.0416 C   0  0  0  0  0  0  0  0  0  0  0  0
   20.7337   19.8104   19.9622 H   0  0  0  0  0  0  0  0  0  0  0  0
   21.8656   19.3211   21.2235 H   0  0  0  0  0  0  0  0  0  0  0  0
   21.1233   21.3510   21.4436 C   0  0  0  0  0  0  0  0  0  0  0  0
   21.9486   21.8031   20.8783 H   0  0  0  0  0  0  0  0  0  0  0  0
   21.3576   21.4431   22.5122 H   0  0  0  0  0  0  0  0  0  0  0  0
   20.2168   21.9362   21.2410 H   0  0  0  0  0  0  0  0  0  0  0  0
  1  2  1  0  0  0  0
  1  3  1  0  0  0  0
  1  4  1  0  0  0  0
  1  5  1  0  0  0  0
  5  6  1  0  0  0  0
  5  7  1  0  0  0  0
  5  8  1  0  0  0  0
  8  9  1  0  0  0  0
  8 10  1  0  0  0  0
  8 11  1  0  0  0  0
 11 12  1  0  0  0  0
 11 13  1  0  0  0  0
 11 14  1  0  0  0  0
 14 15  1  0  0  0  0
 14 16  1  0  0  0  0
 14 17  1  0  0  0  0
M  END
> <VConfSearch Rank>
703

> <Conf_Id>
7

> <Delta U+W>
0.000

> <U+W>
-15.865

> <U>
44.664

> <W>
-60.529

> <W(PB)>
-62.309

> <W(SA)>
1.780

> <Valence>
0.872

> <Coulomb>
43.648

> <VdW>
0.144

> <VdW6>
-2.370

> <VdW12>
2.515

> <Bond>
0.080

> <Angle>
0.376

> <Pdih>
0.416

> <Idih>
0.000

> <Tether>
0.000

$$$$
VeraChem MOL file


 17 16  0  0  0  0  0  0  0  0999 V2000     
   19.3285   21.1806   22.6798 N   0  3  0  0  0  0  0  0  0  0  0  0
   19.0280   20.9864   23.6399 H   0  0  0  0  0  0  0  0  0  0  0  0
   18.4838   21.3767   22.1343 H   0  0  0  0  0  0  0  0  0  0  0  0
   19.8708   22.0499   22.7093 H   0  0  0  0  0  0  0  0  0  0  0  0
   20.1300   20.0357   22.0932 C   0  0  0  0  0  0  0  0  0  0  0  0
   21.0267   19.9028   22.7045 H   0  0  0  0  0  0  0  0  0  0  0  0
   20.4413   20.3251   21.0861 H   0  0  0  0  0  0  0  0  0  0  0  0
   19.3435   18.7121   22.0339 C   0  0  0  0  0  0  0  0  0  0  0  0
   19.0013   18.4514   23.0442 H   0  0  0  0  0  0  0  0  0  0  0  0
   18.4420   18.8461   21.4213 H   0  0  0  0  0  0  0  0  0  0  0  0
   20.1847   17.5432   21.4701 C   0  0  0  0  0  0  0  0  0  0  0  0
   19.5949   16.6177   21.5299 H   0  0  0  0  0  0  0  0  0  0  0  0
   21.0705   17.3861   22.1015 H   0  0  0  0  0  0  0  0  0  0  0  0
   20.6245   17.7668   20.0050 C   0  0  0  0  0  0  0  0  0  0  0  0
   19.7570   17.9325   19.3529 H   0  0  0  0  0  0  0  0  0  0  0  0
   21.1645   16.8891   19.6269 H   0  0  0  0  0  0  0  0  0  0  0  0
   21.2934   18.6318   19.9121 H   0  0  0  0  0  0  0  0  0  0  0  0
  1  2  1  0  0  0  0
  1  3  1  0  0  0  0
  1  4  1  0  0  0  0
  1  5  1  0  0  0  0
  5  6  1  0  0  0  0
  5  7  1  0  0  0  0
  5  8  1  0  0  0  0
  8  9  1  0  0  0  0
  8 10  1  0  0  0  0
  8 11  1  0  0  0  0
 11 12  1  0  0  0  0
 11 13  1  0  0  0  0
 11 14  1  0  0  0  0
 14 15  1  0  0  0  0
 14 16  1  0  0  0  0
 14 17  1  0  0  0  0
M  END
> <VConfSearch Rank>
704

> <Conf_Id>
36

> <Delta U+W>
0.275

> <U+W>
-15.590

> <U>
45.174

> <W>
-60.765

> <W(PB)>
-62.518

> <W(SA)>
1.754

> <Valence>
1.161

> <Coulomb>
43.789

> <VdW>
0.224

> <VdW6>
-2.897

> <VdW12>
3.121

> <Bond>
0.100

> <Angle>
0.500

> <Pdih>
0.561

> <Idih>
0.000

> <Tether>
0.000

$$$$
VeraChem MOL file


 17 16  0  0  0  0  0  0  0  0999 V2000     
   20.9693   17.5382   22.1422 N   0  3  0  0  0  0  0  0  0  0  0  0
   19.9938   17.4282   22.4304 H   0  0  0  0  0  0  0  0  0  0  0  0
   21.4926   17.8542   22.9643 H   0  0  0  0  0  0  0  0  0  0  0  0
   21.3221   16.6052   21.9059 H   0  0  0  0  0  0  0  0  0  0  0  0
   21.1071   18.5041   20.9811 C   0  0  0  0  0  0  0  0  0  0  0  0
   20.5880   18.0841   20.1154 H   0  0  0  0  0  0  0  0  0  0  0  0
   22.1719   18.5645   20.7400 H   0  0  0  0  0  0  0  0  0  0  0  0
   20.5759   19.9239   21.2704 C   0  0  0  0  0  0  0  0  0  0  0  0
   20.9025   20.2514   22.2663 H   0  0  0  0  0  0  0  0  0  0  0  0
   21.0502   20.6107   20.5570 H   0  0  0  0  0  0  0  0  0  0  0  0
   19.0398   20.0765   21.1295 C   0  0  0  0  0  0  0  0  0  0  0  0
   18.7336   19.8060   20.1092 H   0  0  0  0  0  0  0  0  0  0  0  0
   18.7850   21.1386   21.2517 H   0  0  0  0  0  0  0  0  0  0  0  0
   18.2197   19.2533   22.1487 C   0  0  0  0  0  0  0  0  0  0  0  0
   18.2752   18.1793   21.9361 H   0  0  0  0  0  0  0  0  0  0  0  0
   17.1601   19.5365   22.1019 H   0  0  0  0  0  0  0  0  0  0  0  0
   18.5665   19.4301   23.1752 H   0  0  0  0  0  0  0  0  0  0  0  0
  1  2  1  0  0  0  0
  1  3  1  0  0  0  0
  1  4  1  0  0  0  0
  1  5  1  0  0  0  0
  5  6  1  0  0  0  0
  5  7  1  0  0  0  0
  5  8  1  0  0  0  0
  8  9  1  0  0  0  0
  8 10  1  0  0  0  0
  8 11  1  0  0  0  0
 11 12  1  0  0  0  0
 11 13  1  0  0  0  0
 11 14  1  0  0  0  0
 14 15  1  0  0  0  0
 14 16  1  0  0  0  0
 14 17  1  0  0  0  0
M  END
> <VConfSearch Rank>
705

> <Conf_Id>
19

> <Delta U+W>
2.662

> <U+W>
-13.203

> <U>
47.423

> <W>
-60.626

> <W(PB)>
-62.328

> <W(SA)>
1.702

> <Valence>
2.414

> <Coulomb>
44.831

> <VdW>
0.178

> <VdW6>
-3.743

> <VdW12>
3.921

> <Bond>
0.138

> <Angle>
0.941

> <Pdih>
1.335

> <Idih>
0.000

> <Tether>
0.000

$$$$
VeraChem MOL file


 17 16  0  0  0  0  0  0  0  0999 V2000     
   20.7519   18.6617   20.0079 N   0  3  0  0  0  0  0  0  0  0  0  0
   20.8943   18.9156   19.0250 H   0  0  0  0  0  0  0  0  0  0  0  0
   21.1728   17.7371   20.1399 H   0  0  0  0  0  0  0  0  0  0  0  0
   21.2930   19.3220   20.5719 H   0  0  0  0  0  0  0  0  0  0  0  0
   19.2832   18.6713   20.3859 C   0  0  0  0  0  0  0  0  0  0  0  0
   18.7826   17.9427   19.7425 H   0  0  0  0  0  0  0  0  0  0  0  0
   18.8723   19.6592   20.1609 H   0  0  0  0  0  0  0  0  0  0  0  0
   19.0054   18.3138   21.8613 C   0  0  0  0  0  0  0  0  0  0  0  0
   17.9618   17.9802   21.9342 H   0  0  0  0  0  0  0  0  0  0  0  0
   19.6183   17.4534   22.1610 H   0  0  0  0  0  0  0  0  0  0  0  0
   19.2011   19.4874   22.8548 C   0  0  0  0  0  0  0  0  0  0  0  0
   18.8775   19.1548   23.8512 H   0  0  0  0  0  0  0  0  0  0  0  0
   18.5358   20.3183   22.5810 H   0  0  0  0  0  0  0  0  0  0  0  0
   20.6545   20.0033   22.9562 C   0  0  0  0  0  0  0  0  0  0  0  0
   21.3582   19.1800   23.1355 H   0  0  0  0  0  0  0  0  0  0  0  0
   20.7499   20.7104   23.7905 H   0  0  0  0  0  0  0  0  0  0  0  0
   20.9567   20.5359   22.0469 H   0  0  0  0  0  0  0  0  0  0  0  0
  1  2  1  0  0  0  0
  1  3  1  0  0  0  0
  1  4  1  0  0  0  0
  1  5  1  0  0  0  0
  5  6  1  0  0  0  0
  5  7  1  0  0  0  0
  5  8  1  0  0  0  0
  8  9  1  0  0  0  0
  8 10  1  0  0  0  0
  8 11  1  0  0  0  0
 11 12  1  0  0  0  0
 11 13  1  0  0  0  0
 11 14  1  0  0  0  0
 14 15  1  0  0  0  0
 14 16  1  0  0  0  0
 14 17  1  0  0  0  0
M  END
> <VConfSearch Rank>
706

> <Conf_Id>
44

> <Delta U+W>
2.712

> <U+W>
-13.153

> <U>
47.423

> <W>
-60.576

> <W(PB)>
-62.262

> <W(SA)>
1.687

> <Valence>
2.414

> <Coulomb>
44.831

> <VdW>
0.178

> <VdW6>
-3.743

> <VdW12>
3.922

> <Bond>
0.138

> <Angle>
0.941

> <Pdih>
1.335

> <Idih>
0.000

> <Tether>
0.000

$$$$
VeraChem MOL file


 17 16  0  0  0  0  0  0  0  0999 V2000     
   18.5036   20.2412   22.3042 N   0  3  0  0  0  0  0  0  0  0  0  0
   18.2851   19.2956   22.6305 H   0  0  0  0  0  0  0  0  0  0  0  0
   17.8172   20.4784   21.5817 H   0  0  0  0  0  0  0  0  0  0  0  0
   18.3375   20.8755   23.0921 H   0  0  0  0  0  0  0  0  0  0  0  0
   19.9261   20.3429   21.7885 C   0  0  0  0  0  0  0  0  0  0  0  0
   20.6038   20.1074   22.6131 H   0  0  0  0  0  0  0  0  0  0  0  0
   20.1001   21.3816   21.4943 H   0  0  0  0  0  0  0  0  0  0  0  0
   20.2220   19.4165   20.5909 C   0  0  0  0  0  0  0  0  0  0  0  0
   19.5645   19.6877   19.7544 H   0  0  0  0  0  0  0  0  0  0  0  0
   21.2477   19.6043   20.2467 H   0  0  0  0  0  0  0  0  0  0  0  0
   20.0585   17.9086   20.9055 C   0  0  0  0  0  0  0  0  0  0  0  0
   20.2744   17.3319   19.9952 H   0  0  0  0  0  0  0  0  0  0  0  0
   19.0138   17.6878   21.1633 H   0  0  0  0  0  0  0  0  0  0  0  0
   20.9887   17.4224   22.0404 C   0  0  0  0  0  0  0  0  0  0  0  0
   22.0405   17.6313   21.8053 H   0  0  0  0  0  0  0  0  0  0  0  0
   20.8868   16.3389   22.1843 H   0  0  0  0  0  0  0  0  0  0  0  0
   20.7485   17.9069   22.9951 H   0  0  0  0  0  0  0  0  0  0  0  0
  1  2  1  0  0  0  0
  1  3  1  0  0  0  0
  1  4  1  0  0  0  0
  1  5  1  0  0  0  0
  5  6  1  0  0  0  0
  5  7  1  0  0  0  0
  5  8  1  0  0  0  0
  8  9  1  0  0  0  0
  8 10  1  0  0  0  0
  8 11  1  0  0  0  0
 11 12  1  0  0  0  0
 11 13  1  0  0  0  0
 11 14  1  0  0  0  0
 14 15  1  0  0  0  0
 14 16  1  0  0  0  0
 14 17  1  0  0  0  0
M  END
> <VConfSearch Rank>
707

> <Conf_Id>
1

> <Delta U+W>
0.685

> <U+W>
-15.179

> <U>
45.697

> <W>
-60.876

> <W(PB)>
-62.586

> <W(SA)>
1.710

> <Valence>
1.263

> <Coulomb>
44.179

> <VdW>
0.255

> <VdW6>
-3.552

> <VdW12>
3.807

> <Bond>
0.125

> <Angle>
0.616

> <Pdih>
0.521

> <Idih>
0.000

> <Tether>
0.000

$$$$
VeraChem MOL file


 17 16  0  0  0  0  0  0  0  0999 V2000     
   20.4129   20.7366   22.4909 N   0  3  0  0  0  0  0  0  0  0  0  0
   20.4292   20.6370   23.5103 H   0  0  0  0  0  0  0  0  0  0  0  0
   19.4313   20.8134   22.2099 H   0  0  0  0  0  0  0  0  0  0  0  0
   20.8578   21.6338   22.2724 H   0  0  0  0  0  0  0  0  0  0  0  0
   21.1068   19.5796   21.7983 C   0  0  0  0  0  0  0  0  0  0  0  0
   22.1534   19.5814   22.1147 H   0  0  0  0  0  0  0  0  0  0  0  0
   21.0793   19.7630   20.7211 H   0  0  0  0  0  0  0  0  0  0  0  0
   20.4821   18.2034   22.1078 C   0  0  0  0  0  0  0  0  0  0  0  0
   21.0846   17.4263   21.6192 H   0  0  0  0  0  0  0  0  0  0  0  0
   20.5513   18.0106   23.1866 H   0  0  0  0  0  0  0  0  0  0  0  0
   19.0074   18.0646   21.6544 C   0  0  0  0  0  0  0  0  0  0  0  0
   18.3751   18.7755   22.2035 H   0  0  0  0  0  0  0  0  0  0  0  0
   18.6459   17.0634   21.9280 H   0  0  0  0  0  0  0  0  0  0  0  0
   18.8198   18.2680   20.1335 C   0  0  0  0  0  0  0  0  0  0  0  0
   17.7738   18.0964   19.8482 H   0  0  0  0  0  0  0  0  0  0  0  0
   19.4419   17.5669   19.5620 H   0  0  0  0  0  0  0  0  0  0  0  0
   19.0833   19.2880   19.8268 H   0  0  0  0  0  0  0  0  0  0  0  0
  1  2  1  0  0  0  0
  1  3  1  0  0  0  0
  1  4  1  0  0  0  0
  1  5  1  0  0  0  0
  5  6  1  0  0  0  0
  5  7  1  0  0  0  0
  5  8  1  0  0  0  0
  8  9  1  0  0  0  0
  8 10  1  0  0  0  0
  8 11  1  0  0  0  0
 11 12  1  0  0  0  0
 11 13  1  0  0  0  0
 11 14  1  0  0  0  0
 14 15  1  0  0  0  0
 14 16  1  0  0  0  0
 14 17  1  0  0  0  0
M  END
> <VConfSearch Rank>
708

> <Conf_Id>
43

> <Delta U+W>
0.642

> <U+W>
-15.222

> <U>
45.697

> <W>
-60.919

> <W(PB)>
-62.631

> <W(SA)>
1.712

> <Valence>
1.262

> <Coulomb>
44.179

> <VdW>
0.255

> <VdW6>
-3.552

> <VdW12>
3.807

> <Bond>
0.125

> <Angle>
0.616

> <Pdih>
0.521

> <Idih>
0.000

> <Tether>
0.000

$$$$
VeraChem MOL file


 17 16  0  0  0  0  0  0  0  0999 V2000     
   19.1536   17.2510   23.2356 N   0  3  0  0  0  0  0  0  0  0  0  0
   20.0410   16.7458   23.3202 H   0  0  0  0  0  0  0  0  0  0  0  0
   18.5707   16.7265   22.5763 H   0  0  0  0  0  0  0  0  0  0  0  0
   18.6921   17.1941   24.1492 H   0  0  0  0  0  0  0  0  0  0  0  0
   19.3575   18.6870   22.7957 C   0  0  0  0  0  0  0  0  0  0  0  0
   19.9586   19.1913   23.5572 H   0  0  0  0  0  0  0  0  0  0  0  0
   18.3776   19.1706   22.7572 H   0  0  0  0  0  0  0  0  0  0  0  0
   20.0491   18.8095   21.4257 C   0  0  0  0  0  0  0  0  0  0  0  0
   21.0260   18.3094   21.4636 H   0  0  0  0  0  0  0  0  0  0  0  0
   19.4504   18.2889   20.6664 H   0  0  0  0  0  0  0  0  0  0  0  0
   20.2373   20.2867   21.0157 C   0  0  0  0  0  0  0  0  0  0  0  0
   20.8337   20.8092   21.7770 H   0  0  0  0  0  0  0  0  0  0  0  0
   19.2600   20.7887   20.9807 H   0  0  0  0  0  0  0  0  0  0  0  0
   20.9306   20.4174   19.6423 C   0  0  0  0  0  0  0  0  0  0  0  0
   21.0549   21.4735   19.3695 H   0  0  0  0  0  0  0  0  0  0  0  0
   20.3397   19.9337   18.8535 H   0  0  0  0  0  0  0  0  0  0  0  0
   21.9258   19.9543   19.6561 H   0  0  0  0  0  0  0  0  0  0  0  0
  1  2  1  0  0  0  0
  1  3  1  0  0  0  0
  1  4  1  0  0  0  0
  1  5  1  0  0  0  0
  5  6  1  0  0  0  0
  5  7  1  0  0  0  0
  5  8  1  0  0  0  0
  8  9  1  0  0  0  0
  8 10  1  0  0  0  0
  8 11  1  0  0  0  0
 11 12  1  0  0  0  0
 11 13  1  0  0  0  0
 11 14  1  0  0  0  0
 14 15  1  0  0  0  0
 14 16  1  0  0  0  0
 14 17  1  0  0  0  0
M  END
> <VConfSearch Rank>
709

> <Conf_Id>
7

> <Delta U+W>
0.000

> <U+W>
-15.865

> <U>
44.664

> <W>
-60.529

> <W(PB)>
-62.309

> <W(SA)>
1.780

> <Valence>
0.872

> <Coulomb>
43.648

> <VdW>
0.144

> <VdW6>
-2.370

> <VdW12>
2.515

> <Bond>
0.080

> <Angle>
0.376

> <Pdih>
0.416

> <Idih>
0.000

> <Tether>
0.000

$$$$
VeraChem MOL file


 17 16  0  0  0  0  0  0  0  0999 V2000     
   19.2300   17.6560   19.8132 N   0  3  0  0  0  0  0  0  0  0  0  0
   19.9920   17.5914   19.1313 H   0  0  0  0  0  0  0  0  0  0  0  0
   18.5176   18.2723   19.4105 H   0  0  0  0  0  0  0  0  0  0  0  0
   18.8115   16.7225   19.8789 H   0  0  0  0  0  0  0  0  0  0  0  0
   19.7144   18.1527   21.1607 C   0  0  0  0  0  0  0  0  0  0  0  0
   20.4457   17.4352   21.5425 H   0  0  0  0  0  0  0  0  0  0  0  0
   18.8591   18.1655   21.8412 H   0  0  0  0  0  0  0  0  0  0  0  0
   20.3496   19.5551   21.0979 C   0  0  0  0  0  0  0  0  0  0  0  0
   21.1821   19.5412   20.3819 H   0  0  0  0  0  0  0  0  0  0  0  0
   19.6156   20.2754   20.7129 H   0  0  0  0  0  0  0  0  0  0  0  0
   20.8750   20.0339   22.4714 C   0  0  0  0  0  0  0  0  0  0  0  0
   21.3846   20.9991   22.3419 H   0  0  0  0  0  0  0  0  0  0  0  0
   21.6343   19.3314   22.8429 H   0  0  0  0  0  0  0  0  0  0  0  0
   19.7548   20.1927   23.5250 C   0  0  0  0  0  0  0  0  0  0  0  0
   18.9790   20.8862   23.1753 H   0  0  0  0  0  0  0  0  0  0  0  0
   20.1623   20.5917   24.4629 H   0  0  0  0  0  0  0  0  0  0  0  0
   19.2775   19.2316   23.7543 H   0  0  0  0  0  0  0  0  0  0  0  0
  1  2  1  0  0  0  0
  1  3  1  0  0  0  0
  1  4  1  0  0  0  0
  1  5  1  0  0  0  0
  5  6  1  0  0  0  0
  5  7  1  0  0  0  0
  5  8  1  0  0  0  0
  8  9  1  0  0  0  0
  8 10  1  0  0  0  0
  8 11  1  0  0  0  0
 11 12  1  0  0  0  0
 11 13  1  0  0  0  0
 11 14  1  0  0  0  0
 14 15  1  0  0  0  0
 14 16  1  0  0  0  0
 14 17  1  0  0  0  0
M  END
> <VConfSearch Rank>
710

> <Conf_Id>
36

> <Delta U+W>
0.275

> <U+W>
-15.590

> <U>
45.174

> <W>
-60.765

> <W(PB)>
-62.518

> <W(SA)>
1.754

> <Valence>
1.161

> <Coulomb>
43.789

> <VdW>
0.224

> <VdW6>
-2.897

> <VdW12>
3.121

> <Bond>
0.100

> <Angle>
0.500

> <Pdih>
0.561

> <Idih>
0.000

> <Tether>
0.000

$$$$
VeraChem MOL file


 17 16  0  0  0  0  0  0  0  0999 V2000     
   20.3160   20.6635   20.8921 N   0  3  0  0  0  0  0  0  0  0  0  0
   19.3125   20.4655   20.8637 H   0  0  0  0  0  0  0  0  0  0  0  0
   20.6829   20.4961   19.9504 H   0  0  0  0  0  0  0  0  0  0  0  0
   20.4213   21.6660   21.0784 H   0  0  0  0  0  0  0  0  0  0  0  0
   21.0264   19.8187   21.9321 C   0  0  0  0  0  0  0  0  0  0  0  0
   20.6432   20.0877   22.9201 H   0  0  0  0  0  0  0  0  0  0  0  0
   22.0851   20.0895   21.8952 H   0  0  0  0  0  0  0  0  0  0  0  0
   20.8889   18.2970   21.7152 C   0  0  0  0  0  0  0  0  0  0  0  0
   21.0344   18.0542   20.6542 H   0  0  0  0  0  0  0  0  0  0  0  0
   21.7119   17.8065   22.2519 H   0  0  0  0  0  0  0  0  0  0  0  0
   19.5574   17.6922   22.2291 C   0  0  0  0  0  0  0  0  0  0  0  0
   19.4540   17.8875   23.3057 H   0  0  0  0  0  0  0  0  0  0  0  0
   19.6097   16.5995   22.1222 H   0  0  0  0  0  0  0  0  0  0  0  0
   18.2981   18.1992   21.4903 C   0  0  0  0  0  0  0  0  0  0  0  0
   18.0820   19.2457   21.7352 H   0  0  0  0  0  0  0  0  0  0  0  0
   17.4201   17.6109   21.7873 H   0  0  0  0  0  0  0  0  0  0  0  0
   18.4093   18.1052   20.4022 H   0  0  0  0  0  0  0  0  0  0  0  0
  1  2  1  0  0  0  0
  1  3  1  0  0  0  0
  1  4  1  0  0  0  0
  1  5  1  0  0  0  0
  5  6  1  0  0  0  0
  5  7  1  0  0  0  0
  5  8  1  0  0  0  0
  8  9  1  0  0  0  0
  8 10  1  0  0  0  0
  8 11  1  0  0  0  0
 11 12  1  0  0  0  0
 11 13  1  0  0  0  0
 11 14  1  0  0  0  0
 14 15  1  0  0  0  0
 14 16  1  0  0  0  0
 14 17  1  0  0  0  0
M  END
> <VConfSearch Rank>
711

> <Conf_Id>
19

> <Delta U+W>
2.662

> <U+W>
-13.203

> <U>
47.423

> <W>
-60.626

> <W(PB)>
-62.328

> <W(SA)>
1.702

> <Valence>
2.414

> <Coulomb>
44.831

> <VdW>
0.178

> <VdW6>
-3.743

> <VdW12>
3.921

> <Bond>
0.138

> <Angle>
0.941

> <Pdih>
1.335

> <Idih>
0.000

> <Tether>
0.000

$$$$
VeraChem MOL file


 17 16  0  0  0  0  0  0  0  0999 V2000     
   19.3111   20.3116   20.3481 N   0  3  0  0  0  0  0  0  0  0  0  0
   19.5752   21.0952   19.7422 H   0  0  0  0  0  0  0  0  0  0  0  0
   18.2873   20.2740   20.3558 H   0  0  0  0  0  0  0  0  0  0  0  0
   19.6403   19.4553   19.8951 H   0  0  0  0  0  0  0  0  0  0  0  0
   19.8799   20.4626   21.7459 C   0  0  0  0  0  0  0  0  0  0  0  0
   19.4794   21.3941   22.1552 H   0  0  0  0  0  0  0  0  0  0  0  0
   20.9657   20.5660   21.6705 H   0  0  0  0  0  0  0  0  0  0  0  0
   19.5308   19.3024   22.7016 C   0  0  0  0  0  0  0  0  0  0  0  0
   19.6434   19.6703   23.7301 H   0  0  0  0  0  0  0  0  0  0  0  0
   18.4722   19.0317   22.5928 H   0  0  0  0  0  0  0  0  0  0  0  0
   20.4271   18.0476   22.5437 C   0  0  0  0  0  0  0  0  0  0  0  0
   20.1636   17.3322   23.3353 H   0  0  0  0  0  0  0  0  0  0  0  0
   21.4777   18.3197   22.7175 H   0  0  0  0  0  0  0  0  0  0  0  0
   20.2982   17.3382   21.1765 C   0  0  0  0  0  0  0  0  0  0  0  0
   19.2477   17.1373   20.9292 H   0  0  0  0  0  0  0  0  0  0  0  0
   20.8256   16.3756   21.1961 H   0  0  0  0  0  0  0  0  0  0  0  0
   20.7443   17.9330   20.3710 H   0  0  0  0  0  0  0  0  0  0  0  0
  1  2  1  0  0  0  0
  1  3  1  0  0  0  0
  1  4  1  0  0  0  0
  1  5  1  0  0  0  0
  5  6  1  0  0  0  0
  5  7  1  0  0  0  0
  5  8  1  0  0  0  0
  8  9  1  0  0  0  0
  8 10  1  0  0  0  0
  8 11  1  0  0  0  0
 11 12  1  0  0  0  0
 11 13  1  0  0  0  0
 11 14  1  0  0  0  0
 14 15  1  0  0  0  0
 14 16  1  0  0  0  0
 14 17  1  0  0  0  0
M  END
> <VConfSearch Rank>
712

> <Conf_Id>
44

> <Delta U+W>
2.712

> <U+W>
-13.153

> <U>
47.423

> <W>
-60.576

> <W(PB)>
-62.262

> <W(SA)>
1.687

> <Valence>
2.414

> <Coulomb>
44.831

> <VdW>
0.178

> <VdW6>
-3.743

> <VdW12>
3.922

> <Bond>
0.138

> <Angle>
0.941

> <Pdih>
1.335

> <Idih>
0.000

> <Tether>
0.000

$$$$
VeraChem MOL file


 17 16  0  0  0  0  0  0  0  0999 V2000     
   21.8664   18.6498   21.6359 N   0  3  0  0  0  0  0  0  0  0  0  0
   21.7005   19.4182   22.2919 H   0  0  0  0  0  0  0  0  0  0  0  0
   22.3443   19.0454   20.8207 H   0  0  0  0  0  0  0  0  0  0  0  0
   22.5274   18.0090   22.0865 H   0  0  0  0  0  0  0  0  0  0  0  0
   20.5765   17.9510   21.2514 C   0  0  0  0  0  0  0  0  0  0  0  0
   20.1358   17.5289   22.1583 H   0  0  0  0  0  0  0  0  0  0  0  0
   20.8322   17.1238   20.5836 H   0  0  0  0  0  0  0  0  0  0  0  0
   19.5529   18.8717   20.5554 C   0  0  0  0  0  0  0  0  0  0  0  0
   19.9900   19.2583   19.6252 H   0  0  0  0  0  0  0  0  0  0  0  0
   18.6843   18.2695   20.2577 H   0  0  0  0  0  0  0  0  0  0  0  0
   19.0749   20.0573   21.4303 C   0  0  0  0  0  0  0  0  0  0  0  0
   18.3640   20.6615   20.8494 H   0  0  0  0  0  0  0  0  0  0  0  0
   19.9193   20.7211   21.6606 H   0  0  0  0  0  0  0  0  0  0  0  0
   18.3947   19.6055   22.7429 C   0  0  0  0  0  0  0  0  0  0  0  0
   17.5454   18.9407   22.5387 H   0  0  0  0  0  0  0  0  0  0  0  0
   18.0147   20.4730   23.2980 H   0  0  0  0  0  0  0  0  0  0  0  0
   19.0955   19.0741   23.3990 H   0  0  0  0  0  0  0  0  0  0  0  0
  1  2  1  0  0  0  0
  1  3  1  0  0  0  0
  1  4  1  0  0  0  0
  1  5  1  0  0  0  0
  5  6  1  0  0  0  0
  5  7  1  0  0  0  0
  5  8  1  0  0  0  0
  8  9  1  0  0  0  0
  8 10  1  0  0  0  0
  8 11  1  0  0  0  0
 11 12  1  0  0  0  0
 11 13  1  0  0  0  0
 11 14  1  0  0  0  0
 14 15  1  0  0  0  0
 14 16  1  0  0  0  0
 14 17  1  0  0  0  0
M  END
> <VConfSearch Rank>
713

> <Conf_Id>
1

> <Delta U+W>
0.685

> <U+W>
-15.179

> <U>
45.697

> <W>
-60.876

> <W(PB)>
-62.586

> <W(SA)>
1.710

> <Valence>
1.263

> <Coulomb>
44.179

> <VdW>
0.255

> <VdW6>
-3.552

> <VdW12>
3.807

> <Bond>
0.125

> <Angle>
0.616

> <Pdih>
0.521

> <Idih>
0.000

> <Tether>
0.000

$$$$
VeraChem MOL file


 17 16  0  0  0  0  0  0  0  0999 V2000     
   18.8715   19.1185   23.2805 N   0  3  0  0  0  0  0  0  0  0  0  0
   18.9503   18.2511   23.8198 H   0  0  0  0  0  0  0  0  0  0  0  0
   18.2098   18.9425   22.5192 H   0  0  0  0  0  0  0  0  0  0  0  0
   18.4401   19.8143   23.8972 H   0  0  0  0  0  0  0  0  0  0  0  0
   20.2171   19.5844   22.7588 C   0  0  0  0  0  0  0  0  0  0  0  0
   20.8566   19.7880   23.6220 H   0  0  0  0  0  0  0  0  0  0  0  0
   20.0659   20.5242   22.2214 H   0  0  0  0  0  0  0  0  0  0  0  0
   20.9146   18.5638   21.8359 C   0  0  0  0  0  0  0  0  0  0  0  0
   21.9026   18.9564   21.5613 H   0  0  0  0  0  0  0  0  0  0  0  0
   21.0988   17.6379   22.3967 H   0  0  0  0  0  0  0  0  0  0  0  0
   20.1211   18.2348   20.5469 C   0  0  0  0  0  0  0  0  0  0  0  0
   19.1664   17.7556   20.8031 H   0  0  0  0  0  0  0  0  0  0  0  0
   20.6853   17.4936   19.9636 H   0  0  0  0  0  0  0  0  0  0  0  0
   19.8599   19.4760   19.6632 C   0  0  0  0  0  0  0  0  0  0  0  0
   19.3544   19.1867   18.7327 H   0  0  0  0  0  0  0  0  0  0  0  0
   20.8007   19.9726   19.3924 H   0  0  0  0  0  0  0  0  0  0  0  0
   19.2209   20.2078   20.1732 H   0  0  0  0  0  0  0  0  0  0  0  0
  1  2  1  0  0  0  0
  1  3  1  0  0  0  0
  1  4  1  0  0  0  0
  1  5  1  0  0  0  0
  5  6  1  0  0  0  0
  5  7  1  0  0  0  0
  5  8  1  0  0  0  0
  8  9  1  0  0  0  0
  8 10  1  0  0  0  0
  8 11  1  0  0  0  0
 11 12  1  0  0  0  0
 11 13  1  0  0  0  0
 11 14  1  0  0  0  0
 14 15  1  0  0  0  0
 14 16  1  0  0  0  0
 14 17  1  0  0  0  0
M  END
> <VConfSearch Rank>
714

> <Conf_Id>
43

> <Delta U+W>
0.642

> <U+W>
-15.222

> <U>
45.697

> <W>
-60.919

> <W(PB)>
-62.631

> <W(SA)>
1.712

> <Valence>
1.262

> <Coulomb>
44.179

> <VdW>
0.255

> <VdW6>
-3.552

> <VdW12>
3.807

> <Bond>
0.125

> <Angle>
0.616

> <Pdih>
0.521

> <Idih>
0.000

> <Tether>
0.000

$$$$
VeraChem MOL file


 17 16  0  0  0  0  0  0  0  0999 V2000     
   18.1210   17.2784   21.8061 N   0  3  0  0  0  0  0  0  0  0  0  0
   18.7215   16.4562   21.6923 H   0  0  0  0  0  0  0  0  0  0  0  0
   17.6698   17.4487   20.9021 H   0  0  0  0  0  0  0  0  0  0  0  0
   17.3790   17.0147   22.4625 H   0  0  0  0  0  0  0  0  0  0  0  0
   18.8980   18.4866   22.2896 C   0  0  0  0  0  0  0  0  0  0  0  0
   19.3237   18.2450   23.2673 H   0  0  0  0  0  0  0  0  0  0  0  0
   18.1928   19.3124   22.4177 H   0  0  0  0  0  0  0  0  0  0  0  0
   20.0217   18.9106   21.3264 C   0  0  0  0  0  0  0  0  0  0  0  0
   20.7193   18.0738   21.1881 H   0  0  0  0  0  0  0  0  0  0  0  0
   19.5923   19.1376   20.3415 H   0  0  0  0  0  0  0  0  0  0  0  0
   20.7873   20.1431   21.8559 C   0  0  0  0  0  0  0  0  0  0  0  0
   21.2145   19.9175   22.8432 H   0  0  0  0  0  0  0  0  0  0  0  0
   20.0889   20.9800   21.9976 H   0  0  0  0  0  0  0  0  0  0  0  0
   21.9162   20.5742   20.8948 C   0  0  0  0  0  0  0  0  0  0  0  0
   22.4474   21.4504   21.2887 H   0  0  0  0  0  0  0  0  0  0  0  0
   21.5153   20.8396   19.9078 H   0  0  0  0  0  0  0  0  0  0  0  0
   22.6498   19.7687   20.7601 H   0  0  0  0  0  0  0  0  0  0  0  0
  1  2  1  0  0  0  0
  1  3  1  0  0  0  0
  1  4  1  0  0  0  0
  1  5  1  0  0  0  0
  5  6  1  0  0  0  0
  5  7  1  0  0  0  0
  5  8  1  0  0  0  0
  8  9  1  0  0  0  0
  8 10  1  0  0  0  0
  8 11  1  0  0  0  0
 11 12  1  0  0  0  0
 11 13  1  0  0  0  0
 11 14  1  0  0  0  0
 14 15  1  0  0  0  0
 14 16  1  0  0  0  0
 14 17  1  0  0  0  0
M  END
> <VConfSearch Rank>
715

> <Conf_Id>
7

> <Delta U+W>
0.000

> <U+W>
-15.865

> <U>
44.664

> <W>
-60.529

> <W(PB)>
-62.309

> <W(SA)>
1.780

> <Valence>
0.872

> <Coulomb>
43.648

> <VdW>
0.144

> <VdW6>
-2.370

> <VdW12>
2.515

> <Bond>
0.080

> <Angle>
0.376

> <Pdih>
0.416

> <Idih>
0.000

> <Tether>
0.000

$$$$
VeraChem MOL file


 17 16  0  0  0  0  0  0  0  0999 V2000     
   20.7301   17.3932   23.1320 N   0  3  0  0  0  0  0  0  0  0  0  0
   21.4677   17.7954   23.7184 H   0  0  0  0  0  0  0  0  0  0  0  0
   21.1898   16.7955   22.4383 H   0  0  0  0  0  0  0  0  0  0  0  0
   20.1762   16.7760   23.7345 H   0  0  0  0  0  0  0  0  0  0  0  0
   19.8749   18.4626   22.4822 C   0  0  0  0  0  0  0  0  0  0  0  0
   19.3940   19.0398   23.2766 H   0  0  0  0  0  0  0  0  0  0  0  0
   19.0953   17.9625   21.9017 H   0  0  0  0  0  0  0  0  0  0  0  0
   20.6771   19.4088   21.5683 C   0  0  0  0  0  0  0  0  0  0  0  0
   21.4821   19.8754   22.1514 H   0  0  0  0  0  0  0  0  0  0  0  0
   21.1614   18.8289   20.7714 H   0  0  0  0  0  0  0  0  0  0  0  0
   19.8006   20.5188   20.9425 C   0  0  0  0  0  0  0  0  0  0  0  0
   20.4442   21.2020   20.3708 H   0  0  0  0  0  0  0  0  0  0  0  0
   19.3414   21.1212   21.7390 H   0  0  0  0  0  0  0  0  0  0  0  0
   18.6991   19.9651   20.0097 C   0  0  0  0  0  0  0  0  0  0  0  0
   19.1316   19.3534   19.2072 H   0  0  0  0  0  0  0  0  0  0  0  0
   18.1425   20.7870   19.5411 H   0  0  0  0  0  0  0  0  0  0  0  0
   17.9772   19.3483   20.5597 H   0  0  0  0  0  0  0  0  0  0  0  0
  1  2  1  0  0  0  0
  1  3  1  0  0  0  0
  1  4  1  0  0  0  0
  1  5  1  0  0  0  0
  5  6  1  0  0  0  0
  5  7  1  0  0  0  0
  5  8  1  0  0  0  0
  8  9  1  0  0  0  0
  8 10  1  0  0  0  0
  8 11  1  0  0  0  0
 11 12  1  0  0  0  0
 11 13  1  0  0  0  0
 11 14  1  0  0  0  0
 14 15  1  0  0  0  0
 14 16  1  0  0  0  0
 14 17  1  0  0  0  0
M  END
> <VConfSearch Rank>
716

> <Conf_Id>
36

> <Delta U+W>
0.275

> <U+W>
-15.590

> <U>
45.174

> <W>
-60.765

> <W(PB)>
-62.518

> <W(SA)>
1.754

> <Valence>
1.161

> <Coulomb>
43.789

> <VdW>
0.224

> <VdW6>
-2.897

> <VdW12>
3.121

> <Bond>
0.100

> <Angle>
0.500

> <Pdih>
0.561

> <Idih>
0.000

> <Tether>
0.000

$$$$
VeraChem MOL file


 17 16  0  0  0  0  0  0  0  0999 V2000     
   21.0905   17.5772   21.2285 N   0  3  0  0  0  0  0  0  0  0  0  0
   20.3072   17.2725   21.8119 H   0  0  0  0  0  0  0  0  0  0  0  0
   21.8975   17.6997   21.8476 H   0  0  0  0  0  0  0  0  0  0  0  0
   21.3160   16.8025   20.5961 H   0  0  0  0  0  0  0  0  0  0  0  0
   20.7647   18.8489   20.4691 C   0  0  0  0  0  0  0  0  0  0  0  0
   19.9438   18.6408   19.7777 H   0  0  0  0  0  0  0  0  0  0  0  0
   21.6484   19.1034   19.8775 H   0  0  0  0  0  0  0  0  0  0  0  0
   20.3990   20.0487   21.3682 C   0  0  0  0  0  0  0  0  0  0  0  0
   21.0940   20.1080   22.2163 H   0  0  0  0  0  0  0  0  0  0  0  0
   20.5574   20.9652   20.7844 H   0  0  0  0  0  0  0  0  0  0  0  0
   18.9329   20.0516   21.8713 C   0  0  0  0  0  0  0  0  0  0  0  0
   18.2474   20.0559   21.0122 H   0  0  0  0  0  0  0  0  0  0  0  0
   18.7531   20.9936   22.4081 H   0  0  0  0  0  0  0  0  0  0  0  0
   18.5766   18.8754   22.8085 C   0  0  0  0  0  0  0  0  0  0  0  0
   18.5375   17.9247   22.2642 H   0  0  0  0  0  0  0  0  0  0  0  0
   17.5861   19.0316   23.2555 H   0  0  0  0  0  0  0  0  0  0  0  0
   19.3012   18.7852   23.6283 H   0  0  0  0  0  0  0  0  0  0  0  0
  1  2  1  0  0  0  0
  1  3  1  0  0  0  0
  1  4  1  0  0  0  0
  1  5  1  0  0  0  0
  5  6  1  0  0  0  0
  5  7  1  0  0  0  0
  5  8  1  0  0  0  0
  8  9  1  0  0  0  0
  8 10  1  0  0  0  0
  8 11  1  0  0  0  0
 11 12  1  0  0  0  0
 11 13  1  0  0  0  0
 11 14  1  0  0  0  0
 14 15  1  0  0  0  0
 14 16  1  0  0  0  0
 14 17  1  0  0  0  0
M  END
> <VConfSearch Rank>
717

> <Conf_Id>
19

> <Delta U+W>
2.662

> <U+W>
-13.203

> <U>
47.423

> <W>
-60.626

> <W(PB)>
-62.328

> <W(SA)>
1.702

> <Valence>
2.414

> <Coulomb>
44.831

> <VdW>
0.178

> <VdW6>
-3.743

> <VdW12>
3.921

> <Bond>
0.138

> <Angle>
0.941

> <Pdih>
1.335

> <Idih>
0.000

> <Tether>
0.000

$$$$
VeraChem MOL file


 17 16  0  0  0  0  0  0  0  0999 V2000     
   21.6958   18.6658   21.6580 N   0  3  0  0  0  0  0  0  0  0  0  0
   22.4118   17.9330   21.6246 H   0  0  0  0  0  0  0  0  0  0  0  0
   22.1630   19.5238   21.9663 H   0  0  0  0  0  0  0  0  0  0  0  0
   21.3802   18.8235   20.6975 H   0  0  0  0  0  0  0  0  0  0  0  0
   20.5462   18.2902   22.5730 C   0  0  0  0  0  0  0  0  0  0  0  0
   20.9671   18.1429   23.5713 H   0  0  0  0  0  0  0  0  0  0  0  0
   20.1314   17.3361   22.2371 H   0  0  0  0  0  0  0  0  0  0  0  0
   19.4256   19.3484   22.6510 C   0  0  0  0  0  0  0  0  0  0  0  0
   18.8673   19.1770   23.5809 H   0  0  0  0  0  0  0  0  0  0  0  0
   19.8622   20.3518   22.7425 H   0  0  0  0  0  0  0  0  0  0  0  0
   18.4171   19.3045   21.4747 C   0  0  0  0  0  0  0  0  0  0  0  0
   17.6106   20.0215   21.6834 H   0  0  0  0  0  0  0  0  0  0  0  0
   17.9405   18.3149   21.4333 H   0  0  0  0  0  0  0  0  0  0  0  0
   19.0289   19.6396   20.0955 C   0  0  0  0  0  0  0  0  0  0  0  0
   19.5947   20.5798   20.1282 H   0  0  0  0  0  0  0  0  0  0  0  0
   18.2359   19.7543   19.3451 H   0  0  0  0  0  0  0  0  0  0  0  0
   19.6911   18.8398   19.7441 H   0  0  0  0  0  0  0  0  0  0  0  0
  1  2  1  0  0  0  0
  1  3  1  0  0  0  0
  1  4  1  0  0  0  0
  1  5  1  0  0  0  0
  5  6  1  0  0  0  0
  5  7  1  0  0  0  0
  5  8  1  0  0  0  0
  8  9  1  0  0  0  0
  8 10  1  0  0  0  0
  8 11  1  0  0  0  0
 11 12  1  0  0  0  0
 11 13  1  0  0  0  0
 11 14  1  0  0  0  0
 14 15  1  0  0  0  0
 14 16  1  0  0  0  0
 14 17  1  0  0  0  0
M  END
> <VConfSearch Rank>
718

> <Conf_Id>
44

> <Delta U+W>
2.712

> <U+W>
-13.153

> <U>
47.423

> <W>
-60.576

> <W(PB)>
-62.262

> <W(SA)>
1.687

> <Valence>
2.414

> <Coulomb>
44.831

> <VdW>
0.178

> <VdW6>
-3.743

> <VdW12>
3.922

> <Bond>
0.138

> <Angle>
0.941

> <Pdih>
1.335

> <Idih>
0.000

> <Tether>
0.000

$$$$
VeraChem MOL file


 17 16  0  0  0  0  0  0  0  0999 V2000     
   18.3249   17.9977   22.1663 N   0  3  0  0  0  0  0  0  0  0  0  0
   19.1503   17.4563   22.4382 H   0  0  0  0  0  0  0  0  0  0  0  0
   17.8916   17.5124   21.3751 H   0  0  0  0  0  0  0  0  0  0  0  0
   17.6623   17.9453   22.9467 H   0  0  0  0  0  0  0  0  0  0  0  0
   18.6811   19.4316   21.8243 C   0  0  0  0  0  0  0  0  0  0  0  0
   19.1091   19.8970   22.7159 H   0  0  0  0  0  0  0  0  0  0  0  0
   17.7531   19.9564   21.5817 H   0  0  0  0  0  0  0  0  0  0  0  0
   19.6662   19.5641   20.6445 C   0  0  0  0  0  0  0  0  0  0  0  0
   19.2109   19.1303   19.7443 H   0  0  0  0  0  0  0  0  0  0  0  0
   19.8141   20.6305   20.4285 H   0  0  0  0  0  0  0  0  0  0  0  0
   21.0428   18.8996   20.8955 C   0  0  0  0  0  0  0  0  0  0  0  0
   21.6677   19.0317   20.0011 H   0  0  0  0  0  0  0  0  0  0  0  0
   20.9211   17.8153   21.0226 H   0  0  0  0  0  0  0  0  0  0  0  0
   21.7848   19.4870   22.1178 C   0  0  0  0  0  0  0  0  0  0  0  0
   21.9198   20.5715   22.0138 H   0  0  0  0  0  0  0  0  0  0  0  0
   22.7797   19.0342   22.2185 H   0  0  0  0  0  0  0  0  0  0  0  0
   21.2393   19.2978   23.0508 H   0  0  0  0  0  0  0  0  0  0  0  0
  1  2  1  0  0  0  0
  1  3  1  0  0  0  0
  1  4  1  0  0  0  0
  1  5  1  0  0  0  0
  5  6  1  0  0  0  0
  5  7  1  0  0  0  0
  5  8  1  0  0  0  0
  8  9  1  0  0  0  0
  8 10  1  0  0  0  0
  8 11  1  0  0  0  0
 11 12  1  0  0  0  0
 11 13  1  0  0  0  0
 11 14  1  0  0  0  0
 14 15  1  0  0  0  0
 14 16  1  0  0  0  0
 14 17  1  0  0  0  0
M  END
> <VConfSearch Rank>
719

> <Conf_Id>
1

> <Delta U+W>
0.685

> <U+W>
-15.179

> <U>
45.697

> <W>
-60.876

> <W(PB)>
-62.586

> <W(SA)>
1.710

> <Valence>
1.263

> <Coulomb>
44.179

> <VdW>
0.255

> <VdW6>
-3.552

> <VdW12>
3.807

> <Bond>
0.125

> <Angle>
0.616

> <Pdih>
0.521

> <Idih>
0.000

> <Tether>
0.000

$$$$
VeraChem MOL file


 17 16  0  0  0  0  0  0  0  0999 V2000     
   21.5529   20.0933   21.1909 N   0  3  0  0  0  0  0  0  0  0  0  0
   21.8756   19.9335   20.2319 H   0  0  0  0  0  0  0  0  0  0  0  0
   21.8515   19.2883   21.7488 H   0  0  0  0  0  0  0  0  0  0  0  0
   22.0635   20.9086   21.5448 H   0  0  0  0  0  0  0  0  0  0  0  0
   20.0514   20.2961   21.2562 C   0  0  0  0  0  0  0  0  0  0  0  0
   19.8103   21.1887   20.6725 H   0  0  0  0  0  0  0  0  0  0  0  0
   19.7800   20.4898   22.2972 H   0  0  0  0  0  0  0  0  0  0  0  0
   19.2375   19.1002   20.7202 C   0  0  0  0  0  0  0  0  0  0  0  0
   18.1712   19.3611   20.7464 H   0  0  0  0  0  0  0  0  0  0  0  0
   19.4869   18.9394   19.6630 H   0  0  0  0  0  0  0  0  0  0  0  0
   19.4593   17.7842   21.5065 C   0  0  0  0  0  0  0  0  0  0  0  0
   20.5047   17.4601   21.4132 H   0  0  0  0  0  0  0  0  0  0  0  0
   18.8538   16.9908   21.0463 H   0  0  0  0  0  0  0  0  0  0  0  0
   19.0818   17.9009   23.0011 C   0  0  0  0  0  0  0  0  0  0  0  0
   19.1921   16.9308   23.5029 H   0  0  0  0  0  0  0  0  0  0  0  0
   18.0392   18.2229   23.1208 H   0  0  0  0  0  0  0  0  0  0  0  0
   19.7244   18.6194   23.5251 H   0  0  0  0  0  0  0  0  0  0  0  0
  1  2  1  0  0  0  0
  1  3  1  0  0  0  0
  1  4  1  0  0  0  0
  1  5  1  0  0  0  0
  5  6  1  0  0  0  0
  5  7  1  0  0  0  0
  5  8  1  0  0  0  0
  8  9  1  0  0  0  0
  8 10  1  0  0  0  0
  8 11  1  0  0  0  0
 11 12  1  0  0  0  0
 11 13  1  0  0  0  0
 11 14  1  0  0  0  0
 14 15  1  0  0  0  0
 14 16  1  0  0  0  0
 14 17  1  0  0  0  0
M  END
> <VConfSearch Rank>
720

> <Conf_Id>
43

> <Delta U+W>
0.642

> <U+W>
-15.222

> <U>
45.697

> <W>
-60.919

> <W(PB)>
-62.631

> <W(SA)>
1.712

> <Valence>
1.262

> <Coulomb>
44.179

> <VdW>
0.255

> <VdW6>
-3.552

> <VdW12>
3.807

> <Bond>
0.125

> <Angle>
0.616

> <Pdih>
0.521

> <Idih>
0.000

> <Tether>
0.000

$$$$
VeraChem MOL file


 17 16  0  0  0  0  0  0  0  0999 V2000     
   22.4376   19.2301   22.2372 N   0  3  0  0  0  0  0  0  0  0  0  0
   22.4548   20.2345   22.4387 H   0  0  0  0  0  0  0  0  0  0  0  0
   22.8239   19.1055   21.2965 H   0  0  0  0  0  0  0  0  0  0  0  0
   23.0935   18.7862   22.8880 H   0  0  0  0  0  0  0  0  0  0  0  0
   21.0426   18.6501   22.3597 C   0  0  0  0  0  0  0  0  0  0  0  0
   20.7081   18.7905   23.3912 H   0  0  0  0  0  0  0  0  0  0  0  0
   21.1051   17.5763   22.1631 H   0  0  0  0  0  0  0  0  0  0  0  0
   20.0306   19.2948   21.3952 C   0  0  0  0  0  0  0  0  0  0  0  0
   19.9821   20.3753   21.5853 H   0  0  0  0  0  0  0  0  0  0  0  0
   20.3776   19.1653   20.3614 H   0  0  0  0  0  0  0  0  0  0  0  0
   18.6242   18.6761   21.5525 C   0  0  0  0  0  0  0  0  0  0  0  0
   18.2777   18.8025   22.5880 H   0  0  0  0  0  0  0  0  0  0  0  0
   18.6727   17.5940   21.3655 H   0  0  0  0  0  0  0  0  0  0  0  0
   17.6035   19.3180   20.5881 C   0  0  0  0  0  0  0  0  0  0  0  0
   16.6117   18.8651   20.7154 H   0  0  0  0  0  0  0  0  0  0  0  0
   17.9055   19.1775   19.5420 H   0  0  0  0  0  0  0  0  0  0  0  0
   17.5074   20.3957   20.7741 H   0  0  0  0  0  0  0  0  0  0  0  0
  1  2  1  0  0  0  0
  1  3  1  0  0  0  0
  1  4  1  0  0  0  0
  1  5  1  0  0  0  0
  5  6  1  0  0  0  0
  5  7  1  0  0  0  0
  5  8  1  0  0  0  0
  8  9  1  0  0  0  0
  8 10  1  0  0  0  0
  8 11  1  0  0  0  0
 11 12  1  0  0  0  0
 11 13  1  0  0  0  0
 11 14  1  0  0  0  0
 14 15  1  0  0  0  0
 14 16  1  0  0  0  0
 14 17  1  0  0  0  0
M  END
> <VConfSearch Rank>
721

> <Conf_Id>
7

> <Delta U+W>
0.000

> <U+W>
-15.865

> <U>
44.664

> <W>
-60.529

> <W(PB)>
-62.309

> <W(SA)>
1.780

> <Valence>
0.872

> <Coulomb>
43.648

> <VdW>
0.144

> <VdW6>
-2.370

> <VdW12>
2.515

> <Bond>
0.080

> <Angle>
0.376

> <Pdih>
0.416

> <Idih>
0.000

> <Tether>
0.000

$$$$
VeraChem MOL file


 17 16  0  0  0  0  0  0  0  0999 V2000     
   18.7013   18.4022   19.6607 N   0  3  0  0  0  0  0  0  0  0  0  0
   17.7166   18.6575   19.7824 H   0  0  0  0  0  0  0  0  0  0  0  0
   18.7695   17.3901   19.8040 H   0  0  0  0  0  0  0  0  0  0  0  0
   18.9337   18.5787   18.6780 H   0  0  0  0  0  0  0  0  0  0  0  0
   19.6077   19.1711   20.6012 C   0  0  0  0  0  0  0  0  0  0  0  0
   19.5067   20.2356   20.3729 H   0  0  0  0  0  0  0  0  0  0  0  0
   20.6384   18.8721   20.3937 H   0  0  0  0  0  0  0  0  0  0  0  0
   19.2854   18.9281   22.0882 C   0  0  0  0  0  0  0  0  0  0  0  0
   18.2368   19.1937   22.2772 H   0  0  0  0  0  0  0  0  0  0  0  0
   19.3852   17.8587   22.3171 H   0  0  0  0  0  0  0  0  0  0  0  0
   20.1911   19.7481   23.0366 C   0  0  0  0  0  0  0  0  0  0  0  0
   19.8579   19.5917   24.0722 H   0  0  0  0  0  0  0  0  0  0  0  0
   20.0674   20.8208   22.8311 H   0  0  0  0  0  0  0  0  0  0  0  0
   21.6851   19.3670   22.9247 C   0  0  0  0  0  0  0  0  0  0  0  0
   21.8357   18.2972   23.1199 H   0  0  0  0  0  0  0  0  0  0  0  0
   22.2812   19.9278   23.6563 H   0  0  0  0  0  0  0  0  0  0  0  0
   22.0858   19.5935   21.9286 H   0  0  0  0  0  0  0  0  0  0  0  0
  1  2  1  0  0  0  0
  1  3  1  0  0  0  0
  1  4  1  0  0  0  0
  1  5  1  0  0  0  0
  5  6  1  0  0  0  0
  5  7  1  0  0  0  0
  5  8  1  0  0  0  0
  8  9  1  0  0  0  0
  8 10  1  0  0  0  0
  8 11  1  0  0  0  0
 11 12  1  0  0  0  0
 11 13  1  0  0  0  0
 11 14  1  0  0  0  0
 14 15  1  0  0  0  0
 14 16  1  0  0  0  0
 14 17  1  0  0  0  0
M  END
> <VConfSearch Rank>
722

> <Conf_Id>
36

> <Delta U+W>
0.275

> <U+W>
-15.590

> <U>
45.174

> <W>
-60.765

> <W(PB)>
-62.518

> <W(SA)>
1.754

> <Valence>
1.161

> <Coulomb>
43.789

> <VdW>
0.224

> <VdW6>
-2.897

> <VdW12>
3.121

> <Bond>
0.100

> <Angle>
0.500

> <Pdih>
0.561

> <Idih>
0.000

> <Tether>
0.000

$$$$
VeraChem MOL file


 17 16  0  0  0  0  0  0  0  0999 V2000     
   21.3651   17.7958   21.5943 N   0  3  0  0  0  0  0  0  0  0  0  0
   21.4031   18.4257   20.7889 H   0  0  0  0  0  0  0  0  0  0  0  0
   20.9871   16.9037   21.2615 H   0  0  0  0  0  0  0  0  0  0  0  0
   22.3318   17.6188   21.8857 H   0  0  0  0  0  0  0  0  0  0  0  0
   20.5328   18.3749   22.7221 C   0  0  0  0  0  0  0  0  0  0  0  0
   21.0190   19.2860   23.0812 H   0  0  0  0  0  0  0  0  0  0  0  0
   20.5430   17.6437   23.5350 H   0  0  0  0  0  0  0  0  0  0  0  0
   19.0695   18.6801   22.3387 C   0  0  0  0  0  0  0  0  0  0  0  0
   18.6535   17.8493   21.7534 H   0  0  0  0  0  0  0  0  0  0  0  0
   18.4817   18.7195   23.2655 H   0  0  0  0  0  0  0  0  0  0  0  0
   18.8678   20.0218   21.5891 C   0  0  0  0  0  0  0  0  0  0  0  0
   19.2306   20.8514   22.2122 H   0  0  0  0  0  0  0  0  0  0  0  0
   17.7889   20.1876   21.4607 H   0  0  0  0  0  0  0  0  0  0  0  0
   19.5444   20.0862   20.2010 C   0  0  0  0  0  0  0  0  0  0  0  0
   20.6361   20.1351   20.2873 H   0  0  0  0  0  0  0  0  0  0  0  0
   19.2232   20.9874   19.6626 H   0  0  0  0  0  0  0  0  0  0  0  0
   19.2757   19.2175   19.5859 H   0  0  0  0  0  0  0  0  0  0  0  0
  1  2  1  0  0  0  0
  1  3  1  0  0  0  0
  1  4  1  0  0  0  0
  1  5  1  0  0  0  0
  5  6  1  0  0  0  0
  5  7  1  0  0  0  0
  5  8  1  0  0  0  0
  8  9  1  0  0  0  0
  8 10  1  0  0  0  0
  8 11  1  0  0  0  0
 11 12  1  0  0  0  0
 11 13  1  0  0  0  0
 11 14  1  0  0  0  0
 14 15  1  0  0  0  0
 14 16  1  0  0  0  0
 14 17  1  0  0  0  0
M  END
> <VConfSearch Rank>
723

> <Conf_Id>
19

> <Delta U+W>
2.662

> <U+W>
-13.203

> <U>
47.423

> <W>
-60.626

> <W(PB)>
-62.328

> <W(SA)>
1.702

> <Valence>
2.414

> <Coulomb>
44.831

> <VdW>
0.178

> <VdW6>
-3.743

> <VdW12>
3.921

> <Bond>
0.138

> <Angle>
0.941

> <Pdih>
1.335

> <Idih>
0.000

> <Tether>
0.000

$$$$
VeraChem MOL file


 17 16  0  0  0  0  0  0  0  0999 V2000     
   21.6405   18.5475   21.2949 N   0  3  0  0  0  0  0  0  0  0  0  0
   22.2675   17.8296   20.9177 H   0  0  0  0  0  0  0  0  0  0  0  0
   22.2228   19.1995   21.8291 H   0  0  0  0  0  0  0  0  0  0  0  0
   21.2613   19.0659   20.4984 H   0  0  0  0  0  0  0  0  0  0  0  0
   20.5412   17.9447   22.1482 C   0  0  0  0  0  0  0  0  0  0  0  0
   21.0291   17.4148   22.9708 H   0  0  0  0  0  0  0  0  0  0  0  0
   19.9981   17.2098   21.5480 H   0  0  0  0  0  0  0  0  0  0  0  0
   19.5525   18.9764   22.7310 C   0  0  0  0  0  0  0  0  0  0  0  0
   19.0622   18.5169   23.5994 H   0  0  0  0  0  0  0  0  0  0  0  0
   20.1013   19.8446   23.1194 H   0  0  0  0  0  0  0  0  0  0  0  0
   18.4465   19.4342   21.7462 C   0  0  0  0  0  0  0  0  0  0  0  0
   17.7435   20.0798   22.2912 H   0  0  0  0  0  0  0  0  0  0  0  0
   17.8640   18.5634   21.4138 H   0  0  0  0  0  0  0  0  0  0  0  0
   18.9684   20.2058   20.5129 C   0  0  0  0  0  0  0  0  0  0  0  0
   19.6331   21.0279   20.8089 H   0  0  0  0  0  0  0  0  0  0  0  0
   18.1300   20.6408   19.9533 H   0  0  0  0  0  0  0  0  0  0  0  0
   19.5071   19.5454   19.8234 H   0  0  0  0  0  0  0  0  0  0  0  0
  1  2  1  0  0  0  0
  1  3  1  0  0  0  0
  1  4  1  0  0  0  0
  1  5  1  0  0  0  0
  5  6  1  0  0  0  0
  5  7  1  0  0  0  0
  5  8  1  0  0  0  0
  8  9  1  0  0  0  0
  8 10  1  0  0  0  0
  8 11  1  0  0  0  0
 11 12  1  0  0  0  0
 11 13  1  0  0  0  0
 11 14  1  0  0  0  0
 14 15  1  0  0  0  0
 14 16  1  0  0  0  0
 14 17  1  0  0  0  0
M  END
> <VConfSearch Rank>
724

> <Conf_Id>
44

> <Delta U+W>
2.712

> <U+W>
-13.153

> <U>
47.423

> <W>
-60.576

> <W(PB)>
-62.262

> <W(SA)>
1.687

> <Valence>
2.414

> <Coulomb>
44.831

> <VdW>
0.178

> <VdW6>
-3.743

> <VdW12>
3.922

> <Bond>
0.138

> <Angle>
0.941

> <Pdih>
1.335

> <Idih>
0.000

> <Tether>
0.000

$$$$
VeraChem MOL file


 17 16  0  0  0  0  0  0  0  0999 V2000     
   19.8313   20.1505   19.9553 N   0  3  0  0  0  0  0  0  0  0  0  0
   18.8669   19.9682   20.2470 H   0  0  0  0  0  0  0  0  0  0  0  0
   20.0039   19.5922   19.1140 H   0  0  0  0  0  0  0  0  0  0  0  0
   19.8777   21.1350   19.6738 H   0  0  0  0  0  0  0  0  0  0  0  0
   20.8217   19.8322   21.0588 C   0  0  0  0  0  0  0  0  0  0  0  0
   20.6004   20.4801   21.9109 H   0  0  0  0  0  0  0  0  0  0  0  0
   21.8206   20.0848   20.6927 H   0  0  0  0  0  0  0  0  0  0  0  0
   20.8004   18.3565   21.5080 C   0  0  0  0  0  0  0  0  0  0  0  0
   21.0636   17.7164   20.6555 H   0  0  0  0  0  0  0  0  0  0  0  0
   21.5885   18.2062   22.2577 H   0  0  0  0  0  0  0  0  0  0  0  0
   19.4433   17.8966   22.0965 C   0  0  0  0  0  0  0  0  0  0  0  0
   19.5190   16.8356   22.3731 H   0  0  0  0  0  0  0  0  0  0  0  0
   18.6598   17.9543   21.3287 H   0  0  0  0  0  0  0  0  0  0  0  0
   19.0154   18.7102   23.3393 C   0  0  0  0  0  0  0  0  0  0  0  0
   19.7831   18.6670   24.1228 H   0  0  0  0  0  0  0  0  0  0  0  0
   18.0845   18.3088   23.7605 H   0  0  0  0  0  0  0  0  0  0  0  0
   18.8386   19.7642   23.0908 H   0  0  0  0  0  0  0  0  0  0  0  0
  1  2  1  0  0  0  0
  1  3  1  0  0  0  0
  1  4  1  0  0  0  0
  1  5  1  0  0  0  0
  5  6  1  0  0  0  0
  5  7  1  0  0  0  0
  5  8  1  0  0  0  0
  8  9  1  0  0  0  0
  8 10  1  0  0  0  0
  8 11  1  0  0  0  0
 11 12  1  0  0  0  0
 11 13  1  0  0  0  0
 11 14  1  0  0  0  0
 14 15  1  0  0  0  0
 14 16  1  0  0  0  0
 14 17  1  0  0  0  0
M  END
> <VConfSearch Rank>
725

> <Conf_Id>
1

> <Delta U+W>
0.685

> <U+W>
-15.179

> <U>
45.697

> <W>
-60.876

> <W(PB)>
-62.586

> <W(SA)>
1.710

> <Valence>
1.263

> <Coulomb>
44.179

> <VdW>
0.255

> <VdW6>
-3.552

> <VdW12>
3.807

> <Bond>
0.125

> <Angle>
0.616

> <Pdih>
0.521

> <Idih>
0.000

> <Tether>
0.000

$$$$
VeraChem MOL file


 17 16  0  0  0  0  0  0  0  0999 V2000     
   21.9036   19.1992   21.5325 N   0  3  0  0  0  0  0  0  0  0  0  0
   22.3389   18.8669   22.3982 H   0  0  0  0  0  0  0  0  0  0  0  0
   21.5278   20.1327   21.7216 H   0  0  0  0  0  0  0  0  0  0  0  0
   22.6560   19.3130   20.8457 H   0  0  0  0  0  0  0  0  0  0  0  0
   20.8285   18.2501   21.0392 C   0  0  0  0  0  0  0  0  0  0  0  0
   21.3054   17.2902   20.8230 H   0  0  0  0  0  0  0  0  0  0  0  0
   20.4288   18.6473   20.1026 H   0  0  0  0  0  0  0  0  0  0  0  0
   19.6791   18.0341   22.0453 C   0  0  0  0  0  0  0  0  0  0  0  0
   18.9866   17.2885   21.6326 H   0  0  0  0  0  0  0  0  0  0  0  0
   20.0847   17.5971   22.9674 H   0  0  0  0  0  0  0  0  0  0  0  0
   18.8929   19.3235   22.3900 C   0  0  0  0  0  0  0  0  0  0  0  0
   19.5530   20.0464   22.8885 H   0  0  0  0  0  0  0  0  0  0  0  0
   18.1091   19.0756   23.1195 H   0  0  0  0  0  0  0  0  0  0  0  0
   18.2385   19.9823   21.1541 C   0  0  0  0  0  0  0  0  0  0  0  0
   17.6397   20.8523   21.4533 H   0  0  0  0  0  0  0  0  0  0  0  0
   17.5719   19.2788   20.6385 H   0  0  0  0  0  0  0  0  0  0  0  0
   18.9913   20.3301   20.4356 H   0  0  0  0  0  0  0  0  0  0  0  0
  1  2  1  0  0  0  0
  1  3  1  0  0  0  0
  1  4  1  0  0  0  0
  1  5  1  0  0  0  0
  5  6  1  0  0  0  0
  5  7  1  0  0  0  0
  5  8  1  0  0  0  0
  8  9  1  0  0  0  0
  8 10  1  0  0  0  0
  8 11  1  0  0  0  0
 11 12  1  0  0  0  0
 11 13  1  0  0  0  0
 11 14  1  0  0  0  0
 14 15  1  0  0  0  0
 14 16  1  0  0  0  0
 14 17  1  0  0  0  0
M  END
> <VConfSearch Rank>
726

> <Conf_Id>
43

> <Delta U+W>
0.642

> <U+W>
-15.222

> <U>
45.697

> <W>
-60.919

> <W(PB)>
-62.631

> <W(SA)>
1.712

> <Valence>
1.262

> <Coulomb>
44.179

> <VdW>
0.255

> <VdW6>
-3.552

> <VdW12>
3.807

> <Bond>
0.125

> <Angle>
0.616

> <Pdih>
0.521

> <Idih>
0.000

> <Tether>
0.000

$$$$
VeraChem MOL file


 17 16  0  0  0  0  0  0  0  0999 V2000     
   21.0797   21.3687   21.5712 N   0  3  0  0  0  0  0  0  0  0  0  0
   20.5588   21.7803   22.3516 H   0  0  0  0  0  0  0  0  0  0  0  0
   20.6499   21.7137   20.7076 H   0  0  0  0  0  0  0  0  0  0  0  0
   22.0265   21.7600   21.6079 H   0  0  0  0  0  0  0  0  0  0  0  0
   21.0931   19.8543   21.6333 C   0  0  0  0  0  0  0  0  0  0  0  0
   21.5908   19.5588   22.5610 H   0  0  0  0  0  0  0  0  0  0  0  0
   21.6888   19.4872   20.7931 H   0  0  0  0  0  0  0  0  0  0  0  0
   19.6857   19.2324   21.5804 C   0  0  0  0  0  0  0  0  0  0  0  0
   19.0856   19.6152   22.4167 H   0  0  0  0  0  0  0  0  0  0  0  0
   19.1833   19.5437   20.6549 H   0  0  0  0  0  0  0  0  0  0  0  0
   19.7445   17.6904   21.6463 C   0  0  0  0  0  0  0  0  0  0  0  0
   20.2502   17.3783   22.5710 H   0  0  0  0  0  0  0  0  0  0  0  0
   20.3478   17.3069   20.8113 H   0  0  0  0  0  0  0  0  0  0  0  0
   18.3362   17.0595   21.5938 C   0  0  0  0  0  0  0  0  0  0  0  0
   18.3997   15.9647   21.6418 H   0  0  0  0  0  0  0  0  0  0  0  0
   17.8181   17.3258   20.6633 H   0  0  0  0  0  0  0  0  0  0  0  0
   17.7198   17.3978   22.4368 H   0  0  0  0  0  0  0  0  0  0  0  0
  1  2  1  0  0  0  0
  1  3  1  0  0  0  0
  1  4  1  0  0  0  0
  1  5  1  0  0  0  0
  5  6  1  0  0  0  0
  5  7  1  0  0  0  0
  5  8  1  0  0  0  0
  8  9  1  0  0  0  0
  8 10  1  0  0  0  0
  8 11  1  0  0  0  0
 11 12  1  0  0  0  0
 11 13  1  0  0  0  0
 11 14  1  0  0  0  0
 14 15  1  0  0  0  0
 14 16  1  0  0  0  0
 14 17  1  0  0  0  0
M  END
> <VConfSearch Rank>
727

> <Conf_Id>
7

> <Delta U+W>
0.000

> <U+W>
-15.865

> <U>
44.664

> <W>
-60.529

> <W(PB)>
-62.309

> <W(SA)>
1.780

> <Valence>
0.872

> <Coulomb>
43.648

> <VdW>
0.144

> <VdW6>
-2.370

> <VdW12>
2.515

> <Bond>
0.080

> <Angle>
0.376

> <Pdih>
0.416

> <Idih>
0.000

> <Tether>
0.000

$$$$
VeraChem MOL file


 17 16  0  0  0  0  0  0  0  0999 V2000     
   21.2927   20.9772   20.9658 N   0  3  0  0  0  0  0  0  0  0  0  0
   21.2642   21.6789   21.7118 H   0  0  0  0  0  0  0  0  0  0  0  0
   20.6992   21.3225   20.2054 H   0  0  0  0  0  0  0  0  0  0  0  0
   22.2535   20.9632   20.6088 H   0  0  0  0  0  0  0  0  0  0  0  0
   20.8526   19.6114   21.4538 C   0  0  0  0  0  0  0  0  0  0  0  0
   21.5442   19.2940   22.2389 H   0  0  0  0  0  0  0  0  0  0  0  0
   20.9385   18.9123   20.6179 H   0  0  0  0  0  0  0  0  0  0  0  0
   19.4110   19.5968   21.9974 C   0  0  0  0  0  0  0  0  0  0  0  0
   19.3253   20.3308   22.8097 H   0  0  0  0  0  0  0  0  0  0  0  0
   18.7165   19.9171   21.2094 H   0  0  0  0  0  0  0  0  0  0  0  0
   18.9877   18.2071   22.5282 C   0  0  0  0  0  0  0  0  0  0  0  0
   17.9853   18.2848   22.9723 H   0  0  0  0  0  0  0  0  0  0  0  0
   19.6620   17.8996   23.3400 H   0  0  0  0  0  0  0  0  0  0  0  0
   18.9692   17.1204   21.4289 C   0  0  0  0  0  0  0  0  0  0  0  0
   18.3064   17.4063   20.6018 H   0  0  0  0  0  0  0  0  0  0  0  0
   18.6053   16.1678   21.8354 H   0  0  0  0  0  0  0  0  0  0  0  0
   19.9718   16.9436   21.0194 H   0  0  0  0  0  0  0  0  0  0  0  0
  1  2  1  0  0  0  0
  1  3  1  0  0  0  0
  1  4  1  0  0  0  0
  1  5  1  0  0  0  0
  5  6  1  0  0  0  0
  5  7  1  0  0  0  0
  5  8  1  0  0  0  0
  8  9  1  0  0  0  0
  8 10  1  0  0  0  0
  8 11  1  0  0  0  0
 11 12  1  0  0  0  0
 11 13  1  0  0  0  0
 11 14  1  0  0  0  0
 14 15  1  0  0  0  0
 14 16  1  0  0  0  0
 14 17  1  0  0  0  0
M  END
> <VConfSearch Rank>
728

> <Conf_Id>
36

> <Delta U+W>
0.275

> <U+W>
-15.590

> <U>
45.174

> <W>
-60.765

> <W(PB)>
-62.518

> <W(SA)>
1.754

> <Valence>
1.161

> <Coulomb>
43.789

> <VdW>
0.224

> <VdW6>
-2.897

> <VdW12>
3.121

> <Bond>
0.100

> <Angle>
0.500

> <Pdih>
0.561

> <Idih>
0.000

> <Tether>
0.000

$$$$
VeraChem MOL file


 17 16  0  0  0  0  0  0  0  0999 V2000     
   21.1517   18.9962   20.1933 N   0  3  0  0  0  0  0  0  0  0  0  0
   21.6043   18.7316   21.0720 H   0  0  0  0  0  0  0  0  0  0  0  0
   21.3789   19.9802   20.0217 H   0  0  0  0  0  0  0  0  0  0  0  0
   21.5988   18.4534   19.4474 H   0  0  0  0  0  0  0  0  0  0  0  0
   19.6538   18.7636   20.2402 C   0  0  0  0  0  0  0  0  0  0  0  0
   19.4714   17.6919   20.3565 H   0  0  0  0  0  0  0  0  0  0  0  0
   19.2519   19.0714   19.2710 H   0  0  0  0  0  0  0  0  0  0  0  0
   18.9256   19.5415   21.3565 C   0  0  0  0  0  0  0  0  0  0  0  0
   19.2973   20.5739   21.3988 H   0  0  0  0  0  0  0  0  0  0  0  0
   17.8660   19.6142   21.0775 H   0  0  0  0  0  0  0  0  0  0  0  0
   19.0055   18.8819   22.7569 C   0  0  0  0  0  0  0  0  0  0  0  0
   18.5726   17.8725   22.7152 H   0  0  0  0  0  0  0  0  0  0  0  0
   18.3711   19.4562   23.4466 H   0  0  0  0  0  0  0  0  0  0  0  0
   20.4319   18.8066   23.3474 C   0  0  0  0  0  0  0  0  0  0  0  0
   21.0510   18.0774   22.8120 H   0  0  0  0  0  0  0  0  0  0  0  0
   20.3928   18.4871   24.3969 H   0  0  0  0  0  0  0  0  0  0  0  0
   20.9286   19.7851   23.3155 H   0  0  0  0  0  0  0  0  0  0  0  0
  1  2  1  0  0  0  0
  1  3  1  0  0  0  0
  1  4  1  0  0  0  0
  1  5  1  0  0  0  0
  5  6  1  0  0  0  0
  5  7  1  0  0  0  0
  5  8  1  0  0  0  0
  8  9  1  0  0  0  0
  8 10  1  0  0  0  0
  8 11  1  0  0  0  0
 11 12  1  0  0  0  0
 11 13  1  0  0  0  0
 11 14  1  0  0  0  0
 14 15  1  0  0  0  0
 14 16  1  0  0  0  0
 14 17  1  0  0  0  0
M  END
> <VConfSearch Rank>
729

> <Conf_Id>
19

> <Delta U+W>
2.662

> <U+W>
-13.203

> <U>
47.423

> <W>
-60.626

> <W(PB)>
-62.328

> <W(SA)>
1.702

> <Valence>
2.414

> <Coulomb>
44.831

> <VdW>
0.178

> <VdW6>
-3.743

> <VdW12>
3.921

> <Bond>
0.138

> <Angle>
0.941

> <Pdih>
1.335

> <Idih>
0.000

> <Tether>
0.000

$$$$
VeraChem MOL file


 17 16  0  0  0  0  0  0  0  0999 V2000     
   21.0079   18.2857   22.8583 N   0  3  0  0  0  0  0  0  0  0  0  0
   21.2227   18.1644   23.8532 H   0  0  0  0  0  0  0  0  0  0  0  0
   21.8126   17.9280   22.3349 H   0  0  0  0  0  0  0  0  0  0  0  0
   20.2146   17.6760   22.6441 H   0  0  0  0  0  0  0  0  0  0  0  0
   20.7123   19.7336   22.5173 C   0  0  0  0  0  0  0  0  0  0  0  0
   21.6049   20.3110   22.7729 H   0  0  0  0  0  0  0  0  0  0  0  0
   19.8925   20.0803   23.1521 H   0  0  0  0  0  0  0  0  0  0  0  0
   20.3634   19.9776   21.0339 C   0  0  0  0  0  0  0  0  0  0  0  0
   20.5439   21.0389   20.8177 H   0  0  0  0  0  0  0  0  0  0  0  0
   21.0531   19.4173   20.3888 H   0  0  0  0  0  0  0  0  0  0  0  0
   18.8939   19.6579   20.6582 C   0  0  0  0  0  0  0  0  0  0  0  0
   18.7286   19.9648   19.6159 H   0  0  0  0  0  0  0  0  0  0  0  0
   18.2150   20.2715   21.2669 H   0  0  0  0  0  0  0  0  0  0  0  0
   18.5078   18.1680   20.7997 C   0  0  0  0  0  0  0  0  0  0  0  0
   19.2246   17.5193   20.2794 H   0  0  0  0  0  0  0  0  0  0  0  0
   17.5174   17.9883   20.3616 H   0  0  0  0  0  0  0  0  0  0  0  0
   18.4542   17.8644   21.8517 H   0  0  0  0  0  0  0  0  0  0  0  0
  1  2  1  0  0  0  0
  1  3  1  0  0  0  0
  1  4  1  0  0  0  0
  1  5  1  0  0  0  0
  5  6  1  0  0  0  0
  5  7  1  0  0  0  0
  5  8  1  0  0  0  0
  8  9  1  0  0  0  0
  8 10  1  0  0  0  0
  8 11  1  0  0  0  0
 11 12  1  0  0  0  0
 11 13  1  0  0  0  0
 11 14  1  0  0  0  0
 14 15  1  0  0  0  0
 14 16  1  0  0  0  0
 14 17  1  0  0  0  0
M  END
> <VConfSearch Rank>
730

> <Conf_Id>
44

> <Delta U+W>
2.712

> <U+W>
-13.153

> <U>
47.423

> <W>
-60.576

> <W(PB)>
-62.262

> <W(SA)>
1.687

> <Valence>
2.414

> <Coulomb>
44.831

> <VdW>
0.178

> <VdW6>
-3.743

> <VdW12>
3.922

> <Bond>
0.138

> <Angle>
0.941

> <Pdih>
1.335

> <Idih>
0.000

> <Tether>
0.000

$$$$
VeraChem MOL file


 17 16  0  0  0  0  0  0  0  0999 V2000     
   21.0469   20.2569   22.6897 N   0  3  0  0  0  0  0  0  0  0  0  0
   21.5822   20.0233   21.8486 H   0  0  0  0  0  0  0  0  0  0  0  0
   21.4841   19.7634   23.4737 H   0  0  0  0  0  0  0  0  0  0  0  0
   21.1778   21.2593   22.8588 H   0  0  0  0  0  0  0  0  0  0  0  0
   19.5813   19.8966   22.5409 C   0  0  0  0  0  0  0  0  0  0  0  0
   19.1717   20.4771   21.7103 H   0  0  0  0  0  0  0  0  0  0  0  0
   19.0679   20.2065   23.4552 H   0  0  0  0  0  0  0  0  0  0  0  0
   19.3309   18.3938   22.2989 C   0  0  0  0  0  0  0  0  0  0  0  0
   19.7092   17.8226   23.1569 H   0  0  0  0  0  0  0  0  0  0  0  0
   18.2473   18.2186   22.2690 H   0  0  0  0  0  0  0  0  0  0  0  0
   19.9707   17.8502   20.9971 C   0  0  0  0  0  0  0  0  0  0  0  0
   19.7529   16.7758   20.9177 H   0  0  0  0  0  0  0  0  0  0  0  0
   21.0647   17.9344   21.0503 H   0  0  0  0  0  0  0  0  0  0  0  0
   19.4549   18.5623   19.7256 C   0  0  0  0  0  0  0  0  0  0  0  0
   18.3621   18.4910   19.6492 H   0  0  0  0  0  0  0  0  0  0  0  0
   19.8839   18.1026   18.8259 H   0  0  0  0  0  0  0  0  0  0  0  0
   19.7301   19.6245   19.7178 H   0  0  0  0  0  0  0  0  0  0  0  0
  1  2  1  0  0  0  0
  1  3  1  0  0  0  0
  1  4  1  0  0  0  0
  1  5  1  0  0  0  0
  5  6  1  0  0  0  0
  5  7  1  0  0  0  0
  5  8  1  0  0  0  0
  8  9  1  0  0  0  0
  8 10  1  0  0  0  0
  8 11  1  0  0  0  0
 11 12  1  0  0  0  0
 11 13  1  0  0  0  0
 11 14  1  0  0  0  0
 14 15  1  0  0  0  0
 14 16  1  0  0  0  0
 14 17  1  0  0  0  0
M  END
> <VConfSearch Rank>
731

> <Conf_Id>
1

> <Delta U+W>
0.685

> <U+W>
-15.179

> <U>
45.697

> <W>
-60.876

> <W(PB)>
-62.586

> <W(SA)>
1.710

> <Valence>
1.263

> <Coulomb>
44.179

> <VdW>
0.255

> <VdW6>
-3.552

> <VdW12>
3.807

> <Bond>
0.125

> <Angle>
0.616

> <Pdih>
0.521

> <Idih>
0.000

> <Tether>
0.000

$$$$
VeraChem MOL file


 17 16  0  0  0  0  0  0  0  0999 V2000     
   21.7015   19.6221   20.9351 N   0  3  0  0  0  0  0  0  0  0  0  0
   21.6297   20.4856   20.3887 H   0  0  0  0  0  0  0  0  0  0  0  0
   21.3945   18.8549   20.3305 H   0  0  0  0  0  0  0  0  0  0  0  0
   22.6974   19.4726   21.1260 H   0  0  0  0  0  0  0  0  0  0  0  0
   20.8866   19.6914   22.2123 C   0  0  0  0  0  0  0  0  0  0  0  0
   21.2915   20.5038   22.8219 H   0  0  0  0  0  0  0  0  0  0  0  0
   21.0308   18.7555   22.7581 H   0  0  0  0  0  0  0  0  0  0  0  0
   19.3807   19.9304   21.9779 C   0  0  0  0  0  0  0  0  0  0  0  0
   18.8850   20.0302   22.9527 H   0  0  0  0  0  0  0  0  0  0  0  0
   19.2438   20.8919   21.4656 H   0  0  0  0  0  0  0  0  0  0  0  0
   18.6842   18.8109   21.1648 C   0  0  0  0  0  0  0  0  0  0  0  0
   19.1080   18.7599   20.1526 H   0  0  0  0  0  0  0  0  0  0  0  0
   17.6247   19.0735   21.0368 H   0  0  0  0  0  0  0  0  0  0  0  0
   18.7796   17.4234   21.8397 C   0  0  0  0  0  0  0  0  0  0  0  0
   18.2185   16.6759   21.2641 H   0  0  0  0  0  0  0  0  0  0  0  0
   18.3606   17.4484   22.8540 H   0  0  0  0  0  0  0  0  0  0  0  0
   19.8188   17.0775   21.9068 H   0  0  0  0  0  0  0  0  0  0  0  0
  1  2  1  0  0  0  0
  1  3  1  0  0  0  0
  1  4  1  0  0  0  0
  1  5  1  0  0  0  0
  5  6  1  0  0  0  0
  5  7  1  0  0  0  0
  5  8  1  0  0  0  0
  8  9  1  0  0  0  0
  8 10  1  0  0  0  0
  8 11  1  0  0  0  0
 11 12  1  0  0  0  0
 11 13  1  0  0  0  0
 11 14  1  0  0  0  0
 14 15  1  0  0  0  0
 14 16  1  0  0  0  0
 14 17  1  0  0  0  0
M  END
> <VConfSearch Rank>
732

> <Conf_Id>
43

> <Delta U+W>
0.642

> <U+W>
-15.222

> <U>
45.697

> <W>
-60.919

> <W(PB)>
-62.631

> <W(SA)>
1.712

> <Valence>
1.262

> <Coulomb>
44.179

> <VdW>
0.255

> <VdW6>
-3.552

> <VdW12>
3.807

> <Bond>
0.125

> <Angle>
0.616

> <Pdih>
0.521

> <Idih>
0.000

> <Tether>
0.000

$$$$
VeraChem MOL file


 17 16  0  0  0  0  0  0  0  0999 V2000     
   17.7540   19.3364   22.8914 N   0  3  0  0  0  0  0  0  0  0  0  0
   18.1379   19.2263   23.8349 H   0  0  0  0  0  0  0  0  0  0  0  0
   17.3346   18.4387   22.6308 H   0  0  0  0  0  0  0  0  0  0  0  0
   16.9867   20.0128   22.9609 H   0  0  0  0  0  0  0  0  0  0  0  0
   18.8085   19.7806   21.8975 C   0  0  0  0  0  0  0  0  0  0  0  0
   19.1880   20.7539   22.2202 H   0  0  0  0  0  0  0  0  0  0  0  0
   18.3242   19.9071   20.9254 H   0  0  0  0  0  0  0  0  0  0  0  0
   19.9771   18.7867   21.7680 C   0  0  0  0  0  0  0  0  0  0  0  0
   20.4512   18.6504   22.7491 H   0  0  0  0  0  0  0  0  0  0  0  0
   19.5904   17.8065   21.4586 H   0  0  0  0  0  0  0  0  0  0  0  0
   21.0275   19.2765   20.7471 C   0  0  0  0  0  0  0  0  0  0  0  0
   21.4125   20.2591   21.0545 H   0  0  0  0  0  0  0  0  0  0  0  0
   20.5528   19.4162   19.7655 H   0  0  0  0  0  0  0  0  0  0  0  0
   22.2029   18.2845   20.6119 C   0  0  0  0  0  0  0  0  0  0  0  0
   22.9374   18.6504   19.8827 H   0  0  0  0  0  0  0  0  0  0  0  0
   21.8531   17.3009   20.2720 H   0  0  0  0  0  0  0  0  0  0  0  0
   22.7195   18.1505   21.5712 H   0  0  0  0  0  0  0  0  0  0  0  0
  1  2  1  0  0  0  0
  1  3  1  0  0  0  0
  1  4  1  0  0  0  0
  1  5  1  0  0  0  0
  5  6  1  0  0  0  0
  5  7  1  0  0  0  0
  5  8  1  0  0  0  0
  8  9  1  0  0  0  0
  8 10  1  0  0  0  0
  8 11  1  0  0  0  0
 11 12  1  0  0  0  0
 11 13  1  0  0  0  0
 11 14  1  0  0  0  0
 14 15  1  0  0  0  0
 14 16  1  0  0  0  0
 14 17  1  0  0  0  0
M  END
> <VConfSearch Rank>
733

> <Conf_Id>
7

> <Delta U+W>
0.000

> <U+W>
-15.865

> <U>
44.664

> <W>
-60.529

> <W(PB)>
-62.309

> <W(SA)>
1.780

> <Valence>
0.872

> <Coulomb>
43.648

> <VdW>
0.144

> <VdW6>
-2.370

> <VdW12>
2.515

> <Bond>
0.080

> <Angle>
0.376

> <Pdih>
0.416

> <Idih>
0.000

> <Tether>
0.000

$$$$
VeraChem MOL file


 17 16  0  0  0  0  0  0  0  0999 V2000     
   18.9661   16.9712   20.9989 N   0  3  0  0  0  0  0  0  0  0  0  0
   18.7647   16.4400   21.8515 H   0  0  0  0  0  0  0  0  0  0  0  0
   19.8027   16.5567   20.5771 H   0  0  0  0  0  0  0  0  0  0  0  0
   18.1906   16.7974   20.3515 H   0  0  0  0  0  0  0  0  0  0  0  0
   19.1453   18.4498   21.2801 C   0  0  0  0  0  0  0  0  0  0  0  0
   18.2095   18.8300   21.6985 H   0  0  0  0  0  0  0  0  0  0  0  0
   19.3244   18.9536   20.3267 H   0  0  0  0  0  0  0  0  0  0  0  0
   20.3044   18.7467   22.2507 C   0  0  0  0  0  0  0  0  0  0  0  0
   20.1349   18.2042   23.1903 H   0  0  0  0  0  0  0  0  0  0  0  0
   21.2440   18.3633   21.8312 H   0  0  0  0  0  0  0  0  0  0  0  0
   20.4518   20.2549   22.5601 C   0  0  0  0  0  0  0  0  0  0  0  0
   21.2388   20.3890   23.3155 H   0  0  0  0  0  0  0  0  0  0  0  0
   19.5234   20.6329   23.0109 H   0  0  0  0  0  0  0  0  0  0  0  0
   20.8028   21.0963   21.3116 C   0  0  0  0  0  0  0  0  0  0  0  0
   21.7248   20.7348   20.8379 H   0  0  0  0  0  0  0  0  0  0  0  0
   20.9580   22.1475   21.5871 H   0  0  0  0  0  0  0  0  0  0  0  0
   19.9991   21.0654   20.5652 H   0  0  0  0  0  0  0  0  0  0  0  0
  1  2  1  0  0  0  0
  1  3  1  0  0  0  0
  1  4  1  0  0  0  0
  1  5  1  0  0  0  0
  5  6  1  0  0  0  0
  5  7  1  0  0  0  0
  5  8  1  0  0  0  0
  8  9  1  0  0  0  0
  8 10  1  0  0  0  0
  8 11  1  0  0  0  0
 11 12  1  0  0  0  0
 11 13  1  0  0  0  0
 11 14  1  0  0  0  0
 14 15  1  0  0  0  0
 14 16  1  0  0  0  0
 14 17  1  0  0  0  0
M  END
> <VConfSearch Rank>
734

> <Conf_Id>
36

> <Delta U+W>
0.275

> <U+W>
-15.590

> <U>
45.174

> <W>
-60.765

> <W(PB)>
-62.518

> <W(SA)>
1.754

> <Valence>
1.161

> <Coulomb>
43.789

> <VdW>
0.224

> <VdW6>
-2.897

> <VdW12>
3.121

> <Bond>
0.100

> <Angle>
0.500

> <Pdih>
0.561

> <Idih>
0.000

> <Tether>
0.000

$$$$
VeraChem MOL file


 17 16  0  0  0  0  0  0  0  0999 V2000     
   21.4854   19.6041   20.7759 N   0  3  0  0  0  0  0  0  0  0  0  0
   21.5286   18.5950   20.9393 H   0  0  0  0  0  0  0  0  0  0  0  0
   22.0394   20.0525   21.5117 H   0  0  0  0  0  0  0  0  0  0  0  0
   21.9653   19.7877   19.8889 H   0  0  0  0  0  0  0  0  0  0  0  0
   20.0559   20.1103   20.7592 C   0  0  0  0  0  0  0  0  0  0  0  0
   19.5337   19.6510   19.9156 H   0  0  0  0  0  0  0  0  0  0  0  0
   20.1004   21.1884   20.5824 H   0  0  0  0  0  0  0  0  0  0  0  0
   19.2742   19.8466   22.0635 C   0  0  0  0  0  0  0  0  0  0  0  0
   19.9033   20.0813   22.9324 H   0  0  0  0  0  0  0  0  0  0  0  0
   18.4349   20.5538   22.0997 H   0  0  0  0  0  0  0  0  0  0  0  0
   18.6959   18.4139   22.1878 C   0  0  0  0  0  0  0  0  0  0  0  0
   18.0186   18.2143   21.3455 H   0  0  0  0  0  0  0  0  0  0  0  0
   18.0754   18.3686   23.0939 H   0  0  0  0  0  0  0  0  0  0  0  0
   19.7631   17.2985   22.2659 C   0  0  0  0  0  0  0  0  0  0  0  0
   20.2736   17.1622   21.3055 H   0  0  0  0  0  0  0  0  0  0  0  0
   19.2932   16.3395   22.5200 H   0  0  0  0  0  0  0  0  0  0  0  0
   20.5123   17.5170   23.0380 H   0  0  0  0  0  0  0  0  0  0  0  0
  1  2  1  0  0  0  0
  1  3  1  0  0  0  0
  1  4  1  0  0  0  0
  1  5  1  0  0  0  0
  5  6  1  0  0  0  0
  5  7  1  0  0  0  0
  5  8  1  0  0  0  0
  8  9  1  0  0  0  0
  8 10  1  0  0  0  0
  8 11  1  0  0  0  0
 11 12  1  0  0  0  0
 11 13  1  0  0  0  0
 11 14  1  0  0  0  0
 14 15  1  0  0  0  0
 14 16  1  0  0  0  0
 14 17  1  0  0  0  0
M  END
> <VConfSearch Rank>
735

> <Conf_Id>
19

> <Delta U+W>
2.662

> <U+W>
-13.203

> <U>
47.423

> <W>
-60.626

> <W(PB)>
-62.328

> <W(SA)>
1.702

> <Valence>
2.414

> <Coulomb>
44.831

> <VdW>
0.178

> <VdW6>
-3.743

> <VdW12>
3.921

> <Bond>
0.138

> <Angle>
0.941

> <Pdih>
1.335

> <Idih>
0.000

> <Tether>
0.000

$$$$
VeraChem MOL file


 17 16  0  0  0  0  0  0  0  0999 V2000     
   19.9880   20.2571   23.0196 N   0  3  0  0  0  0  0  0  0  0  0  0
   20.2856   21.1868   23.3327 H   0  0  0  0  0  0  0  0  0  0  0  0
   19.7608   19.7189   23.8611 H   0  0  0  0  0  0  0  0  0  0  0  0
   19.1174   20.3791   22.4962 H   0  0  0  0  0  0  0  0  0  0  0  0
   21.0548   19.5747   22.1852 C   0  0  0  0  0  0  0  0  0  0  0  0
   21.9435   19.4825   22.8154 H   0  0  0  0  0  0  0  0  0  0  0  0
   21.3048   20.2235   21.3415 H   0  0  0  0  0  0  0  0  0  0  0  0
   20.6576   18.1758   21.6684 C   0  0  0  0  0  0  0  0  0  0  0  0
   21.5813   17.6333   21.4268 H   0  0  0  0  0  0  0  0  0  0  0  0
   20.1729   17.6029   22.4701 H   0  0  0  0  0  0  0  0  0  0  0  0
   19.7667   18.1882   20.4000 C   0  0  0  0  0  0  0  0  0  0  0  0
   19.6334   17.1514   20.0606 H   0  0  0  0  0  0  0  0  0  0  0  0
   20.2898   18.7094   19.5860 H   0  0  0  0  0  0  0  0  0  0  0  0
   18.3720   18.8221   20.6049 C   0  0  0  0  0  0  0  0  0  0  0  0
   17.8600   18.3870   21.4730 H   0  0  0  0  0  0  0  0  0  0  0  0
   17.7411   18.6465   19.7239 H   0  0  0  0  0  0  0  0  0  0  0  0
   18.4395   19.9077   20.7410 H   0  0  0  0  0  0  0  0  0  0  0  0
  1  2  1  0  0  0  0
  1  3  1  0  0  0  0
  1  4  1  0  0  0  0
  1  5  1  0  0  0  0
  5  6  1  0  0  0  0
  5  7  1  0  0  0  0
  5  8  1  0  0  0  0
  8  9  1  0  0  0  0
  8 10  1  0  0  0  0
  8 11  1  0  0  0  0
 11 12  1  0  0  0  0
 11 13  1  0  0  0  0
 11 14  1  0  0  0  0
 14 15  1  0  0  0  0
 14 16  1  0  0  0  0
 14 17  1  0  0  0  0
M  END
> <VConfSearch Rank>
736

> <Conf_Id>
44

> <Delta U+W>
2.712

> <U+W>
-13.153

> <U>
47.423

> <W>
-60.576

> <W(PB)>
-62.262

> <W(SA)>
1.687

> <Valence>
2.414

> <Coulomb>
44.831

> <VdW>
0.178

> <VdW6>
-3.743

> <VdW12>
3.922

> <Bond>
0.138

> <Angle>
0.941

> <Pdih>
1.335

> <Idih>
0.000

> <Tether>
0.000

$$$$
VeraChem MOL file


 17 16  0  0  0  0  0  0  0  0999 V2000     
   20.6477   17.7883   20.2387 N   0  3  0  0  0  0  0  0  0  0  0  0
   20.4561   17.2384   21.0809 H   0  0  0  0  0  0  0  0  0  0  0  0
   21.6654   17.8728   20.1572 H   0  0  0  0  0  0  0  0  0  0  0  0
   20.3304   17.2312   19.4390 H   0  0  0  0  0  0  0  0  0  0  0  0
   19.9695   19.1439   20.2864 C   0  0  0  0  0  0  0  0  0  0  0  0
   18.8900   18.9816   20.3430 H   0  0  0  0  0  0  0  0  0  0  0  0
   20.1850   19.6574   19.3455 H   0  0  0  0  0  0  0  0  0  0  0  0
   20.4253   20.0271   21.4663 C   0  0  0  0  0  0  0  0  0  0  0  0
   21.5031   20.2181   21.3782 H   0  0  0  0  0  0  0  0  0  0  0  0
   19.9338   21.0055   21.3830 H   0  0  0  0  0  0  0  0  0  0  0  0
   20.1227   19.4221   22.8598 C   0  0  0  0  0  0  0  0  0  0  0  0
   20.4938   20.1102   23.6324 H   0  0  0  0  0  0  0  0  0  0  0  0
   20.6814   18.4859   22.9944 H   0  0  0  0  0  0  0  0  0  0  0  0
   18.6162   19.1680   23.0954 C   0  0  0  0  0  0  0  0  0  0  0  0
   18.0356   20.0908   22.9675 H   0  0  0  0  0  0  0  0  0  0  0  0
   18.4424   18.8020   24.1157 H   0  0  0  0  0  0  0  0  0  0  0  0
   18.2203   18.4153   22.4021 H   0  0  0  0  0  0  0  0  0  0  0  0
  1  2  1  0  0  0  0
  1  3  1  0  0  0  0
  1  4  1  0  0  0  0
  1  5  1  0  0  0  0
  5  6  1  0  0  0  0
  5  7  1  0  0  0  0
  5  8  1  0  0  0  0
  8  9  1  0  0  0  0
  8 10  1  0  0  0  0
  8 11  1  0  0  0  0
 11 12  1  0  0  0  0
 11 13  1  0  0  0  0
 11 14  1  0  0  0  0
 14 15  1  0  0  0  0
 14 16  1  0  0  0  0
 14 17  1  0  0  0  0
M  END
> <VConfSearch Rank>
737

> <Conf_Id>
1

> <Delta U+W>
0.685

> <U+W>
-15.179

> <U>
45.697

> <W>
-60.876

> <W(PB)>
-62.586

> <W(SA)>
1.710

> <Valence>
1.263

> <Coulomb>
44.179

> <VdW>
0.255

> <VdW6>
-3.552

> <VdW12>
3.807

> <Bond>
0.125

> <Angle>
0.616

> <Pdih>
0.521

> <Idih>
0.000

> <Tether>
0.000

$$$$
VeraChem MOL file


 17 16  0  0  0  0  0  0  0  0999 V2000     
   18.1473   18.3969   20.9809 N   0  3  0  0  0  0  0  0  0  0  0  0
   18.2178   17.5033   20.4851 H   0  0  0  0  0  0  0  0  0  0  0  0
   18.4492   19.1284   20.3311 H   0  0  0  0  0  0  0  0  0  0  0  0
   17.1522   18.5555   21.1686 H   0  0  0  0  0  0  0  0  0  0  0  0
   18.9696   18.4033   22.2552 C   0  0  0  0  0  0  0  0  0  0  0  0
   18.5699   17.6269   22.9133 H   0  0  0  0  0  0  0  0  0  0  0  0
   18.8265   19.3691   22.7467 H   0  0  0  0  0  0  0  0  0  0  0  0
   20.4747   18.1538   22.0264 C   0  0  0  0  0  0  0  0  0  0  0  0
   20.9761   18.1116   23.0024 H   0  0  0  0  0  0  0  0  0  0  0  0
   20.6107   17.1645   21.5699 H   0  0  0  0  0  0  0  0  0  0  0  0
   21.1641   19.2255   21.1456 C   0  0  0  0  0  0  0  0  0  0  0  0
   20.7344   19.2169   20.1347 H   0  0  0  0  0  0  0  0  0  0  0  0
   22.2235   18.9578   21.0269 H   0  0  0  0  0  0  0  0  0  0  0  0
   21.0696   20.6496   21.7394 C   0  0  0  0  0  0  0  0  0  0  0  0
   21.6259   21.3635   21.1182 H   0  0  0  0  0  0  0  0  0  0  0  0
   21.4945   20.6844   22.7510 H   0  0  0  0  0  0  0  0  0  0  0  0
   20.0302   20.9970   21.7924 H   0  0  0  0  0  0  0  0  0  0  0  0
  1  2  1  0  0  0  0
  1  3  1  0  0  0  0
  1  4  1  0  0  0  0
  1  5  1  0  0  0  0
  5  6  1  0  0  0  0
  5  7  1  0  0  0  0
  5  8  1  0  0  0  0
  8  9  1  0  0  0  0
  8 10  1  0  0  0  0
  8 11  1  0  0  0  0
 11 12  1  0  0  0  0
 11 13  1  0  0  0  0
 11 14  1  0  0  0  0
 14 15  1  0  0  0  0
 14 16  1  0  0  0  0
 14 17  1  0  0  0  0
M  END
> <VConfSearch Rank>
738

> <Conf_Id>
43

> <Delta U+W>
0.642

> <U+W>
-15.222

> <U>
45.697

> <W>
-60.919

> <W(PB)>
-62.631

> <W(SA)>
1.712

> <Valence>
1.262

> <Coulomb>
44.179

> <VdW>
0.255

> <VdW6>
-3.552

> <VdW12>
3.807

> <Bond>
0.125

> <Angle>
0.616

> <Pdih>
0.521

> <Idih>
0.000

> <Tether>
0.000

$$$$
VeraChem MOL file


 17 16  0  0  0  0  0  0  0  0999 V2000     
   17.5842   18.1762   21.1811 N   0  3  0  0  0  0  0  0  0  0  0  0
   17.6743   17.3004   21.7051 H   0  0  0  0  0  0  0  0  0  0  0  0
   17.7023   17.9469   20.1895 H   0  0  0  0  0  0  0  0  0  0  0  0
   16.6164   18.4934   21.2985 H   0  0  0  0  0  0  0  0  0  0  0  0
   18.5798   19.2206   21.6450 C   0  0  0  0  0  0  0  0  0  0  0  0
   18.3759   19.4375   22.6971 H   0  0  0  0  0  0  0  0  0  0  0  0
   18.4061   20.1327   21.0675 H   0  0  0  0  0  0  0  0  0  0  0  0
   20.0449   18.7766   21.4827 C   0  0  0  0  0  0  0  0  0  0  0  0
   20.2116   17.8521   22.0515 H   0  0  0  0  0  0  0  0  0  0  0  0
   20.2417   18.5450   20.4274 H   0  0  0  0  0  0  0  0  0  0  0  0
   21.0250   19.8679   21.9664 C   0  0  0  0  0  0  0  0  0  0  0  0
   20.8263   20.1025   23.0218 H   0  0  0  0  0  0  0  0  0  0  0  0
   20.8564   20.7946   21.3997 H   0  0  0  0  0  0  0  0  0  0  0  0
   22.4968   19.4294   21.8067 C   0  0  0  0  0  0  0  0  0  0  0  0
   23.1764   20.2177   22.1557 H   0  0  0  0  0  0  0  0  0  0  0  0
   22.7353   19.2209   20.7556 H   0  0  0  0  0  0  0  0  0  0  0  0
   22.7050   18.5233   22.3905 H   0  0  0  0  0  0  0  0  0  0  0  0
  1  2  1  0  0  0  0
  1  3  1  0  0  0  0
  1  4  1  0  0  0  0
  1  5  1  0  0  0  0
  5  6  1  0  0  0  0
  5  7  1  0  0  0  0
  5  8  1  0  0  0  0
  8  9  1  0  0  0  0
  8 10  1  0  0  0  0
  8 11  1  0  0  0  0
 11 12  1  0  0  0  0
 11 13  1  0  0  0  0
 11 14  1  0  0  0  0
 14 15  1  0  0  0  0
 14 16  1  0  0  0  0
 14 17  1  0  0  0  0
M  END
> <VConfSearch Rank>
739

> <Conf_Id>
7

> <Delta U+W>
0.000

> <U+W>
-15.865

> <U>
44.664

> <W>
-60.529

> <W(PB)>
-62.309

> <W(SA)>
1.780

> <Valence>
0.872

> <Coulomb>
43.648

> <VdW>
0.144

> <VdW6>
-2.370

> <VdW12>
2.515

> <Bond>
0.080

> <Angle>
0.376

> <Pdih>
0.416

> <Idih>
0.000

> <Tether>
0.000

$$$$
VeraChem MOL file


 17 16  0  0  0  0  0  0  0  0999 V2000     
   20.0922   17.0031   22.8120 N   0  3  0  0  0  0  0  0  0  0  0  0
   20.0454   17.1932   23.8176 H   0  0  0  0  0  0  0  0  0  0  0  0
   21.0701   16.7924   22.5910 H   0  0  0  0  0  0  0  0  0  0  0  0
   19.5593   16.1428   22.6480 H   0  0  0  0  0  0  0  0  0  0  0  0
   19.5611   18.1605   21.9899 C   0  0  0  0  0  0  0  0  0  0  0  0
   18.5107   18.3089   22.2544 H   0  0  0  0  0  0  0  0  0  0  0  0
   19.6125   17.8753   20.9360 H   0  0  0  0  0  0  0  0  0  0  0  0
   20.3407   19.4707   22.2124 C   0  0  0  0  0  0  0  0  0  0  0  0
   20.3168   19.7268   23.2800 H   0  0  0  0  0  0  0  0  0  0  0  0
   21.3961   19.3212   21.9484 H   0  0  0  0  0  0  0  0  0  0  0  0
   19.7649   20.6529   21.3982 C   0  0  0  0  0  0  0  0  0  0  0  0
   20.3124   21.5686   21.6626 H   0  0  0  0  0  0  0  0  0  0  0  0
   18.7181   20.8254   21.6855 H   0  0  0  0  0  0  0  0  0  0  0  0
   19.8550   20.4351   19.8704 C   0  0  0  0  0  0  0  0  0  0  0  0
   20.8916   20.2543   19.5575 H   0  0  0  0  0  0  0  0  0  0  0  0
   19.4930   21.3213   19.3332 H   0  0  0  0  0  0  0  0  0  0  0  0
   19.2457   19.5813   19.5480 H   0  0  0  0  0  0  0  0  0  0  0  0
  1  2  1  0  0  0  0
  1  3  1  0  0  0  0
  1  4  1  0  0  0  0
  1  5  1  0  0  0  0
  5  6  1  0  0  0  0
  5  7  1  0  0  0  0
  5  8  1  0  0  0  0
  8  9  1  0  0  0  0
  8 10  1  0  0  0  0
  8 11  1  0  0  0  0
 11 12  1  0  0  0  0
 11 13  1  0  0  0  0
 11 14  1  0  0  0  0
 14 15  1  0  0  0  0
 14 16  1  0  0  0  0
 14 17  1  0  0  0  0
M  END
> <VConfSearch Rank>
740

> <Conf_Id>
36

> <Delta U+W>
0.275

> <U+W>
-15.590

> <U>
45.174

> <W>
-60.765

> <W(PB)>
-62.518

> <W(SA)>
1.754

> <Valence>
1.161

> <Coulomb>
43.789

> <VdW>
0.224

> <VdW6>
-2.897

> <VdW12>
3.121

> <Bond>
0.100

> <Angle>
0.500

> <Pdih>
0.561

> <Idih>
0.000

> <Tether>
0.000

$$$$
VeraChem MOL file


 17 16  0  0  0  0  0  0  0  0999 V2000     
   20.8228   20.5253   22.1561 N   0  3  0  0  0  0  0  0  0  0  0  0
   20.4742   20.6219   21.1990 H   0  0  0  0  0  0  0  0  0  0  0  0
   21.8234   20.3149   22.0926 H   0  0  0  0  0  0  0  0  0  0  0  0
   20.7401   21.4444   22.6024 H   0  0  0  0  0  0  0  0  0  0  0  0
   20.0697   19.4557   22.9235 C   0  0  0  0  0  0  0  0  0  0  0  0
   19.0255   19.7655   23.0183 H   0  0  0  0  0  0  0  0  0  0  0  0
   20.5029   19.4169   23.9266 H   0  0  0  0  0  0  0  0  0  0  0  0
   20.1422   18.0505   22.2898 C   0  0  0  0  0  0  0  0  0  0  0  0
   21.1692   17.8375   21.9650 H   0  0  0  0  0  0  0  0  0  0  0  0
   19.9165   17.3169   23.0752 H   0  0  0  0  0  0  0  0  0  0  0  0
   19.1487   17.8197   21.1225 C   0  0  0  0  0  0  0  0  0  0  0  0
   18.1199   17.9744   21.4768 H   0  0  0  0  0  0  0  0  0  0  0  0
   19.2102   16.7650   20.8193 H   0  0  0  0  0  0  0  0  0  0  0  0
   19.4045   18.7044   19.8813 C   0  0  0  0  0  0  0  0  0  0  0  0
   19.1528   19.7534   20.0760 H   0  0  0  0  0  0  0  0  0  0  0  0
   18.7785   18.3732   19.0424 H   0  0  0  0  0  0  0  0  0  0  0  0
   20.4521   18.6451   19.5585 H   0  0  0  0  0  0  0  0  0  0  0  0
  1  2  1  0  0  0  0
  1  3  1  0  0  0  0
  1  4  1  0  0  0  0
  1  5  1  0  0  0  0
  5  6  1  0  0  0  0
  5  7  1  0  0  0  0
  5  8  1  0  0  0  0
  8  9  1  0  0  0  0
  8 10  1  0  0  0  0
  8 11  1  0  0  0  0
 11 12  1  0  0  0  0
 11 13  1  0  0  0  0
 11 14  1  0  0  0  0
 14 15  1  0  0  0  0
 14 16  1  0  0  0  0
 14 17  1  0  0  0  0
M  END
> <VConfSearch Rank>
741

> <Conf_Id>
19

> <Delta U+W>
2.662

> <U+W>
-13.203

> <U>
47.423

> <W>
-60.626

> <W(PB)>
-62.328

> <W(SA)>
1.702

> <Valence>
2.414

> <Coulomb>
44.831

> <VdW>
0.178

> <VdW6>
-3.743

> <VdW12>
3.921

> <Bond>
0.138

> <Angle>
0.941

> <Pdih>
1.335

> <Idih>
0.000

> <Tether>
0.000

$$$$
VeraChem MOL file


 17 16  0  0  0  0  0  0  0  0999 V2000     
   19.5390   18.9208   23.4221 N   0  3  0  0  0  0  0  0  0  0  0  0
   19.0453   19.3110   24.2313 H   0  0  0  0  0  0  0  0  0  0  0  0
   20.2157   18.2429   23.7855 H   0  0  0  0  0  0  0  0  0  0  0  0
   18.8526   18.3963   22.8738 H   0  0  0  0  0  0  0  0  0  0  0  0
   20.2112   20.0009   22.5966 C   0  0  0  0  0  0  0  0  0  0  0  0
   20.9247   20.5071   23.2525 H   0  0  0  0  0  0  0  0  0  0  0  0
   19.4544   20.7297   22.2943 H   0  0  0  0  0  0  0  0  0  0  0  0
   20.9574   19.4760   21.3519 C   0  0  0  0  0  0  0  0  0  0  0  0
   21.6954   20.2346   21.0592 H   0  0  0  0  0  0  0  0  0  0  0  0
   21.5346   18.5785   21.6107 H   0  0  0  0  0  0  0  0  0  0  0  0
   20.0485   19.1980   20.1274 C   0  0  0  0  0  0  0  0  0  0  0  0
   20.6888   18.9332   19.2742 H   0  0  0  0  0  0  0  0  0  0  0  0
   19.5244   20.1201   19.8392 H   0  0  0  0  0  0  0  0  0  0  0  0
   19.0186   18.0653   20.3400 C   0  0  0  0  0  0  0  0  0  0  0  0
   19.5000   17.1550   20.7205 H   0  0  0  0  0  0  0  0  0  0  0  0
   18.5305   17.8115   19.3900 H   0  0  0  0  0  0  0  0  0  0  0  0
   18.2282   18.3659   21.0375 H   0  0  0  0  0  0  0  0  0  0  0  0
  1  2  1  0  0  0  0
  1  3  1  0  0  0  0
  1  4  1  0  0  0  0
  1  5  1  0  0  0  0
  5  6  1  0  0  0  0
  5  7  1  0  0  0  0
  5  8  1  0  0  0  0
  8  9  1  0  0  0  0
  8 10  1  0  0  0  0
  8 11  1  0  0  0  0
 11 12  1  0  0  0  0
 11 13  1  0  0  0  0
 11 14  1  0  0  0  0
 14 15  1  0  0  0  0
 14 16  1  0  0  0  0
 14 17  1  0  0  0  0
M  END
> <VConfSearch Rank>
742

> <Conf_Id>
44

> <Delta U+W>
2.712

> <U+W>
-13.153

> <U>
47.423

> <W>
-60.576

> <W(PB)>
-62.262

> <W(SA)>
1.687

> <Valence>
2.414

> <Coulomb>
44.831

> <VdW>
0.178

> <VdW6>
-3.743

> <VdW12>
3.922

> <Bond>
0.138

> <Angle>
0.941

> <Pdih>
1.335

> <Idih>
0.000

> <Tether>
0.000

$$$$
VeraChem MOL file


 17 16  0  0  0  0  0  0  0  0999 V2000     
   18.9664   17.3502   21.1661 N   0  3  0  0  0  0  0  0  0  0  0  0
   19.8330   17.3553   20.6207 H   0  0  0  0  0  0  0  0  0  0  0  0
   18.1954   17.5106   20.5109 H   0  0  0  0  0  0  0  0  0  0  0  0
   18.8507   16.4009   21.5351 H   0  0  0  0  0  0  0  0  0  0  0  0
   18.9931   18.3863   22.2731 C   0  0  0  0  0  0  0  0  0  0  0  0
   19.8163   18.1401   22.9487 H   0  0  0  0  0  0  0  0  0  0  0  0
   18.0583   18.2988   22.8337 H   0  0  0  0  0  0  0  0  0  0  0  0
   19.1511   19.8349   21.7666 C   0  0  0  0  0  0  0  0  0  0  0  0
   18.2987   20.0862   21.1217 H   0  0  0  0  0  0  0  0  0  0  0  0
   19.0950   20.5157   22.6264 H   0  0  0  0  0  0  0  0  0  0  0  0
   20.4710   20.0931   20.9979 C   0  0  0  0  0  0  0  0  0  0  0  0
   20.4878   21.1405   20.6657 H   0  0  0  0  0  0  0  0  0  0  0  0
   20.5007   19.4848   20.0838 H   0  0  0  0  0  0  0  0  0  0  0  0
   21.7314   19.8159   21.8489 C   0  0  0  0  0  0  0  0  0  0  0  0
   21.7255   20.4141   22.7694 H   0  0  0  0  0  0  0  0  0  0  0  0
   22.6391   20.0739   21.2880 H   0  0  0  0  0  0  0  0  0  0  0  0
   21.8052   18.7575   22.1288 H   0  0  0  0  0  0  0  0  0  0  0  0
  1  2  1  0  0  0  0
  1  3  1  0  0  0  0
  1  4  1  0  0  0  0
  1  5  1  0  0  0  0
  5  6  1  0  0  0  0
  5  7  1  0  0  0  0
  5  8  1  0  0  0  0
  8  9  1  0  0  0  0
  8 10  1  0  0  0  0
  8 11  1  0  0  0  0
 11 12  1  0  0  0  0
 11 13  1  0  0  0  0
 11 14  1  0  0  0  0
 14 15  1  0  0  0  0
 14 16  1  0  0  0  0
 14 17  1  0  0  0  0
M  END
> <VConfSearch Rank>
743

> <Conf_Id>
1

> <Delta U+W>
0.685

> <U+W>
-15.179

> <U>
45.697

> <W>
-60.876

> <W(PB)>
-62.586

> <W(SA)>
1.710

> <Valence>
1.263

> <Coulomb>
44.179

> <VdW>
0.255

> <VdW6>
-3.552

> <VdW12>
3.807

> <Bond>
0.125

> <Angle>
0.616

> <Pdih>
0.521

> <Idih>
0.000

> <Tether>
0.000

$$$$
VeraChem MOL file


 17 16  0  0  0  0  0  0  0  0999 V2000     
   21.3020   18.1815   20.4455 N   0  3  0  0  0  0  0  0  0  0  0  0
   21.4927   17.2174   20.7346 H   0  0  0  0  0  0  0  0  0  0  0  0
   21.7948   18.7966   21.0992 H   0  0  0  0  0  0  0  0  0  0  0  0
   21.7394   18.3089   19.5273 H   0  0  0  0  0  0  0  0  0  0  0  0
   19.8151   18.4773   20.4079 C   0  0  0  0  0  0  0  0  0  0  0  0
   19.3622   17.8134   19.6665 H   0  0  0  0  0  0  0  0  0  0  0  0
   19.6824   19.5067   20.0653 H   0  0  0  0  0  0  0  0  0  0  0  0
   19.1075   18.2853   21.7653 C   0  0  0  0  0  0  0  0  0  0  0  0
   18.0317   18.4576   21.6280 H   0  0  0  0  0  0  0  0  0  0  0  0
   19.2115   17.2389   22.0811 H   0  0  0  0  0  0  0  0  0  0  0  0
   19.6331   19.2155   22.8869 C   0  0  0  0  0  0  0  0  0  0  0  0
   20.6871   18.9915   23.1002 H   0  0  0  0  0  0  0  0  0  0  0  0
   19.0834   18.9980   23.8134 H   0  0  0  0  0  0  0  0  0  0  0  0
   19.4775   20.7165   22.5513 C   0  0  0  0  0  0  0  0  0  0  0  0
   19.8010   21.3359   23.3978 H   0  0  0  0  0  0  0  0  0  0  0  0
   18.4306   20.9660   22.3349 H   0  0  0  0  0  0  0  0  0  0  0  0
   20.0840   21.0011   21.6823 H   0  0  0  0  0  0  0  0  0  0  0  0
  1  2  1  0  0  0  0
  1  3  1  0  0  0  0
  1  4  1  0  0  0  0
  1  5  1  0  0  0  0
  5  6  1  0  0  0  0
  5  7  1  0  0  0  0
  5  8  1  0  0  0  0
  8  9  1  0  0  0  0
  8 10  1  0  0  0  0
  8 11  1  0  0  0  0
 11 12  1  0  0  0  0
 11 13  1  0  0  0  0
 11 14  1  0  0  0  0
 14 15  1  0  0  0  0
 14 16  1  0  0  0  0
 14 17  1  0  0  0  0
M  END
> <VConfSearch Rank>
744

> <Conf_Id>
43

> <Delta U+W>
0.642

> <U+W>
-15.222

> <U>
45.697

> <W>
-60.919

> <W(PB)>
-62.631

> <W(SA)>
1.712

> <Valence>
1.262

> <Coulomb>
44.179

> <VdW>
0.255

> <VdW6>
-3.552

> <VdW12>
3.807

> <Bond>
0.125

> <Angle>
0.616

> <Pdih>
0.521

> <Idih>
0.000

> <Tether>
0.000

$$$$
VeraChem MOL file


 17 16  0  0  0  0  0  0  0  0999 V2000     
   22.2151   18.3070   22.5603 N   0  3  0  0  0  0  0  0  0  0  0  0
   22.7729   19.0971   22.2221 H   0  0  0  0  0  0  0  0  0  0  0  0
   22.3782   17.5266   21.9168 H   0  0  0  0  0  0  0  0  0  0  0  0
   22.6096   18.0318   23.4656 H   0  0  0  0  0  0  0  0  0  0  0  0
   20.7441   18.6556   22.6690 C   0  0  0  0  0  0  0  0  0  0  0  0
   20.6427   19.4704   23.3911 H   0  0  0  0  0  0  0  0  0  0  0  0
   20.2182   17.7816   23.0628 H   0  0  0  0  0  0  0  0  0  0  0  0
   20.1188   19.0739   21.3258 C   0  0  0  0  0  0  0  0  0  0  0  0
   20.6592   19.9423   20.9259 H   0  0  0  0  0  0  0  0  0  0  0  0
   20.2360   18.2592   20.5988 H   0  0  0  0  0  0  0  0  0  0  0  0
   18.6216   19.4203   21.4808 C   0  0  0  0  0  0  0  0  0  0  0  0
   18.5033   20.2335   22.2109 H   0  0  0  0  0  0  0  0  0  0  0  0
   18.0806   18.5525   21.8841 H   0  0  0  0  0  0  0  0  0  0  0  0
   17.9876   19.8409   20.1373 C   0  0  0  0  0  0  0  0  0  0  0  0
   16.9249   20.0826   20.2688 H   0  0  0  0  0  0  0  0  0  0  0  0
   18.0597   19.0341   19.3963 H   0  0  0  0  0  0  0  0  0  0  0  0
   18.4858   20.7283   19.7256 H   0  0  0  0  0  0  0  0  0  0  0  0
  1  2  1  0  0  0  0
  1  3  1  0  0  0  0
  1  4  1  0  0  0  0
  1  5  1  0  0  0  0
  5  6  1  0  0  0  0
  5  7  1  0  0  0  0
  5  8  1  0  0  0  0
  8  9  1  0  0  0  0
  8 10  1  0  0  0  0
  8 11  1  0  0  0  0
 11 12  1  0  0  0  0
 11 13  1  0  0  0  0
 11 14  1  0  0  0  0
 14 15  1  0  0  0  0
 14 16  1  0  0  0  0
 14 17  1  0  0  0  0
M  END
> <VConfSearch Rank>
745

> <Conf_Id>
7

> <Delta U+W>
0.000

> <U+W>
-15.865

> <U>
44.664

> <W>
-60.529

> <W(PB)>
-62.309

> <W(SA)>
1.780

> <Valence>
0.872

> <Coulomb>
43.648

> <VdW>
0.144

> <VdW6>
-2.370

> <VdW12>
2.515

> <Bond>
0.080

> <Angle>
0.376

> <Pdih>
0.416

> <Idih>
0.000

> <Tether>
0.000

$$$$
VeraChem MOL file


 17 16  0  0  0  0  0  0  0  0999 V2000     
   21.5225   20.7385   22.3881 N   0  3  0  0  0  0  0  0  0  0  0  0
   21.0333   21.4223   22.9735 H   0  0  0  0  0  0  0  0  0  0  0  0
   21.7038   21.1897   21.4863 H   0  0  0  0  0  0  0  0  0  0  0  0
   22.4347   20.5730   22.8254 H   0  0  0  0  0  0  0  0  0  0  0  0
   20.7311   19.4553   22.2318 C   0  0  0  0  0  0  0  0  0  0  0  0
   20.6016   19.0151   23.2242 H   0  0  0  0  0  0  0  0  0  0  0  0
   21.3249   18.7662   21.6258 H   0  0  0  0  0  0  0  0  0  0  0  0
   19.3529   19.6684   21.5766 C   0  0  0  0  0  0  0  0  0  0  0  0
   18.7800   20.3924   22.1711 H   0  0  0  0  0  0  0  0  0  0  0  0
   19.4829   20.1121   20.5805 H   0  0  0  0  0  0  0  0  0  0  0  0
   18.5396   18.3583   21.4587 C   0  0  0  0  0  0  0  0  0  0  0  0
   17.5423   18.5919   21.0600 H   0  0  0  0  0  0  0  0  0  0  0  0
   18.3800   17.9302   22.4584 H   0  0  0  0  0  0  0  0  0  0  0  0
   19.2140   17.3084   20.5460 C   0  0  0  0  0  0  0  0  0  0  0  0
   19.3904   17.7136   19.5411 H   0  0  0  0  0  0  0  0  0  0  0  0
   18.5752   16.4218   20.4420 H   0  0  0  0  0  0  0  0  0  0  0  0
   20.1763   16.9764   20.9556 H   0  0  0  0  0  0  0  0  0  0  0  0
  1  2  1  0  0  0  0
  1  3  1  0  0  0  0
  1  4  1  0  0  0  0
  1  5  1  0  0  0  0
  5  6  1  0  0  0  0
  5  7  1  0  0  0  0
  5  8  1  0  0  0  0
  8  9  1  0  0  0  0
  8 10  1  0  0  0  0
  8 11  1  0  0  0  0
 11 12  1  0  0  0  0
 11 13  1  0  0  0  0
 11 14  1  0  0  0  0
 14 15  1  0  0  0  0
 14 16  1  0  0  0  0
 14 17  1  0  0  0  0
M  END
> <VConfSearch Rank>
746

> <Conf_Id>
36

> <Delta U+W>
0.275

> <U+W>
-15.590

> <U>
45.174

> <W>
-60.765

> <W(PB)>
-62.518

> <W(SA)>
1.754

> <Valence>
1.161

> <Coulomb>
43.789

> <VdW>
0.224

> <VdW6>
-2.897

> <VdW12>
3.121

> <Bond>
0.100

> <Angle>
0.500

> <Pdih>
0.561

> <Idih>
0.000

> <Tether>
0.000

$$$$
VeraChem MOL file


 17 16  0  0  0  0  0  0  0  0999 V2000     
   20.1392   20.5390   20.5980 N   0  3  0  0  0  0  0  0  0  0  0  0
   19.1577   20.3750   20.8360 H   0  0  0  0  0  0  0  0  0  0  0  0
   20.2691   20.2343   19.6286 H   0  0  0  0  0  0  0  0  0  0  0  0
   20.2888   21.5530   20.6134 H   0  0  0  0  0  0  0  0  0  0  0  0
   21.0762   19.8160   21.5463 C   0  0  0  0  0  0  0  0  0  0  0  0
   20.9419   20.2282   22.5499 H   0  0  0  0  0  0  0  0  0  0  0  0
   22.0958   20.0415   21.2221 H   0  0  0  0  0  0  0  0  0  0  0  0
   20.8866   18.2848   21.5808 C   0  0  0  0  0  0  0  0  0  0  0  0
   20.7726   17.8974   20.5597 H   0  0  0  0  0  0  0  0  0  0  0  0
   21.8130   17.8414   21.9695 H   0  0  0  0  0  0  0  0  0  0  0  0
   19.7157   17.8021   22.4745 C   0  0  0  0  0  0  0  0  0  0  0  0
   19.8741   18.1432   23.5073 H   0  0  0  0  0  0  0  0  0  0  0  0
   19.7379   16.7039   22.5105 H   0  0  0  0  0  0  0  0  0  0  0  0
   18.3172   18.2506   21.9928 C   0  0  0  0  0  0  0  0  0  0  0  0
   18.1689   19.3274   22.1348 H   0  0  0  0  0  0  0  0  0  0  0  0
   17.5345   17.7390   22.5680 H   0  0  0  0  0  0  0  0  0  0  0  0
   18.1639   18.0080   20.9332 H   0  0  0  0  0  0  0  0  0  0  0  0
  1  2  1  0  0  0  0
  1  3  1  0  0  0  0
  1  4  1  0  0  0  0
  1  5  1  0  0  0  0
  5  6  1  0  0  0  0
  5  7  1  0  0  0  0
  5  8  1  0  0  0  0
  8  9  1  0  0  0  0
  8 10  1  0  0  0  0
  8 11  1  0  0  0  0
 11 12  1  0  0  0  0
 11 13  1  0  0  0  0
 11 14  1  0  0  0  0
 14 15  1  0  0  0  0
 14 16  1  0  0  0  0
 14 17  1  0  0  0  0
M  END
> <VConfSearch Rank>
747

> <Conf_Id>
19

> <Delta U+W>
2.662

> <U+W>
-13.203

> <U>
47.423

> <W>
-60.626

> <W(PB)>
-62.328

> <W(SA)>
1.702

> <Valence>
2.414

> <Coulomb>
44.831

> <VdW>
0.178

> <VdW6>
-3.743

> <VdW12>
3.921

> <Bond>
0.138

> <Angle>
0.941

> <Pdih>
1.335

> <Idih>
0.000

> <Tether>
0.000

$$$$
VeraChem MOL file


 17 16  0  0  0  0  0  0  0  0999 V2000     
   21.2295   18.7066   20.3718 N   0  3  0  0  0  0  0  0  0  0  0  0
   21.5264   18.7538   19.3918 H   0  0  0  0  0  0  0  0  0  0  0  0
   21.9080   18.1139   20.8596 H   0  0  0  0  0  0  0  0  0  0  0  0
   21.3192   19.6490   20.7601 H   0  0  0  0  0  0  0  0  0  0  0  0
   19.8159   18.1746   20.5081 C   0  0  0  0  0  0  0  0  0  0  0  0
   19.8086   17.1711   20.0739 H   0  0  0  0  0  0  0  0  0  0  0  0
   19.1481   18.8044   19.9142 H   0  0  0  0  0  0  0  0  0  0  0  0
   19.3046   18.0969   21.9621 C   0  0  0  0  0  0  0  0  0  0  0  0
   18.4771   17.3755   21.9881 H   0  0  0  0  0  0  0  0  0  0  0  0
   20.0858   17.6827   22.6133 H   0  0  0  0  0  0  0  0  0  0  0  0
   18.7835   19.4406   22.5328 C   0  0  0  0  0  0  0  0  0  0  0  0
   18.3504   19.2504   23.5249 H   0  0  0  0  0  0  0  0  0  0  0  0
   17.9595   19.8128   21.9079 H   0  0  0  0  0  0  0  0  0  0  0  0
   19.8629   20.5385   22.6693 C   0  0  0  0  0  0  0  0  0  0  0  0
   20.7436   20.1668   23.2090 H   0  0  0  0  0  0  0  0  0  0  0  0
   19.4658   21.3948   23.2298 H   0  0  0  0  0  0  0  0  0  0  0  0
   20.1804   20.9145   21.6897 H   0  0  0  0  0  0  0  0  0  0  0  0
  1  2  1  0  0  0  0
  1  3  1  0  0  0  0
  1  4  1  0  0  0  0
  1  5  1  0  0  0  0
  5  6  1  0  0  0  0
  5  7  1  0  0  0  0
  5  8  1  0  0  0  0
  8  9  1  0  0  0  0
  8 10  1  0  0  0  0
  8 11  1  0  0  0  0
 11 12  1  0  0  0  0
 11 13  1  0  0  0  0
 11 14  1  0  0  0  0
 14 15  1  0  0  0  0
 14 16  1  0  0  0  0
 14 17  1  0  0  0  0
M  END
> <VConfSearch Rank>
748

> <Conf_Id>
44

> <Delta U+W>
2.712

> <U+W>
-13.153

> <U>
47.423

> <W>
-60.576

> <W(PB)>
-62.262

> <W(SA)>
1.687

> <Valence>
2.414

> <Coulomb>
44.831

> <VdW>
0.178

> <VdW6>
-3.743

> <VdW12>
3.922

> <Bond>
0.138

> <Angle>
0.941

> <Pdih>
1.335

> <Idih>
0.000

> <Tether>
0.000

$$$$
VeraChem MOL file


 17 16  0  0  0  0  0  0  0  0999 V2000     
   21.4162   17.7584   21.3461 N   0  3  0  0  0  0  0  0  0  0  0  0
   21.4078   18.3768   20.5300 H   0  0  0  0  0  0  0  0  0  0  0  0
   21.0793   16.8423   21.0353 H   0  0  0  0  0  0  0  0  0  0  0  0
   22.3965   17.6377   21.6200 H   0  0  0  0  0  0  0  0  0  0  0  0
   20.5779   18.3143   22.4810 C   0  0  0  0  0  0  0  0  0  0  0  0
   21.0074   19.2733   22.7820 H   0  0  0  0  0  0  0  0  0  0  0  0
   20.6630   17.6258   23.3261 H   0  0  0  0  0  0  0  0  0  0  0  0
   19.0891   18.5008   22.1221 C   0  0  0  0  0  0  0  0  0  0  0  0
   18.6567   17.5259   21.8605 H   0  0  0  0  0  0  0  0  0  0  0  0
   18.5523   18.8430   23.0168 H   0  0  0  0  0  0  0  0  0  0  0  0
   18.8403   19.5006   20.9653 C   0  0  0  0  0  0  0  0  0  0  0  0
   17.7598   19.5566   20.7724 H   0  0  0  0  0  0  0  0  0  0  0  0
   19.2947   19.1259   20.0381 H   0  0  0  0  0  0  0  0  0  0  0  0
   19.3706   20.9208   21.2680 C   0  0  0  0  0  0  0  0  0  0  0  0
   18.9295   21.3182   22.1914 H   0  0  0  0  0  0  0  0  0  0  0  0
   19.1153   21.6091   20.4520 H   0  0  0  0  0  0  0  0  0  0  0  0
   20.4622   20.9293   21.3787 H   0  0  0  0  0  0  0  0  0  0  0  0
  1  2  1  0  0  0  0
  1  3  1  0  0  0  0
  1  4  1  0  0  0  0
  1  5  1  0  0  0  0
  5  6  1  0  0  0  0
  5  7  1  0  0  0  0
  5  8  1  0  0  0  0
  8  9  1  0  0  0  0
  8 10  1  0  0  0  0
  8 11  1  0  0  0  0
 11 12  1  0  0  0  0
 11 13  1  0  0  0  0
 11 14  1  0  0  0  0
 14 15  1  0  0  0  0
 14 16  1  0  0  0  0
 14 17  1  0  0  0  0
M  END
> <VConfSearch Rank>
749

> <Conf_Id>
1

> <Delta U+W>
0.685

> <U+W>
-15.179

> <U>
45.697

> <W>
-60.876

> <W(PB)>
-62.586

> <W(SA)>
1.710

> <Valence>
1.263

> <Coulomb>
44.179

> <VdW>
0.255

> <VdW6>
-3.552

> <VdW12>
3.807

> <Bond>
0.125

> <Angle>
0.616

> <Pdih>
0.521

> <Idih>
0.000

> <Tether>
0.000

$$$$
VeraChem MOL file


 17 16  0  0  0  0  0  0  0  0999 V2000     
   20.1631   19.5942   19.7097 N   0  3  0  0  0  0  0  0  0  0  0  0
   19.2621   19.7450   19.2462 H   0  0  0  0  0  0  0  0  0  0  0  0
   20.3205   18.5830   19.7439 H   0  0  0  0  0  0  0  0  0  0  0  0
   20.8832   19.9885   19.0959 H   0  0  0  0  0  0  0  0  0  0  0  0
   20.1989   20.2155   21.0927 C   0  0  0  0  0  0  0  0  0  0  0  0
   20.0624   21.2941   20.9768 H   0  0  0  0  0  0  0  0  0  0  0  0
   21.1920   20.0443   21.5161 H   0  0  0  0  0  0  0  0  0  0  0  0
   19.1227   19.6645   22.0509 C   0  0  0  0  0  0  0  0  0  0  0  0
   19.1827   20.2140   22.9997 H   0  0  0  0  0  0  0  0  0  0  0  0
   18.1283   19.8773   21.6367 H   0  0  0  0  0  0  0  0  0  0  0  0
   19.2479   18.1464   22.3329 C   0  0  0  0  0  0  0  0  0  0  0  0
   19.0983   17.5766   21.4058 H   0  0  0  0  0  0  0  0  0  0  0  0
   18.4359   17.8441   23.0090 H   0  0  0  0  0  0  0  0  0  0  0  0
   20.6021   17.7585   22.9696 C   0  0  0  0  0  0  0  0  0  0  0  0
   20.6212   16.6880   23.2116 H   0  0  0  0  0  0  0  0  0  0  0  0
   20.7746   18.3150   23.9000 H   0  0  0  0  0  0  0  0  0  0  0  0
   21.4401   17.9590   22.2903 H   0  0  0  0  0  0  0  0  0  0  0  0
  1  2  1  0  0  0  0
  1  3  1  0  0  0  0
  1  4  1  0  0  0  0
  1  5  1  0  0  0  0
  5  6  1  0  0  0  0
  5  7  1  0  0  0  0
  5  8  1  0  0  0  0
  8  9  1  0  0  0  0
  8 10  1  0  0  0  0
  8 11  1  0  0  0  0
 11 12  1  0  0  0  0
 11 13  1  0  0  0  0
 11 14  1  0  0  0  0
 14 15  1  0  0  0  0
 14 16  1  0  0  0  0
 14 17  1  0  0  0  0
M  END
> <VConfSearch Rank>
750

> <Conf_Id>
43

> <Delta U+W>
0.642

> <U+W>
-15.222

> <U>
45.697

> <W>
-60.919

> <W(PB)>
-62.631

> <W(SA)>
1.712

> <Valence>
1.262

> <Coulomb>
44.179

> <VdW>
0.255

> <VdW6>
-3.552

> <VdW12>
3.807

> <Bond>
0.125

> <Angle>
0.616

> <Pdih>
0.521

> <Idih>
0.000

> <Tether>
0.000

$$$$
VeraChem MOL file


 17 16  0  0  0  0  0  0  0  0999 V2000     
   20.3038   20.6690   19.6323 N   0  3  0  0  0  0  0  0  0  0  0  0
   19.6337   21.3860   19.9265 H   0  0  0  0  0  0  0  0  0  0  0  0
   19.8417   20.1018   18.9151 H   0  0  0  0  0  0  0  0  0  0  0  0
   21.0772   21.1582   19.1703 H   0  0  0  0  0  0  0  0  0  0  0  0
   20.7849   19.8286   20.7983 C   0  0  0  0  0  0  0  0  0  0  0  0
   21.2920   20.4909   21.5052 H   0  0  0  0  0  0  0  0  0  0  0  0
   21.5158   19.1100   20.4176 H   0  0  0  0  0  0  0  0  0  0  0  0
   19.6477   19.0791   21.5160 C   0  0  0  0  0  0  0  0  0  0  0  0
   18.9080   19.8028   21.8834 H   0  0  0  0  0  0  0  0  0  0  0  0
   19.1310   18.4266   20.7995 H   0  0  0  0  0  0  0  0  0  0  0  0
   20.1801   18.2363   22.6957 C   0  0  0  0  0  0  0  0  0  0  0  0
   20.7003   18.8884   23.4116 H   0  0  0  0  0  0  0  0  0  0  0  0
   20.9230   17.5138   22.3290 H   0  0  0  0  0  0  0  0  0  0  0  0
   19.0449   17.4815   23.4205 C   0  0  0  0  0  0  0  0  0  0  0  0
   19.4435   16.8894   24.2545 H   0  0  0  0  0  0  0  0  0  0  0  0
   18.5277   16.7949   22.7377 H   0  0  0  0  0  0  0  0  0  0  0  0
   18.3031   18.1804   23.8287 H   0  0  0  0  0  0  0  0  0  0  0  0
  1  2  1  0  0  0  0
  1  3  1  0  0  0  0
  1  4  1  0  0  0  0
  1  5  1  0  0  0  0
  5  6  1  0  0  0  0
  5  7  1  0  0  0  0
  5  8  1  0  0  0  0
  8  9  1  0  0  0  0
  8 10  1  0  0  0  0
  8 11  1  0  0  0  0
 11 12  1  0  0  0  0
 11 13  1  0  0  0  0
 11 14  1  0  0  0  0
 14 15  1  0  0  0  0
 14 16  1  0  0  0  0
 14 17  1  0  0  0  0
M  END
> <VConfSearch Rank>
751

> <Conf_Id>
7

> <Delta U+W>
0.000

> <U+W>
-15.865

> <U>
44.664

> <W>
-60.529

> <W(PB)>
-62.309

> <W(SA)>
1.780

> <Valence>
0.872

> <Coulomb>
43.648

> <VdW>
0.144

> <VdW6>
-2.370

> <VdW12>
2.515

> <Bond>
0.080

> <Angle>
0.376

> <Pdih>
0.416

> <Idih>
0.000

> <Tether>
0.000

$$$$
VeraChem MOL file


 17 16  0  0  0  0  0  0  0  0999 V2000     
   19.2018   17.0955   20.4813 N   0  3  0  0  0  0  0  0  0  0  0  0
   19.5877   17.0994   19.5323 H   0  0  0  0  0  0  0  0  0  0  0  0
   18.2081   17.3324   20.4028 H   0  0  0  0  0  0  0  0  0  0  0  0
   19.2503   16.1281   20.8169 H   0  0  0  0  0  0  0  0  0  0  0  0
   19.9417   18.0483   21.3990 C   0  0  0  0  0  0  0  0  0  0  0  0
   20.9827   17.7195   21.4592 H   0  0  0  0  0  0  0  0  0  0  0  0
   19.4984   17.9676   22.3949 H   0  0  0  0  0  0  0  0  0  0  0  0
   19.8884   19.5129   20.9235 C   0  0  0  0  0  0  0  0  0  0  0  0
   20.2991   19.5764   19.9071 H   0  0  0  0  0  0  0  0  0  0  0  0
   18.8428   19.8426   20.8614 H   0  0  0  0  0  0  0  0  0  0  0  0
   20.6797   20.4688   21.8466 C   0  0  0  0  0  0  0  0  0  0  0  0
   20.6687   21.4773   21.4097 H   0  0  0  0  0  0  0  0  0  0  0  0
   21.7339   20.1598   21.8835 H   0  0  0  0  0  0  0  0  0  0  0  0
   20.1075   20.5348   23.2812 C   0  0  0  0  0  0  0  0  0  0  0  0
   19.0518   20.8359   23.2721 H   0  0  0  0  0  0  0  0  0  0  0  0
   20.6597   21.2686   23.8825 H   0  0  0  0  0  0  0  0  0  0  0  0
   20.1832   19.5658   23.7907 H   0  0  0  0  0  0  0  0  0  0  0  0
  1  2  1  0  0  0  0
  1  3  1  0  0  0  0
  1  4  1  0  0  0  0
  1  5  1  0  0  0  0
  5  6  1  0  0  0  0
  5  7  1  0  0  0  0
  5  8  1  0  0  0  0
  8  9  1  0  0  0  0
  8 10  1  0  0  0  0
  8 11  1  0  0  0  0
 11 12  1  0  0  0  0
 11 13  1  0  0  0  0
 11 14  1  0  0  0  0
 14 15  1  0  0  0  0
 14 16  1  0  0  0  0
 14 17  1  0  0  0  0
M  END
> <VConfSearch Rank>
752

> <Conf_Id>
36

> <Delta U+W>
0.275

> <U+W>
-15.590

> <U>
45.174

> <W>
-60.765

> <W(PB)>
-62.518

> <W(SA)>
1.754

> <Valence>
1.161

> <Coulomb>
43.789

> <VdW>
0.224

> <VdW6>
-2.897

> <VdW12>
3.121

> <Bond>
0.100

> <Angle>
0.500

> <Pdih>
0.561

> <Idih>
0.000

> <Tether>
0.000

$$$$
VeraChem MOL file


 17 16  0  0  0  0  0  0  0  0999 V2000     
   21.0398   20.4026   21.1127 N   0  3  0  0  0  0  0  0  0  0  0  0
   21.5094   19.7771   21.7723 H   0  0  0  0  0  0  0  0  0  0  0  0
   20.7128   21.2133   21.6469 H   0  0  0  0  0  0  0  0  0  0  0  0
   21.7527   20.7445   20.4602 H   0  0  0  0  0  0  0  0  0  0  0  0
   19.9017   19.7069   20.3911 C   0  0  0  0  0  0  0  0  0  0  0  0
   20.3169   18.8962   19.7863 H   0  0  0  0  0  0  0  0  0  0  0  0
   19.4571   20.4405   19.7131 H   0  0  0  0  0  0  0  0  0  0  0  0
   18.8035   19.1535   21.3234 C   0  0  0  0  0  0  0  0  0  0  0  0
   18.5592   19.8937   22.0967 H   0  0  0  0  0  0  0  0  0  0  0  0
   17.8899   19.0282   20.7271 H   0  0  0  0  0  0  0  0  0  0  0  0
   19.1401   17.7867   21.9725 C   0  0  0  0  0  0  0  0  0  0  0  0
   19.3206   17.0391   21.1873 H   0  0  0  0  0  0  0  0  0  0  0  0
   18.2560   17.4392   22.5253 H   0  0  0  0  0  0  0  0  0  0  0  0
   20.3447   17.8183   22.9403 C   0  0  0  0  0  0  0  0  0  0  0  0
   21.2898   17.9559   22.4021 H   0  0  0  0  0  0  0  0  0  0  0  0
   20.4198   16.8684   23.4855 H   0  0  0  0  0  0  0  0  0  0  0  0
   20.2390   18.6205   23.6823 H   0  0  0  0  0  0  0  0  0  0  0  0
  1  2  1  0  0  0  0
  1  3  1  0  0  0  0
  1  4  1  0  0  0  0
  1  5  1  0  0  0  0
  5  6  1  0  0  0  0
  5  7  1  0  0  0  0
  5  8  1  0  0  0  0
  8  9  1  0  0  0  0
  8 10  1  0  0  0  0
  8 11  1  0  0  0  0
 11 12  1  0  0  0  0
 11 13  1  0  0  0  0
 11 14  1  0  0  0  0
 14 15  1  0  0  0  0
 14 16  1  0  0  0  0
 14 17  1  0  0  0  0
M  END
> <VConfSearch Rank>
753

> <Conf_Id>
19

> <Delta U+W>
2.662

> <U+W>
-13.203

> <U>
47.423

> <W>
-60.626

> <W(PB)>
-62.328

> <W(SA)>
1.702

> <Valence>
2.414

> <Coulomb>
44.831

> <VdW>
0.178

> <VdW6>
-3.743

> <VdW12>
3.921

> <Bond>
0.138

> <Angle>
0.941

> <Pdih>
1.335

> <Idih>
0.000

> <Tether>
0.000

$$$$
VeraChem MOL file


 17 16  0  0  0  0  0  0  0  0999 V2000     
   18.5799   17.7861   21.2308 N   0  3  0  0  0  0  0  0  0  0  0  0
   18.3787   16.7950   21.0633 H   0  0  0  0  0  0  0  0  0  0  0  0
   17.7361   18.3079   20.9754 H   0  0  0  0  0  0  0  0  0  0  0  0
   18.7114   17.9013   22.2389 H   0  0  0  0  0  0  0  0  0  0  0  0
   19.7913   18.2558   20.4485 C   0  0  0  0  0  0  0  0  0  0  0  0
   19.5679   18.1007   19.3894 H   0  0  0  0  0  0  0  0  0  0  0  0
   20.6423   17.6215   20.7106 H   0  0  0  0  0  0  0  0  0  0  0  0
   20.1560   19.7384   20.6735 C   0  0  0  0  0  0  0  0  0  0  0  0
   20.7619   20.0677   19.8189 H   0  0  0  0  0  0  0  0  0  0  0  0
   19.2480   20.3556   20.6545 H   0  0  0  0  0  0  0  0  0  0  0  0
   20.9668   20.0118   21.9660 C   0  0  0  0  0  0  0  0  0  0  0  0
   21.2609   21.0708   21.9724 H   0  0  0  0  0  0  0  0  0  0  0  0
   21.9031   19.4367   21.9435 H   0  0  0  0  0  0  0  0  0  0  0  0
   20.2050   19.7047   23.2753 C   0  0  0  0  0  0  0  0  0  0  0  0
   19.2205   20.1902   23.2869 H   0  0  0  0  0  0  0  0  0  0  0  0
   20.7697   20.0763   24.1402 H   0  0  0  0  0  0  0  0  0  0  0  0
   20.0698   18.6263   23.4186 H   0  0  0  0  0  0  0  0  0  0  0  0
  1  2  1  0  0  0  0
  1  3  1  0  0  0  0
  1  4  1  0  0  0  0
  1  5  1  0  0  0  0
  5  6  1  0  0  0  0
  5  7  1  0  0  0  0
  5  8  1  0  0  0  0
  8  9  1  0  0  0  0
  8 10  1  0  0  0  0
  8 11  1  0  0  0  0
 11 12  1  0  0  0  0
 11 13  1  0  0  0  0
 11 14  1  0  0  0  0
 14 15  1  0  0  0  0
 14 16  1  0  0  0  0
 14 17  1  0  0  0  0
M  END
> <VConfSearch Rank>
754

> <Conf_Id>
44

> <Delta U+W>
2.712

> <U+W>
-13.153

> <U>
47.423

> <W>
-60.576

> <W(PB)>
-62.262

> <W(SA)>
1.687

> <Valence>
2.414

> <Coulomb>
44.831

> <VdW>
0.178

> <VdW6>
-3.743

> <VdW12>
3.922

> <Bond>
0.138

> <Angle>
0.941

> <Pdih>
1.335

> <Idih>
0.000

> <Tether>
0.000

$$$$
VeraChem MOL file


 17 16  0  0  0  0  0  0  0  0999 V2000     
   21.2062   19.7376   20.2576 N   0  3  0  0  0  0  0  0  0  0  0  0
   21.7348   19.1396   20.8990 H   0  0  0  0  0  0  0  0  0  0  0  0
   21.4708   20.7065   20.4594 H   0  0  0  0  0  0  0  0  0  0  0  0
   21.5394   19.5291   19.3109 H   0  0  0  0  0  0  0  0  0  0  0  0
   19.7112   19.5202   20.3900 C   0  0  0  0  0  0  0  0  0  0  0  0
   19.4955   18.4797   20.1336 H   0  0  0  0  0  0  0  0  0  0  0  0
   19.2153   20.1592   19.6543 H   0  0  0  0  0  0  0  0  0  0  0  0
   19.1582   19.8351   21.7953 C   0  0  0  0  0  0  0  0  0  0  0  0
   19.3435   20.8924   22.0269 H   0  0  0  0  0  0  0  0  0  0  0  0
   18.0671   19.7126   21.7790 H   0  0  0  0  0  0  0  0  0  0  0  0
   19.7531   18.9507   22.9193 C   0  0  0  0  0  0  0  0  0  0  0  0
   19.3136   19.2555   23.8794 H   0  0  0  0  0  0  0  0  0  0  0  0
   20.8330   19.1307   23.0097 H   0  0  0  0  0  0  0  0  0  0  0  0
   19.4930   17.4421   22.7044 C   0  0  0  0  0  0  0  0  0  0  0  0
   18.4187   17.2361   22.6119 H   0  0  0  0  0  0  0  0  0  0  0  0
   19.8732   16.8609   23.5544 H   0  0  0  0  0  0  0  0  0  0  0  0
   19.9919   17.0709   21.8003 H   0  0  0  0  0  0  0  0  0  0  0  0
  1  2  1  0  0  0  0
  1  3  1  0  0  0  0
  1  4  1  0  0  0  0
  1  5  1  0  0  0  0
  5  6  1  0  0  0  0
  5  7  1  0  0  0  0
  5  8  1  0  0  0  0
  8  9  1  0  0  0  0
  8 10  1  0  0  0  0
  8 11  1  0  0  0  0
 11 12  1  0  0  0  0
 11 13  1  0  0  0  0
 11 14  1  0  0  0  0
 14 15  1  0  0  0  0
 14 16  1  0  0  0  0
 14 17  1  0  0  0  0
M  END
> <VConfSearch Rank>
755

> <Conf_Id>
1

> <Delta U+W>
0.685

> <U+W>
-15.179

> <U>
45.697

> <W>
-60.876

> <W(PB)>
-62.586

> <W(SA)>
1.710

> <Valence>
1.263

> <Coulomb>
44.179

> <VdW>
0.255

> <VdW6>
-3.552

> <VdW12>
3.807

> <Bond>
0.125

> <Angle>
0.616

> <Pdih>
0.521

> <Idih>
0.000

> <Tether>
0.000

$$$$
VeraChem MOL file


 17 16  0  0  0  0  0  0  0  0999 V2000     
   21.3571   17.7307   21.1426 N   0  3  0  0  0  0  0  0  0  0  0  0
   20.9676   16.8433   20.8108 H   0  0  0  0  0  0  0  0  0  0  0  0
   21.2704   17.7368   22.1628 H   0  0  0  0  0  0  0  0  0  0  0  0
   22.3592   17.7148   20.9275 H   0  0  0  0  0  0  0  0  0  0  0  0
   20.6639   18.9235   20.5128 C   0  0  0  0  0  0  0  0  0  0  0  0
   20.8287   18.8725   19.4331 H   0  0  0  0  0  0  0  0  0  0  0  0
   21.1452   19.8315   20.8853 H   0  0  0  0  0  0  0  0  0  0  0  0
   19.1487   18.9842   20.7959 C   0  0  0  0  0  0  0  0  0  0  0  0
   18.7235   19.8375   20.2510 H   0  0  0  0  0  0  0  0  0  0  0  0
   18.6685   18.0875   20.3821 H   0  0  0  0  0  0  0  0  0  0  0  0
   18.7930   19.1109   22.2982 C   0  0  0  0  0  0  0  0  0  0  0  0
   19.1318   18.2192   22.8429 H   0  0  0  0  0  0  0  0  0  0  0  0
   17.6991   19.1321   22.4022 H   0  0  0  0  0  0  0  0  0  0  0  0
   19.3846   20.3787   22.9557 C   0  0  0  0  0  0  0  0  0  0  0  0
   19.0541   20.4612   23.9992 H   0  0  0  0  0  0  0  0  0  0  0  0
   19.0590   21.2850   22.4289 H   0  0  0  0  0  0  0  0  0  0  0  0
   20.4817   20.3587   22.9568 H   0  0  0  0  0  0  0  0  0  0  0  0
  1  2  1  0  0  0  0
  1  3  1  0  0  0  0
  1  4  1  0  0  0  0
  1  5  1  0  0  0  0
  5  6  1  0  0  0  0
  5  7  1  0  0  0  0
  5  8  1  0  0  0  0
  8  9  1  0  0  0  0
  8 10  1  0  0  0  0
  8 11  1  0  0  0  0
 11 12  1  0  0  0  0
 11 13  1  0  0  0  0
 11 14  1  0  0  0  0
 14 15  1  0  0  0  0
 14 16  1  0  0  0  0
 14 17  1  0  0  0  0
M  END
> <VConfSearch Rank>
756

> <Conf_Id>
43

> <Delta U+W>
0.642

> <U+W>
-15.222

> <U>
45.697

> <W>
-60.919

> <W(PB)>
-62.631

> <W(SA)>
1.712

> <Valence>
1.262

> <Coulomb>
44.179

> <VdW>
0.255

> <VdW6>
-3.552

> <VdW12>
3.807

> <Bond>
0.125

> <Angle>
0.616

> <Pdih>
0.521

> <Idih>
0.000

> <Tether>
0.000

$$$$
VeraChem MOL file


 17 16  0  0  0  0  0  0  0  0999 V2000     
   21.5538   18.1719   19.8009 N   0  3  0  0  0  0  0  0  0  0  0  0
   20.9924   17.3649   19.5124 H   0  0  0  0  0  0  0  0  0  0  0  0
   22.2822   17.8218   20.4306 H   0  0  0  0  0  0  0  0  0  0  0  0
   22.0294   18.5174   18.9610 H   0  0  0  0  0  0  0  0  0  0  0  0
   20.7086   19.2480   20.4529 C   0  0  0  0  0  0  0  0  0  0  0  0
   19.9773   19.5945   19.7176 H   0  0  0  0  0  0  0  0  0  0  0  0
   21.3643   20.0859   20.7049 H   0  0  0  0  0  0  0  0  0  0  0  0
   19.9793   18.7627   21.7189 C   0  0  0  0  0  0  0  0  0  0  0  0
   19.3336   17.9114   21.4649 H   0  0  0  0  0  0  0  0  0  0  0  0
   20.7158   18.4012   22.4489 H   0  0  0  0  0  0  0  0  0  0  0  0
   19.1307   19.8879   22.3508 C   0  0  0  0  0  0  0  0  0  0  0  0
   18.3954   20.2524   21.6195 H   0  0  0  0  0  0  0  0  0  0  0  0
   19.7760   20.7415   22.6023 H   0  0  0  0  0  0  0  0  0  0  0  0
   18.3961   19.4083   23.6213 C   0  0  0  0  0  0  0  0  0  0  0  0
   17.7994   20.2216   24.0546 H   0  0  0  0  0  0  0  0  0  0  0  0
   19.1078   19.0696   24.3855 H   0  0  0  0  0  0  0  0  0  0  0  0
   17.7164   18.5765   23.3948 H   0  0  0  0  0  0  0  0  0  0  0  0
  1  2  1  0  0  0  0
  1  3  1  0  0  0  0
  1  4  1  0  0  0  0
  1  5  1  0  0  0  0
  5  6  1  0  0  0  0
  5  7  1  0  0  0  0
  5  8  1  0  0  0  0
  8  9  1  0  0  0  0
  8 10  1  0  0  0  0
  8 11  1  0  0  0  0
 11 12  1  0  0  0  0
 11 13  1  0  0  0  0
 11 14  1  0  0  0  0
 14 15  1  0  0  0  0
 14 16  1  0  0  0  0
 14 17  1  0  0  0  0
M  END
> <VConfSearch Rank>
757

> <Conf_Id>
7

> <Delta U+W>
0.000

> <U+W>
-15.865

> <U>
44.664

> <W>
-60.529

> <W(PB)>
-62.309

> <W(SA)>
1.780

> <Valence>
0.872

> <Coulomb>
43.648

> <VdW>
0.144

> <VdW6>
-2.370

> <VdW12>
2.515

> <Bond>
0.080

> <Angle>
0.376

> <Pdih>
0.416

> <Idih>
0.000

> <Tether>
0.000

$$$$
VeraChem MOL file


 17 16  0  0  0  0  0  0  0  0999 V2000     
   21.1541   17.5819   20.1945 N   0  3  0  0  0  0  0  0  0  0  0  0
   21.9562   18.0809   19.7979 H   0  0  0  0  0  0  0  0  0  0  0  0
   20.4559   17.4950   19.4498 H   0  0  0  0  0  0  0  0  0  0  0  0
   21.4742   16.6329   20.4129 H   0  0  0  0  0  0  0  0  0  0  0  0
   20.5963   18.2839   21.4165 C   0  0  0  0  0  0  0  0  0  0  0  0
   21.3814   18.3140   22.1768 H   0  0  0  0  0  0  0  0  0  0  0  0
   19.7691   17.6818   21.8014 H   0  0  0  0  0  0  0  0  0  0  0  0
   20.1051   19.7145   21.1231 C   0  0  0  0  0  0  0  0  0  0  0  0
   20.9326   20.2993   20.6997 H   0  0  0  0  0  0  0  0  0  0  0  0
   19.3177   19.6844   20.3582 H   0  0  0  0  0  0  0  0  0  0  0  0
   19.5748   20.4338   22.3854 C   0  0  0  0  0  0  0  0  0  0  0  0
   19.3175   21.4699   22.1242 H   0  0  0  0  0  0  0  0  0  0  0  0
   20.3721   20.4943   23.1396 H   0  0  0  0  0  0  0  0  0  0  0  0
   18.3331   19.7448   22.9966 C   0  0  0  0  0  0  0  0  0  0  0  0
   17.5225   19.6662   22.2605 H   0  0  0  0  0  0  0  0  0  0  0  0
   17.9547   20.3210   23.8509 H   0  0  0  0  0  0  0  0  0  0  0  0
   18.5683   18.7353   23.3568 H   0  0  0  0  0  0  0  0  0  0  0  0
  1  2  1  0  0  0  0
  1  3  1  0  0  0  0
  1  4  1  0  0  0  0
  1  5  1  0  0  0  0
  5  6  1  0  0  0  0
  5  7  1  0  0  0  0
  5  8  1  0  0  0  0
  8  9  1  0  0  0  0
  8 10  1  0  0  0  0
  8 11  1  0  0  0  0
 11 12  1  0  0  0  0
 11 13  1  0  0  0  0
 11 14  1  0  0  0  0
 14 15  1  0  0  0  0
 14 16  1  0  0  0  0
 14 17  1  0  0  0  0
M  END
> <VConfSearch Rank>
758

> <Conf_Id>
36

> <Delta U+W>
0.275

> <U+W>
-15.590

> <U>
45.174

> <W>
-60.765

> <W(PB)>
-62.518

> <W(SA)>
1.754

> <Valence>
1.161

> <Coulomb>
43.789

> <VdW>
0.224

> <VdW6>
-2.897

> <VdW12>
3.121

> <Bond>
0.100

> <Angle>
0.500

> <Pdih>
0.561

> <Idih>
0.000

> <Tether>
0.000

$$$$
VeraChem MOL file


 17 16  0  0  0  0  0  0  0  0999 V2000     
   18.5007   18.1039   20.8221 N   0  3  0  0  0  0  0  0  0  0  0  0
   19.2806   17.4644   20.9941 H   0  0  0  0  0  0  0  0  0  0  0  0
   18.5244   18.3474   19.8273 H   0  0  0  0  0  0  0  0  0  0  0  0
   17.6362   17.5755   20.9782 H   0  0  0  0  0  0  0  0  0  0  0  0
   18.5772   19.3343   21.7054 C   0  0  0  0  0  0  0  0  0  0  0  0
   18.4789   19.0209   22.7482 H   0  0  0  0  0  0  0  0  0  0  0  0
   17.7151   19.9597   21.4580 H   0  0  0  0  0  0  0  0  0  0  0  0
   19.8668   20.1632   21.5285 C   0  0  0  0  0  0  0  0  0  0  0  0
   20.1020   20.2687   20.4611 H   0  0  0  0  0  0  0  0  0  0  0  0
   19.6651   21.1787   21.8943 H   0  0  0  0  0  0  0  0  0  0  0  0
   21.0945   19.6142   22.2993 C   0  0  0  0  0  0  0  0  0  0  0  0
   20.8679   19.5730   23.3740 H   0  0  0  0  0  0  0  0  0  0  0  0
   21.9204   20.3311   22.1903 H   0  0  0  0  0  0  0  0  0  0  0  0
   21.5808   18.2270   21.8219 C   0  0  0  0  0  0  0  0  0  0  0  0
   20.8745   17.4357   22.0989 H   0  0  0  0  0  0  0  0  0  0  0  0
   22.5423   17.9789   22.2901 H   0  0  0  0  0  0  0  0  0  0  0  0
   21.7258   18.2081   20.7338 H   0  0  0  0  0  0  0  0  0  0  0  0
  1  2  1  0  0  0  0
  1  3  1  0  0  0  0
  1  4  1  0  0  0  0
  1  5  1  0  0  0  0
  5  6  1  0  0  0  0
  5  7  1  0  0  0  0
  5  8  1  0  0  0  0
  8  9  1  0  0  0  0
  8 10  1  0  0  0  0
  8 11  1  0  0  0  0
 11 12  1  0  0  0  0
 11 13  1  0  0  0  0
 11 14  1  0  0  0  0
 14 15  1  0  0  0  0
 14 16  1  0  0  0  0
 14 17  1  0  0  0  0
M  END
> <VConfSearch Rank>
759

> <Conf_Id>
19

> <Delta U+W>
2.662

> <U+W>
-13.203

> <U>
47.423

> <W>
-60.626

> <W(PB)>
-62.328

> <W(SA)>
1.702

> <Valence>
2.414

> <Coulomb>
44.831

> <VdW>
0.178

> <VdW6>
-3.743

> <VdW12>
3.921

> <Bond>
0.138

> <Angle>
0.941

> <Pdih>
1.335

> <Idih>
0.000

> <Tether>
0.000

$$$$
VeraChem MOL file


 17 16  0  0  0  0  0  0  0  0999 V2000     
   20.8329   20.6397   21.8409 N   0  3  0  0  0  0  0  0  0  0  0  0
   21.2944   21.4360   21.3897 H   0  0  0  0  0  0  0  0  0  0  0  0
   21.1080   20.6568   22.8275 H   0  0  0  0  0  0  0  0  0  0  0  0
   19.8255   20.8153   21.8063 H   0  0  0  0  0  0  0  0  0  0  0  0
   21.1977   19.3258   21.1769 C   0  0  0  0  0  0  0  0  0  0  0  0
   22.2824   19.2162   21.2595 H   0  0  0  0  0  0  0  0  0  0  0  0
   20.9446   19.3903   20.1153 H   0  0  0  0  0  0  0  0  0  0  0  0
   20.5183   18.0891   21.8017 C   0  0  0  0  0  0  0  0  0  0  0  0
   21.1124   17.2069   21.5286 H   0  0  0  0  0  0  0  0  0  0  0  0
   20.5585   18.1518   22.8973 H   0  0  0  0  0  0  0  0  0  0  0  0
   19.0620   17.8480   21.3286 C   0  0  0  0  0  0  0  0  0  0  0  0
   18.7152   16.8934   21.7488 H   0  0  0  0  0  0  0  0  0  0  0  0
   19.0440   17.7237   20.2367 H   0  0  0  0  0  0  0  0  0  0  0  0
   18.0655   18.9565   21.7374 C   0  0  0  0  0  0  0  0  0  0  0  0
   18.1274   19.1717   22.8121 H   0  0  0  0  0  0  0  0  0  0  0  0
   17.0365   18.6424   21.5194 H   0  0  0  0  0  0  0  0  0  0  0  0
   18.2438   19.8834   21.1798 H   0  0  0  0  0  0  0  0  0  0  0  0
  1  2  1  0  0  0  0
  1  3  1  0  0  0  0
  1  4  1  0  0  0  0
  1  5  1  0  0  0  0
  5  6  1  0  0  0  0
  5  7  1  0  0  0  0
  5  8  1  0  0  0  0
  8  9  1  0  0  0  0
  8 10  1  0  0  0  0
  8 11  1  0  0  0  0
 11 12  1  0  0  0  0
 11 13  1  0  0  0  0
 11 14  1  0  0  0  0
 14 15  1  0  0  0  0
 14 16  1  0  0  0  0
 14 17  1  0  0  0  0
M  END
> <VConfSearch Rank>
760

> <Conf_Id>
44

> <Delta U+W>
2.712

> <U+W>
-13.153

> <U>
47.423

> <W>
-60.576

> <W(PB)>
-62.262

> <W(SA)>
1.687

> <Valence>
2.414

> <Coulomb>
44.831

> <VdW>
0.178

> <VdW6>
-3.743

> <VdW12>
3.922

> <Bond>
0.138

> <Angle>
0.941

> <Pdih>
1.335

> <Idih>
0.000

> <Tether>
0.000

$$$$
VeraChem MOL file


 17 16  0  0  0  0  0  0  0  0999 V2000     
   18.8105   20.4872   22.3863 N   0  3  0  0  0  0  0  0  0  0  0  0
   18.7489   20.5804   21.3685 H   0  0  0  0  0  0  0  0  0  0  0  0
   19.3894   21.2608   22.7267 H   0  0  0  0  0  0  0  0  0  0  0  0
   17.8669   20.6356   22.7581 H   0  0  0  0  0  0  0  0  0  0  0  0
   19.3718   19.1387   22.7940 C   0  0  0  0  0  0  0  0  0  0  0  0
   18.6942   18.3638   22.4264 H   0  0  0  0  0  0  0  0  0  0  0  0
   19.3736   19.0953   23.8866 H   0  0  0  0  0  0  0  0  0  0  0  0
   20.7984   18.8737   22.2700 C   0  0  0  0  0  0  0  0  0  0  0  0
   21.4788   19.6332   22.6773 H   0  0  0  0  0  0  0  0  0  0  0  0
   21.1445   17.9096   22.6658 H   0  0  0  0  0  0  0  0  0  0  0  0
   20.9096   18.8595   20.7251 C   0  0  0  0  0  0  0  0  0  0  0  0
   21.9576   18.6793   20.4474 H   0  0  0  0  0  0  0  0  0  0  0  0
   20.6542   19.8476   20.3190 H   0  0  0  0  0  0  0  0  0  0  0  0
   20.0224   17.7798   20.0641 C   0  0  0  0  0  0  0  0  0  0  0  0
   20.2599   16.7812   20.4535 H   0  0  0  0  0  0  0  0  0  0  0  0
   20.1819   17.7621   18.9782 H   0  0  0  0  0  0  0  0  0  0  0  0
   18.9561   17.9707   20.2387 H   0  0  0  0  0  0  0  0  0  0  0  0
  1  2  1  0  0  0  0
  1  3  1  0  0  0  0
  1  4  1  0  0  0  0
  1  5  1  0  0  0  0
  5  6  1  0  0  0  0
  5  7  1  0  0  0  0
  5  8  1  0  0  0  0
  8  9  1  0  0  0  0
  8 10  1  0  0  0  0
  8 11  1  0  0  0  0
 11 12  1  0  0  0  0
 11 13  1  0  0  0  0
 11 14  1  0  0  0  0
 14 15  1  0  0  0  0
 14 16  1  0  0  0  0
 14 17  1  0  0  0  0
M  END
> <VConfSearch Rank>
761

> <Conf_Id>
1

> <Delta U+W>
0.685

> <U+W>
-15.179

> <U>
45.697

> <W>
-60.876

> <W(PB)>
-62.586

> <W(SA)>
1.710

> <Valence>
1.263

> <Coulomb>
44.179

> <VdW>
0.255

> <VdW6>
-3.552

> <VdW12>
3.807

> <Bond>
0.125

> <Angle>
0.616

> <Pdih>
0.521

> <Idih>
0.000

> <Tether>
0.000

$$$$
VeraChem MOL file


 17 16  0  0  0  0  0  0  0  0999 V2000     
   19.7452   20.2413   20.0356 N   0  3  0  0  0  0  0  0  0  0  0  0
   20.5997   20.7844   19.8800 H   0  0  0  0  0  0  0  0  0  0  0  0
   19.2458   20.6793   20.8149 H   0  0  0  0  0  0  0  0  0  0  0  0
   19.1612   20.3600   19.2016 H   0  0  0  0  0  0  0  0  0  0  0  0
   20.0453   18.7805   20.3107 C   0  0  0  0  0  0  0  0  0  0  0  0
   20.5421   18.3705   19.4272 H   0  0  0  0  0  0  0  0  0  0  0  0
   19.0944   18.2565   20.4371 H   0  0  0  0  0  0  0  0  0  0  0  0
   20.9350   18.5502   21.5498 C   0  0  0  0  0  0  0  0  0  0  0  0
   21.1513   17.4768   21.6323 H   0  0  0  0  0  0  0  0  0  0  0  0
   21.9026   19.0460   21.3960 H   0  0  0  0  0  0  0  0  0  0  0  0
   20.3082   19.0469   22.8765 C   0  0  0  0  0  0  0  0  0  0  0  0
   20.1702   20.1362   22.8444 H   0  0  0  0  0  0  0  0  0  0  0  0
   21.0154   18.8549   23.6956 H   0  0  0  0  0  0  0  0  0  0  0  0
   18.9621   18.3610   23.2043 C   0  0  0  0  0  0  0  0  0  0  0  0
   18.5882   18.6938   24.1812 H   0  0  0  0  0  0  0  0  0  0  0  0
   19.0744   17.2697   23.2431 H   0  0  0  0  0  0  0  0  0  0  0  0
   18.1946   18.5999   22.4574 H   0  0  0  0  0  0  0  0  0  0  0  0
  1  2  1  0  0  0  0
  1  3  1  0  0  0  0
  1  4  1  0  0  0  0
  1  5  1  0  0  0  0
  5  6  1  0  0  0  0
  5  7  1  0  0  0  0
  5  8  1  0  0  0  0
  8  9  1  0  0  0  0
  8 10  1  0  0  0  0
  8 11  1  0  0  0  0
 11 12  1  0  0  0  0
 11 13  1  0  0  0  0
 11 14  1  0  0  0  0
 14 15  1  0  0  0  0
 14 16  1  0  0  0  0
 14 17  1  0  0  0  0
M  END
> <VConfSearch Rank>
762

> <Conf_Id>
43

> <Delta U+W>
0.642

> <U+W>
-15.222

> <U>
45.697

> <W>
-60.919

> <W(PB)>
-62.631

> <W(SA)>
1.712

> <Valence>
1.262

> <Coulomb>
44.179

> <VdW>
0.255

> <VdW6>
-3.552

> <VdW12>
3.807

> <Bond>
0.125

> <Angle>
0.616

> <Pdih>
0.521

> <Idih>
0.000

> <Tether>
0.000

$$$$
VeraChem MOL file


 17 16  0  0  0  0  0  0  0  0999 V2000     
   22.4275   18.3864   21.4404 N   0  3  0  0  0  0  0  0  0  0  0  0
   22.6956   18.6340   22.3977 H   0  0  0  0  0  0  0  0  0  0  0  0
   22.7348   19.1531   20.8342 H   0  0  0  0  0  0  0  0  0  0  0  0
   22.9813   17.5636   21.1811 H   0  0  0  0  0  0  0  0  0  0  0  0
   20.9395   18.1261   21.3167 C   0  0  0  0  0  0  0  0  0  0  0  0
   20.6897   17.2807   21.9636 H   0  0  0  0  0  0  0  0  0  0  0  0
   20.7319   17.8388   20.2823 H   0  0  0  0  0  0  0  0  0  0  0  0
   20.0769   19.3426   21.6989 C   0  0  0  0  0  0  0  0  0  0  0  0
   20.2993   19.6378   22.7330 H   0  0  0  0  0  0  0  0  0  0  0  0
   20.3412   20.1939   21.0574 H   0  0  0  0  0  0  0  0  0  0  0  0
   18.5697   19.0353   21.5592 C   0  0  0  0  0  0  0  0  0  0  0  0
   18.3052   18.1811   22.1986 H   0  0  0  0  0  0  0  0  0  0  0  0
   18.3470   18.7366   20.5250 H   0  0  0  0  0  0  0  0  0  0  0  0
   17.6980   20.2512   21.9410 C   0  0  0  0  0  0  0  0  0  0  0  0
   16.6318   20.0125   21.8352 H   0  0  0  0  0  0  0  0  0  0  0  0
   17.9156   21.1119   21.2953 H   0  0  0  0  0  0  0  0  0  0  0  0
   17.8735   20.5521   22.9821 H   0  0  0  0  0  0  0  0  0  0  0  0
  1  2  1  0  0  0  0
  1  3  1  0  0  0  0
  1  4  1  0  0  0  0
  1  5  1  0  0  0  0
  5  6  1  0  0  0  0
  5  7  1  0  0  0  0
  5  8  1  0  0  0  0
  8  9  1  0  0  0  0
  8 10  1  0  0  0  0
  8 11  1  0  0  0  0
 11 12  1  0  0  0  0
 11 13  1  0  0  0  0
 11 14  1  0  0  0  0
 14 15  1  0  0  0  0
 14 16  1  0  0  0  0
 14 17  1  0  0  0  0
M  END
> <VConfSearch Rank>
763

> <Conf_Id>
7

> <Delta U+W>
0.000

> <U+W>
-15.865

> <U>
44.664

> <W>
-60.529

> <W(PB)>
-62.309

> <W(SA)>
1.780

> <Valence>
0.872

> <Coulomb>
43.648

> <VdW>
0.144

> <VdW6>
-2.370

> <VdW12>
2.515

> <Bond>
0.080

> <Angle>
0.376

> <Pdih>
0.416

> <Idih>
0.000

> <Tether>
0.000

$$$$
VeraChem MOL file


 17 16  0  0  0  0  0  0  0  0999 V2000     
   19.6886   20.7053   19.8368 N   0  3  0  0  0  0  0  0  0  0  0  0
   20.2621   21.5256   20.0553 H   0  0  0  0  0  0  0  0  0  0  0  0
   18.7132   20.9648   20.0129 H   0  0  0  0  0  0  0  0  0  0  0  0
   19.7749   20.5436   18.8283 H   0  0  0  0  0  0  0  0  0  0  0  0
   20.1065   19.4899   20.6404 C   0  0  0  0  0  0  0  0  0  0  0  0
   21.1421   19.2534   20.3814 H   0  0  0  0  0  0  0  0  0  0  0  0
   19.4761   18.6514   20.3334 H   0  0  0  0  0  0  0  0  0  0  0  0
   19.9886   19.6989   22.1623 C   0  0  0  0  0  0  0  0  0  0  0  0
   20.5936   20.5676   22.4542 H   0  0  0  0  0  0  0  0  0  0  0  0
   18.9488   19.9382   22.4222 H   0  0  0  0  0  0  0  0  0  0  0  0
   20.4549   18.4662   22.9716 C   0  0  0  0  0  0  0  0  0  0  0  0
   20.4217   18.7091   24.0429 H   0  0  0  0  0  0  0  0  0  0  0  0
   21.5059   18.2455   22.7375 H   0  0  0  0  0  0  0  0  0  0  0  0
   19.5906   17.2109   22.7122 C   0  0  0  0  0  0  0  0  0  0  0  0
   18.5332   17.4067   22.9330 H   0  0  0  0  0  0  0  0  0  0  0  0
   19.9175   16.3799   23.3507 H   0  0  0  0  0  0  0  0  0  0  0  0
   19.6670   16.8768   21.6698 H   0  0  0  0  0  0  0  0  0  0  0  0
  1  2  1  0  0  0  0
  1  3  1  0  0  0  0
  1  4  1  0  0  0  0
  1  5  1  0  0  0  0
  5  6  1  0  0  0  0
  5  7  1  0  0  0  0
  5  8  1  0  0  0  0
  8  9  1  0  0  0  0
  8 10  1  0  0  0  0
  8 11  1  0  0  0  0
 11 12  1  0  0  0  0
 11 13  1  0  0  0  0
 11 14  1  0  0  0  0
 14 15  1  0  0  0  0
 14 16  1  0  0  0  0
 14 17  1  0  0  0  0
M  END
> <VConfSearch Rank>
764

> <Conf_Id>
36

> <Delta U+W>
0.275

> <U+W>
-15.590

> <U>
45.174

> <W>
-60.765

> <W(PB)>
-62.518

> <W(SA)>
1.754

> <Valence>
1.161

> <Coulomb>
43.789

> <VdW>
0.224

> <VdW6>
-2.897

> <VdW12>
3.121

> <Bond>
0.100

> <Angle>
0.500

> <Pdih>
0.561

> <Idih>
0.000

> <Tether>
0.000

$$$$
VeraChem MOL file


 17 16  0  0  0  0  0  0  0  0999 V2000     
   18.3469   18.6317   20.7094 N   0  3  0  0  0  0  0  0  0  0  0  0
   18.3746   19.5962   21.0496 H   0  0  0  0  0  0  0  0  0  0  0  0
   17.7685   18.0975   21.3648 H   0  0  0  0  0  0  0  0  0  0  0  0
   17.8494   18.6411   19.8132 H   0  0  0  0  0  0  0  0  0  0  0  0
   19.7380   18.0424   20.5762 C   0  0  0  0  0  0  0  0  0  0  0  0
   20.2847   18.6087   19.8174 H   0  0  0  0  0  0  0  0  0  0  0  0
   19.6180   17.0184   20.2123 H   0  0  0  0  0  0  0  0  0  0  0  0
   20.5450   18.0173   21.8914 C   0  0  0  0  0  0  0  0  0  0  0  0
   19.9073   17.6742   22.7168 H   0  0  0  0  0  0  0  0  0  0  0  0
   21.3338   17.2607   21.7858 H   0  0  0  0  0  0  0  0  0  0  0  0
   21.2215   19.3633   22.2562 C   0  0  0  0  0  0  0  0  0  0  0  0
   21.9051   19.6639   21.4498 H   0  0  0  0  0  0  0  0  0  0  0  0
   21.8500   19.2053   23.1440 H   0  0  0  0  0  0  0  0  0  0  0  0
   20.2344   20.5155   22.5508 C   0  0  0  0  0  0  0  0  0  0  0  0
   19.7278   20.8542   21.6396 H   0  0  0  0  0  0  0  0  0  0  0  0
   20.7710   21.3807   22.9616 H   0  0  0  0  0  0  0  0  0  0  0  0
   19.4773   20.2136   23.2863 H   0  0  0  0  0  0  0  0  0  0  0  0
  1  2  1  0  0  0  0
  1  3  1  0  0  0  0
  1  4  1  0  0  0  0
  1  5  1  0  0  0  0
  5  6  1  0  0  0  0
  5  7  1  0  0  0  0
  5  8  1  0  0  0  0
  8  9  1  0  0  0  0
  8 10  1  0  0  0  0
  8 11  1  0  0  0  0
 11 12  1  0  0  0  0
 11 13  1  0  0  0  0
 11 14  1  0  0  0  0
 14 15  1  0  0  0  0
 14 16  1  0  0  0  0
 14 17  1  0  0  0  0
M  END
> <VConfSearch Rank>
765

> <Conf_Id>
19

> <Delta U+W>
2.662

> <U+W>
-13.203

> <U>
47.423

> <W>
-60.626

> <W(PB)>
-62.328

> <W(SA)>
1.702

> <Valence>
2.414

> <Coulomb>
44.831

> <VdW>
0.178

> <VdW6>
-3.743

> <VdW12>
3.921

> <Bond>
0.138

> <Angle>
0.941

> <Pdih>
1.335

> <Idih>
0.000

> <Tether>
0.000

$$$$
VeraChem MOL file


 17 16  0  0  0  0  0  0  0  0999 V2000     
   21.4481   19.7171   22.3541 N   0  3  0  0  0  0  0  0  0  0  0  0
   22.4526   19.8800   22.2300 H   0  0  0  0  0  0  0  0  0  0  0  0
   21.2422   19.8726   23.3455 H   0  0  0  0  0  0  0  0  0  0  0  0
   20.9570   20.4438   21.8272 H   0  0  0  0  0  0  0  0  0  0  0  0
   21.0425   18.3263   21.9056 C   0  0  0  0  0  0  0  0  0  0  0  0
   21.6075   17.6162   22.5156 H   0  0  0  0  0  0  0  0  0  0  0  0
   21.3470   18.1938   20.8640 H   0  0  0  0  0  0  0  0  0  0  0  0
   19.5357   18.0269   22.0515 C   0  0  0  0  0  0  0  0  0  0  0  0
   19.4117   16.9360   22.0746 H   0  0  0  0  0  0  0  0  0  0  0  0
   19.1724   18.3918   23.0214 H   0  0  0  0  0  0  0  0  0  0  0  0
   18.6558   18.5823   20.9026 C   0  0  0  0  0  0  0  0  0  0  0  0
   17.6272   18.2244   21.0505 H   0  0  0  0  0  0  0  0  0  0  0  0
   18.9895   18.1601   19.9443 H   0  0  0  0  0  0  0  0  0  0  0  0
   18.6310   20.1247   20.8051 C   0  0  0  0  0  0  0  0  0  0  0  0
   18.3929   20.5816   21.7744 H   0  0  0  0  0  0  0  0  0  0  0  0
   17.8658   20.4483   20.0875 H   0  0  0  0  0  0  0  0  0  0  0  0
   19.5904   20.5210   20.4528 H   0  0  0  0  0  0  0  0  0  0  0  0
  1  2  1  0  0  0  0
  1  3  1  0  0  0  0
  1  4  1  0  0  0  0
  1  5  1  0  0  0  0
  5  6  1  0  0  0  0
  5  7  1  0  0  0  0
  5  8  1  0  0  0  0
  8  9  1  0  0  0  0
  8 10  1  0  0  0  0
  8 11  1  0  0  0  0
 11 12  1  0  0  0  0
 11 13  1  0  0  0  0
 11 14  1  0  0  0  0
 14 15  1  0  0  0  0
 14 16  1  0  0  0  0
 14 17  1  0  0  0  0
M  END
> <VConfSearch Rank>
766

> <Conf_Id>
44

> <Delta U+W>
2.712

> <U+W>
-13.153

> <U>
47.423

> <W>
-60.576

> <W(PB)>
-62.262

> <W(SA)>
1.687

> <Valence>
2.414

> <Coulomb>
44.831

> <VdW>
0.178

> <VdW6>
-3.743

> <VdW12>
3.922

> <Bond>
0.138

> <Angle>
0.941

> <Pdih>
1.335

> <Idih>
0.000

> <Tether>
0.000

$$$$
VeraChem MOL file


 17 16  0  0  0  0  0  0  0  0999 V2000     
   21.8887   18.9206   21.8256 N   0  3  0  0  0  0  0  0  0  0  0  0
   21.6349   19.9091   21.9090 H   0  0  0  0  0  0  0  0  0  0  0  0
   22.3644   18.8049   20.9259 H   0  0  0  0  0  0  0  0  0  0  0  0
   22.5816   18.7270   22.5557 H   0  0  0  0  0  0  0  0  0  0  0  0
   20.6763   18.0173   21.9449 C   0  0  0  0  0  0  0  0  0  0  0  0
   20.2362   18.1687   22.9339 H   0  0  0  0  0  0  0  0  0  0  0  0
   21.0248   16.9827   21.8850 H   0  0  0  0  0  0  0  0  0  0  0  0
   19.6092   18.2605   20.8578 C   0  0  0  0  0  0  0  0  0  0  0  0
   20.0495   18.0665   19.8707 H   0  0  0  0  0  0  0  0  0  0  0  0
   18.8050   17.5235   20.9839 H   0  0  0  0  0  0  0  0  0  0  0  0
   19.0018   19.6854   20.8787 C   0  0  0  0  0  0  0  0  0  0  0  0
   18.2674   19.7689   20.0653 H   0  0  0  0  0  0  0  0  0  0  0  0
   19.7794   20.4305   20.6623 H   0  0  0  0  0  0  0  0  0  0  0  0
   18.3096   20.0290   22.2175 C   0  0  0  0  0  0  0  0  0  0  0  0
   17.5262   19.2979   22.4557 H   0  0  0  0  0  0  0  0  0  0  0  0
   17.8384   21.0190   22.1644 H   0  0  0  0  0  0  0  0  0  0  0  0
   19.0252   20.0473   23.0492 H   0  0  0  0  0  0  0  0  0  0  0  0
  1  2  1  0  0  0  0
  1  3  1  0  0  0  0
  1  4  1  0  0  0  0
  1  5  1  0  0  0  0
  5  6  1  0  0  0  0
  5  7  1  0  0  0  0
  5  8  1  0  0  0  0
  8  9  1  0  0  0  0
  8 10  1  0  0  0  0
  8 11  1  0  0  0  0
 11 12  1  0  0  0  0
 11 13  1  0  0  0  0
 11 14  1  0  0  0  0
 14 15  1  0  0  0  0
 14 16  1  0  0  0  0
 14 17  1  0  0  0  0
M  END
> <VConfSearch Rank>
767

> <Conf_Id>
1

> <Delta U+W>
0.685

> <U+W>
-15.179

> <U>
45.697

> <W>
-60.876

> <W(PB)>
-62.586

> <W(SA)>
1.710

> <Valence>
1.263

> <Coulomb>
44.179

> <VdW>
0.255

> <VdW6>
-3.552

> <VdW12>
3.807

> <Bond>
0.125

> <Angle>
0.616

> <Pdih>
0.521

> <Idih>
0.000

> <Tether>
0.000

$$$$
VeraChem MOL file


 17 16  0  0  0  0  0  0  0  0999 V2000     
   19.5153   18.4913   23.4666 N   0  3  0  0  0  0  0  0  0  0  0  0
   18.6112   18.8615   23.7747 H   0  0  0  0  0  0  0  0  0  0  0  0
   20.1900   19.2599   23.5164 H   0  0  0  0  0  0  0  0  0  0  0  0
   19.8038   17.7945   24.1608 H   0  0  0  0  0  0  0  0  0  0  0  0
   19.4390   17.9001   22.0721 C   0  0  0  0  0  0  0  0  0  0  0  0
   18.7325   17.0662   22.1022 H   0  0  0  0  0  0  0  0  0  0  0  0
   20.4240   17.4992   21.8190 H   0  0  0  0  0  0  0  0  0  0  0  0
   18.9942   18.9077   20.9920 C   0  0  0  0  0  0  0  0  0  0  0  0
   18.9056   18.3790   20.0337 H   0  0  0  0  0  0  0  0  0  0  0  0
   17.9874   19.2737   21.2333 H   0  0  0  0  0  0  0  0  0  0  0  0
   19.9523   20.1130   20.8220 C   0  0  0  0  0  0  0  0  0  0  0  0
   19.9807   20.7060   21.7462 H   0  0  0  0  0  0  0  0  0  0  0  0
   19.5486   20.7792   20.0467 H   0  0  0  0  0  0  0  0  0  0  0  0
   21.3873   19.6949   20.4274 C   0  0  0  0  0  0  0  0  0  0  0  0
   22.0125   20.5804   20.2542 H   0  0  0  0  0  0  0  0  0  0  0  0
   21.3854   19.1008   19.5043 H   0  0  0  0  0  0  0  0  0  0  0  0
   21.8662   19.1009   21.2160 H   0  0  0  0  0  0  0  0  0  0  0  0
  1  2  1  0  0  0  0
  1  3  1  0  0  0  0
  1  4  1  0  0  0  0
  1  5  1  0  0  0  0
  5  6  1  0  0  0  0
  5  7  1  0  0  0  0
  5  8  1  0  0  0  0
  8  9  1  0  0  0  0
  8 10  1  0  0  0  0
  8 11  1  0  0  0  0
 11 12  1  0  0  0  0
 11 13  1  0  0  0  0
 11 14  1  0  0  0  0
 14 15  1  0  0  0  0
 14 16  1  0  0  0  0
 14 17  1  0  0  0  0
M  END
> <VConfSearch Rank>
768

> <Conf_Id>
43

> <Delta U+W>
0.642

> <U+W>
-15.222

> <U>
45.697

> <W>
-60.919

> <W(PB)>
-62.631

> <W(SA)>
1.712

> <Valence>
1.262

> <Coulomb>
44.179

> <VdW>
0.255

> <VdW6>
-3.552

> <VdW12>
3.807

> <Bond>
0.125

> <Angle>
0.616

> <Pdih>
0.521

> <Idih>
0.000

> <Tether>
0.000

$$$$
VeraChem MOL file


 17 16  0  0  0  0  0  0  0  0999 V2000     
   19.2306   21.5028   21.9171 N   0  3  0  0  0  0  0  0  0  0  0  0
   18.3490   21.4470   21.3981 H   0  0  0  0  0  0  0  0  0  0  0  0
   19.9214   21.9282   21.2915 H   0  0  0  0  0  0  0  0  0  0  0  0
   19.0803   22.1640   22.6859 H   0  0  0  0  0  0  0  0  0  0  0  0
   19.6800   20.1457   22.4207 C   0  0  0  0  0  0  0  0  0  0  0  0
   18.9133   19.7678   23.1026 H   0  0  0  0  0  0  0  0  0  0  0  0
   20.6042   20.2852   22.9880 H   0  0  0  0  0  0  0  0  0  0  0  0
   19.9152   19.1267   21.2908 C   0  0  0  0  0  0  0  0  0  0  0  0
   18.9894   19.0008   20.7139 H   0  0  0  0  0  0  0  0  0  0  0  0
   20.6745   19.5163   20.5997 H   0  0  0  0  0  0  0  0  0  0  0  0
   20.3711   17.7595   21.8463 C   0  0  0  0  0  0  0  0  0  0  0  0
   19.6130   17.3705   22.5407 H   0  0  0  0  0  0  0  0  0  0  0  0
   21.2961   17.8854   22.4267 H   0  0  0  0  0  0  0  0  0  0  0  0
   20.6090   16.7321   20.7185 C   0  0  0  0  0  0  0  0  0  0  0  0
   20.9319   15.7685   21.1335 H   0  0  0  0  0  0  0  0  0  0  0  0
   21.3878   17.0780   20.0264 H   0  0  0  0  0  0  0  0  0  0  0  0
   19.6914   16.5591   20.1413 H   0  0  0  0  0  0  0  0  0  0  0  0
  1  2  1  0  0  0  0
  1  3  1  0  0  0  0
  1  4  1  0  0  0  0
  1  5  1  0  0  0  0
  5  6  1  0  0  0  0
  5  7  1  0  0  0  0
  5  8  1  0  0  0  0
  8  9  1  0  0  0  0
  8 10  1  0  0  0  0
  8 11  1  0  0  0  0
 11 12  1  0  0  0  0
 11 13  1  0  0  0  0
 11 14  1  0  0  0  0
 14 15  1  0  0  0  0
 14 16  1  0  0  0  0
 14 17  1  0  0  0  0
M  END
> <VConfSearch Rank>
769

> <Conf_Id>
7

> <Delta U+W>
0.000

> <U+W>
-15.865

> <U>
44.664

> <W>
-60.529

> <W(PB)>
-62.309

> <W(SA)>
1.780

> <Valence>
0.872

> <Coulomb>
43.648

> <VdW>
0.144

> <VdW6>
-2.370

> <VdW12>
2.515

> <Bond>
0.080

> <Angle>
0.376

> <Pdih>
0.416

> <Idih>
0.000

> <Tether>
0.000

$$$$
VeraChem MOL file


 17 16  0  0  0  0  0  0  0  0999 V2000     
   18.5215   19.3077   19.6701 N   0  3  0  0  0  0  0  0  0  0  0  0
   18.3128   20.2998   19.5219 H   0  0  0  0  0  0  0  0  0  0  0  0
   17.6771   18.8777   20.0596 H   0  0  0  0  0  0  0  0  0  0  0  0
   18.6647   18.8934   18.7435 H   0  0  0  0  0  0  0  0  0  0  0  0
   19.7258   19.1090   20.5687 C   0  0  0  0  0  0  0  0  0  0  0  0
   20.5913   19.5640   20.0795 H   0  0  0  0  0  0  0  0  0  0  0  0
   19.9065   18.0345   20.6554 H   0  0  0  0  0  0  0  0  0  0  0  0
   19.5437   19.7202   21.9713 C   0  0  0  0  0  0  0  0  0  0  0  0
   19.3232   20.7913   21.8712 H   0  0  0  0  0  0  0  0  0  0  0  0
   18.6735   19.2644   22.4620 H   0  0  0  0  0  0  0  0  0  0  0  0
   20.7938   19.5452   22.8651 C   0  0  0  0  0  0  0  0  0  0  0  0
   20.6287   20.0703   23.8164 H   0  0  0  0  0  0  0  0  0  0  0  0
   21.6589   20.0299   22.3909 H   0  0  0  0  0  0  0  0  0  0  0  0
   21.1247   18.0637   23.1578 C   0  0  0  0  0  0  0  0  0  0  0  0
   20.2732   17.5540   23.6270 H   0  0  0  0  0  0  0  0  0  0  0  0
   21.9790   17.9883   23.8430 H   0  0  0  0  0  0  0  0  0  0  0  0
   21.3870   17.5202   22.2413 H   0  0  0  0  0  0  0  0  0  0  0  0
  1  2  1  0  0  0  0
  1  3  1  0  0  0  0
  1  4  1  0  0  0  0
  1  5  1  0  0  0  0
  5  6  1  0  0  0  0
  5  7  1  0  0  0  0
  5  8  1  0  0  0  0
  8  9  1  0  0  0  0
  8 10  1  0  0  0  0
  8 11  1  0  0  0  0
 11 12  1  0  0  0  0
 11 13  1  0  0  0  0
 11 14  1  0  0  0  0
 14 15  1  0  0  0  0
 14 16  1  0  0  0  0
 14 17  1  0  0  0  0
M  END
> <VConfSearch Rank>
770

> <Conf_Id>
36

> <Delta U+W>
0.275

> <U+W>
-15.590

> <U>
45.174

> <W>
-60.765

> <W(PB)>
-62.518

> <W(SA)>
1.754

> <Valence>
1.161

> <Coulomb>
43.789

> <VdW>
0.224

> <VdW6>
-2.897

> <VdW12>
3.121

> <Bond>
0.100

> <Angle>
0.500

> <Pdih>
0.561

> <Idih>
0.000

> <Tether>
0.000

$$$$
VeraChem MOL file


 17 16  0  0  0  0  0  0  0  0999 V2000     
   20.4240   17.3240   22.2743 N   0  3  0  0  0  0  0  0  0  0  0  0
   20.8074   18.0819   22.8449 H   0  0  0  0  0  0  0  0  0  0  0  0
   21.1819   16.9860   21.6737 H   0  0  0  0  0  0  0  0  0  0  0  0
   20.1849   16.5571   22.9112 H   0  0  0  0  0  0  0  0  0  0  0  0
   19.2249   17.7804   21.4656 C   0  0  0  0  0  0  0  0  0  0  0  0
   18.4266   18.0641   22.1566 H   0  0  0  0  0  0  0  0  0  0  0  0
   18.8813   16.9177   20.8884 H   0  0  0  0  0  0  0  0  0  0  0  0
   19.5184   18.9473   20.4992 C   0  0  0  0  0  0  0  0  0  0  0  0
   20.4676   18.7718   19.9758 H   0  0  0  0  0  0  0  0  0  0  0  0
   18.7413   18.9429   19.7233 H   0  0  0  0  0  0  0  0  0  0  0  0
   19.5201   20.3475   21.1640 C   0  0  0  0  0  0  0  0  0  0  0  0
   18.5428   20.5366   21.6301 H   0  0  0  0  0  0  0  0  0  0  0  0
   19.6322   21.1048   20.3754 H   0  0  0  0  0  0  0  0  0  0  0  0
   20.6386   20.5570   22.2100 C   0  0  0  0  0  0  0  0  0  0  0  0
   20.4560   19.9697   23.1174 H   0  0  0  0  0  0  0  0  0  0  0  0
   20.6843   21.6113   22.5123 H   0  0  0  0  0  0  0  0  0  0  0  0
   21.6211   20.2846   21.8029 H   0  0  0  0  0  0  0  0  0  0  0  0
  1  2  1  0  0  0  0
  1  3  1  0  0  0  0
  1  4  1  0  0  0  0
  1  5  1  0  0  0  0
  5  6  1  0  0  0  0
  5  7  1  0  0  0  0
  5  8  1  0  0  0  0
  8  9  1  0  0  0  0
  8 10  1  0  0  0  0
  8 11  1  0  0  0  0
 11 12  1  0  0  0  0
 11 13  1  0  0  0  0
 11 14  1  0  0  0  0
 14 15  1  0  0  0  0
 14 16  1  0  0  0  0
 14 17  1  0  0  0  0
M  END
> <VConfSearch Rank>
771

> <Conf_Id>
19

> <Delta U+W>
2.662

> <U+W>
-13.203

> <U>
47.423

> <W>
-60.626

> <W(PB)>
-62.328

> <W(SA)>
1.702

> <Valence>
2.414

> <Coulomb>
44.831

> <VdW>
0.178

> <VdW6>
-3.743

> <VdW12>
3.921

> <Bond>
0.138

> <Angle>
0.941

> <Pdih>
1.335

> <Idih>
0.000

> <Tether>
0.000

$$$$
VeraChem MOL file


 17 16  0  0  0  0  0  0  0  0999 V2000     
   19.8985   20.9092   21.8028 N   0  3  0  0  0  0  0  0  0  0  0  0
   20.3960   21.7225   22.1797 H   0  0  0  0  0  0  0  0  0  0  0  0
   18.9685   21.2340   21.5217 H   0  0  0  0  0  0  0  0  0  0  0  0
   20.3880   20.6241   20.9508 H   0  0  0  0  0  0  0  0  0  0  0  0
   19.8198   19.7790   22.8110 C   0  0  0  0  0  0  0  0  0  0  0  0
   19.2845   20.1649   23.6829 H   0  0  0  0  0  0  0  0  0  0  0  0
   20.8349   19.5211   23.1248 H   0  0  0  0  0  0  0  0  0  0  0  0
   19.0963   18.5174   22.2947 C   0  0  0  0  0  0  0  0  0  0  0  0
   18.7617   17.9422   23.1681 H   0  0  0  0  0  0  0  0  0  0  0  0
   18.1839   18.8024   21.7543 H   0  0  0  0  0  0  0  0  0  0  0  0
   19.9734   17.5868   21.4186 C   0  0  0  0  0  0  0  0  0  0  0  0
   19.3976   16.6775   21.1960 H   0  0  0  0  0  0  0  0  0  0  0  0
   20.8509   17.2578   21.9928 H   0  0  0  0  0  0  0  0  0  0  0  0
   20.4367   18.2149   20.0845 C   0  0  0  0  0  0  0  0  0  0  0  0
   19.5905   18.6395   19.5287 H   0  0  0  0  0  0  0  0  0  0  0  0
   20.9046   17.4530   19.4475 H   0  0  0  0  0  0  0  0  0  0  0  0
   21.1834   19.0007   20.2476 H   0  0  0  0  0  0  0  0  0  0  0  0
  1  2  1  0  0  0  0
  1  3  1  0  0  0  0
  1  4  1  0  0  0  0
  1  5  1  0  0  0  0
  5  6  1  0  0  0  0
  5  7  1  0  0  0  0
  5  8  1  0  0  0  0
  8  9  1  0  0  0  0
  8 10  1  0  0  0  0
  8 11  1  0  0  0  0
 11 12  1  0  0  0  0
 11 13  1  0  0  0  0
 11 14  1  0  0  0  0
 14 15  1  0  0  0  0
 14 16  1  0  0  0  0
 14 17  1  0  0  0  0
M  END
> <VConfSearch Rank>
772

> <Conf_Id>
44

> <Delta U+W>
2.712

> <U+W>
-13.153

> <U>
47.423

> <W>
-60.576

> <W(PB)>
-62.262

> <W(SA)>
1.687

> <Valence>
2.414

> <Coulomb>
44.831

> <VdW>
0.178

> <VdW6>
-3.743

> <VdW12>
3.922

> <Bond>
0.138

> <Angle>
0.941

> <Pdih>
1.335

> <Idih>
0.000

> <Tether>
0.000

$$$$
VeraChem MOL file


 17 16  0  0  0  0  0  0  0  0999 V2000     
   20.0696   20.9314   22.1831 N   0  3  0  0  0  0  0  0  0  0  0  0
   19.4508   20.4595   22.8486 H   0  0  0  0  0  0  0  0  0  0  0  0
   19.4853   21.5490   21.6117 H   0  0  0  0  0  0  0  0  0  0  0  0
   20.6934   21.5336   22.7299 H   0  0  0  0  0  0  0  0  0  0  0  0
   20.8431   19.9402   21.3351 C   0  0  0  0  0  0  0  0  0  0  0  0
   21.4645   19.3359   22.0011 H   0  0  0  0  0  0  0  0  0  0  0  0
   21.5065   20.5100   20.6787 H   0  0  0  0  0  0  0  0  0  0  0  0
   19.9475   19.0191   20.4811 C   0  0  0  0  0  0  0  0  0  0  0  0
   19.3573   19.6324   19.7875 H   0  0  0  0  0  0  0  0  0  0  0  0
   20.5904   18.3846   19.8567 H   0  0  0  0  0  0  0  0  0  0  0  0
   18.9961   18.1206   21.3100 C   0  0  0  0  0  0  0  0  0  0  0  0
   18.3917   17.5145   20.6205 H   0  0  0  0  0  0  0  0  0  0  0  0
   18.2843   18.7411   21.8713 H   0  0  0  0  0  0  0  0  0  0  0  0
   19.7450   17.1795   22.2812 C   0  0  0  0  0  0  0  0  0  0  0  0
   20.4629   16.5471   21.7429 H   0  0  0  0  0  0  0  0  0  0  0  0
   19.0380   16.5178   22.7981 H   0  0  0  0  0  0  0  0  0  0  0  0
   20.2922   17.7425   23.0478 H   0  0  0  0  0  0  0  0  0  0  0  0
  1  2  1  0  0  0  0
  1  3  1  0  0  0  0
  1  4  1  0  0  0  0
  1  5  1  0  0  0  0
  5  6  1  0  0  0  0
  5  7  1  0  0  0  0
  5  8  1  0  0  0  0
  8  9  1  0  0  0  0
  8 10  1  0  0  0  0
  8 11  1  0  0  0  0
 11 12  1  0  0  0  0
 11 13  1  0  0  0  0
 11 14  1  0  0  0  0
 14 15  1  0  0  0  0
 14 16  1  0  0  0  0
 14 17  1  0  0  0  0
M  END
> <VConfSearch Rank>
773

> <Conf_Id>
1

> <Delta U+W>
0.685

> <U+W>
-15.179

> <U>
45.697

> <W>
-60.876

> <W(PB)>
-62.586

> <W(SA)>
1.710

> <Valence>
1.263

> <Coulomb>
44.179

> <VdW>
0.255

> <VdW6>
-3.552

> <VdW12>
3.807

> <Bond>
0.125

> <Angle>
0.616

> <Pdih>
0.521

> <Idih>
0.000

> <Tether>
0.000

$$$$
VeraChem MOL file


 17 16  0  0  0  0  0  0  0  0999 V2000     
   18.8189   19.6452   23.1296 N   0  3  0  0  0  0  0  0  0  0  0  0
   19.3677   20.2036   23.7901 H   0  0  0  0  0  0  0  0  0  0  0  0
   19.0486   18.6621   23.3003 H   0  0  0  0  0  0  0  0  0  0  0  0
   17.8331   19.7703   23.3814 H   0  0  0  0  0  0  0  0  0  0  0  0
   19.0884   20.0436   21.6913 C   0  0  0  0  0  0  0  0  0  0  0  0
   18.7868   21.0878   21.5729 H   0  0  0  0  0  0  0  0  0  0  0  0
   18.4526   19.4330   21.0451 H   0  0  0  0  0  0  0  0  0  0  0  0
   20.5636   19.8869   21.2678 C   0  0  0  0  0  0  0  0  0  0  0  0
   20.6751   20.2571   20.2400 H   0  0  0  0  0  0  0  0  0  0  0  0
   21.1895   20.5348   21.8956 H   0  0  0  0  0  0  0  0  0  0  0  0
   21.0901   18.4321   21.3451 C   0  0  0  0  0  0  0  0  0  0  0  0
   21.0709   18.0783   22.3848 H   0  0  0  0  0  0  0  0  0  0  0  0
   22.1462   18.4215   21.0408 H   0  0  0  0  0  0  0  0  0  0  0  0
   20.2990   17.4534   20.4473 C   0  0  0  0  0  0  0  0  0  0  0  0
   20.7460   16.4514   20.4828 H   0  0  0  0  0  0  0  0  0  0  0  0
   20.3046   17.7854   19.4010 H   0  0  0  0  0  0  0  0  0  0  0  0
   19.2549   17.3615   20.7719 H   0  0  0  0  0  0  0  0  0  0  0  0
  1  2  1  0  0  0  0
  1  3  1  0  0  0  0
  1  4  1  0  0  0  0
  1  5  1  0  0  0  0
  5  6  1  0  0  0  0
  5  7  1  0  0  0  0
  5  8  1  0  0  0  0
  8  9  1  0  0  0  0
  8 10  1  0  0  0  0
  8 11  1  0  0  0  0
 11 12  1  0  0  0  0
 11 13  1  0  0  0  0
 11 14  1  0  0  0  0
 14 15  1  0  0  0  0
 14 16  1  0  0  0  0
 14 17  1  0  0  0  0
M  END
> <VConfSearch Rank>
774

> <Conf_Id>
43

> <Delta U+W>
0.642

> <U+W>
-15.222

> <U>
45.697

> <W>
-60.919

> <W(PB)>
-62.631

> <W(SA)>
1.712

> <Valence>
1.262

> <Coulomb>
44.179

> <VdW>
0.255

> <VdW6>
-3.552

> <VdW12>
3.807

> <Bond>
0.125

> <Angle>
0.616

> <Pdih>
0.521

> <Idih>
0.000

> <Tether>
0.000

$$$$
VeraChem MOL file


 17 16  0  0  0  0  0  0  0  0999 V2000     
   22.4618   18.8710   21.0783 N   0  3  0  0  0  0  0  0  0  0  0  0
   22.7691   18.5681   22.0075 H   0  0  0  0  0  0  0  0  0  0  0  0
   22.6591   19.8739   21.0084 H   0  0  0  0  0  0  0  0  0  0  0  0
   23.0684   18.4016   20.3981 H   0  0  0  0  0  0  0  0  0  0  0  0
   20.9979   18.5619   20.8354 C   0  0  0  0  0  0  0  0  0  0  0  0
   20.8675   17.4779   20.8944 H   0  0  0  0  0  0  0  0  0  0  0  0
   20.7493   18.8820   19.8199 H   0  0  0  0  0  0  0  0  0  0  0  0
   20.0574   19.2516   21.8403 C   0  0  0  0  0  0  0  0  0  0  0  0
   20.3201   18.9397   22.8600 H   0  0  0  0  0  0  0  0  0  0  0  0
   20.2021   20.3390   21.7891 H   0  0  0  0  0  0  0  0  0  0  0  0
   18.5777   18.9107   21.5579 C   0  0  0  0  0  0  0  0  0  0  0  0
   18.4328   17.8221   21.6057 H   0  0  0  0  0  0  0  0  0  0  0  0
   18.3150   19.2198   20.5362 H   0  0  0  0  0  0  0  0  0  0  0  0
   17.6281   19.5991   22.5621 C   0  0  0  0  0  0  0  0  0  0  0  0
   16.5827   19.3445   22.3445 H   0  0  0  0  0  0  0  0  0  0  0  0
   17.7253   20.6916   22.5130 H   0  0  0  0  0  0  0  0  0  0  0  0
   17.8441   19.2829   23.5910 H   0  0  0  0  0  0  0  0  0  0  0  0
  1  2  1  0  0  0  0
  1  3  1  0  0  0  0
  1  4  1  0  0  0  0
  1  5  1  0  0  0  0
  5  6  1  0  0  0  0
  5  7  1  0  0  0  0
  5  8  1  0  0  0  0
  8  9  1  0  0  0  0
  8 10  1  0  0  0  0
  8 11  1  0  0  0  0
 11 12  1  0  0  0  0
 11 13  1  0  0  0  0
 11 14  1  0  0  0  0
 14 15  1  0  0  0  0
 14 16  1  0  0  0  0
 14 17  1  0  0  0  0
M  END
> <VConfSearch Rank>
775

> <Conf_Id>
7

> <Delta U+W>
0.000

> <U+W>
-15.865

> <U>
44.664

> <W>
-60.529

> <W(PB)>
-62.309

> <W(SA)>
1.780

> <Valence>
0.872

> <Coulomb>
43.648

> <VdW>
0.144

> <VdW6>
-2.370

> <VdW12>
2.515

> <Bond>
0.080

> <Angle>
0.376

> <Pdih>
0.416

> <Idih>
0.000

> <Tether>
0.000

$$$$
VeraChem MOL file


 17 16  0  0  0  0  0  0  0  0999 V2000     
   19.7939   21.3588   20.7897 N   0  3  0  0  0  0  0  0  0  0  0  0
   18.8515   21.5176   20.4206 H   0  0  0  0  0  0  0  0  0  0  0  0
   20.4178   21.2495   19.9844 H   0  0  0  0  0  0  0  0  0  0  0  0
   20.0744   22.2215   21.2670 H   0  0  0  0  0  0  0  0  0  0  0  0
   19.8466   20.1597   21.7154 C   0  0  0  0  0  0  0  0  0  0  0  0
   19.1839   20.3572   22.5623 H   0  0  0  0  0  0  0  0  0  0  0  0
   20.8686   20.0716   22.0929 H   0  0  0  0  0  0  0  0  0  0  0  0
   19.4309   18.8445   21.0288 C   0  0  0  0  0  0  0  0  0  0  0  0
   18.4186   18.9572   20.6184 H   0  0  0  0  0  0  0  0  0  0  0  0
   20.0954   18.6470   20.1772 H   0  0  0  0  0  0  0  0  0  0  0  0
   19.4510   17.6358   21.9936 C   0  0  0  0  0  0  0  0  0  0  0  0
   19.0693   16.7509   21.4651 H   0  0  0  0  0  0  0  0  0  0  0  0
   18.7610   17.8177   22.8296 H   0  0  0  0  0  0  0  0  0  0  0  0
   20.8621   17.3249   22.5433 C   0  0  0  0  0  0  0  0  0  0  0  0
   21.5734   17.1449   21.7267 H   0  0  0  0  0  0  0  0  0  0  0  0
   20.8405   16.4258   23.1727 H   0  0  0  0  0  0  0  0  0  0  0  0
   21.2465   18.1491   23.1573 H   0  0  0  0  0  0  0  0  0  0  0  0
  1  2  1  0  0  0  0
  1  3  1  0  0  0  0
  1  4  1  0  0  0  0
  1  5  1  0  0  0  0
  5  6  1  0  0  0  0
  5  7  1  0  0  0  0
  5  8  1  0  0  0  0
  8  9  1  0  0  0  0
  8 10  1  0  0  0  0
  8 11  1  0  0  0  0
 11 12  1  0  0  0  0
 11 13  1  0  0  0  0
 11 14  1  0  0  0  0
 14 15  1  0  0  0  0
 14 16  1  0  0  0  0
 14 17  1  0  0  0  0
M  END
> <VConfSearch Rank>
776

> <Conf_Id>
36

> <Delta U+W>
0.275

> <U+W>
-15.590

> <U>
45.174

> <W>
-60.765

> <W(PB)>
-62.518

> <W(SA)>
1.754

> <Valence>
1.161

> <Coulomb>
43.789

> <VdW>
0.224

> <VdW6>
-2.897

> <VdW12>
3.121

> <Bond>
0.100

> <Angle>
0.500

> <Pdih>
0.561

> <Idih>
0.000

> <Tether>
0.000

$$$$
VeraChem MOL file


 17 16  0  0  0  0  0  0  0  0999 V2000     
   21.1719   19.8756   20.5317 N   0  3  0  0  0  0  0  0  0  0  0  0
   21.1612   20.2567   21.4811 H   0  0  0  0  0  0  0  0  0  0  0  0
   20.6284   20.5150   19.9441 H   0  0  0  0  0  0  0  0  0  0  0  0
   22.1408   19.9180   20.1997 H   0  0  0  0  0  0  0  0  0  0  0  0
   20.6213   18.4632   20.4865 C   0  0  0  0  0  0  0  0  0  0  0  0
   21.2774   17.8149   21.0735 H   0  0  0  0  0  0  0  0  0  0  0  0
   20.6668   18.1354   19.4444 H   0  0  0  0  0  0  0  0  0  0  0  0
   19.1691   18.3320   20.9919 C   0  0  0  0  0  0  0  0  0  0  0  0
   18.5552   19.1471   20.5864 H   0  0  0  0  0  0  0  0  0  0  0  0
   18.7521   17.4053   20.5756 H   0  0  0  0  0  0  0  0  0  0  0  0
   19.0286   18.2671   22.5342 C   0  0  0  0  0  0  0  0  0  0  0  0
   19.5966   17.4093   22.9213 H   0  0  0  0  0  0  0  0  0  0  0  0
   17.9754   18.0688   22.7777 H   0  0  0  0  0  0  0  0  0  0  0  0
   19.4705   19.5520   23.2708 C   0  0  0  0  0  0  0  0  0  0  0  0
   20.5582   19.6835   23.2332 H   0  0  0  0  0  0  0  0  0  0  0  0
   19.1889   19.4991   24.3305 H   0  0  0  0  0  0  0  0  0  0  0  0
   18.9907   20.4418   22.8429 H   0  0  0  0  0  0  0  0  0  0  0  0
  1  2  1  0  0  0  0
  1  3  1  0  0  0  0
  1  4  1  0  0  0  0
  1  5  1  0  0  0  0
  5  6  1  0  0  0  0
  5  7  1  0  0  0  0
  5  8  1  0  0  0  0
  8  9  1  0  0  0  0
  8 10  1  0  0  0  0
  8 11  1  0  0  0  0
 11 12  1  0  0  0  0
 11 13  1  0  0  0  0
 11 14  1  0  0  0  0
 14 15  1  0  0  0  0
 14 16  1  0  0  0  0
 14 17  1  0  0  0  0
M  END
> <VConfSearch Rank>
777

> <Conf_Id>
19

> <Delta U+W>
2.662

> <U+W>
-13.203

> <U>
47.423

> <W>
-60.626

> <W(PB)>
-62.328

> <W(SA)>
1.702

> <Valence>
2.414

> <Coulomb>
44.831

> <VdW>
0.178

> <VdW6>
-3.743

> <VdW12>
3.921

> <Bond>
0.138

> <Angle>
0.941

> <Pdih>
1.335

> <Idih>
0.000

> <Tether>
0.000

$$$$
VeraChem MOL file


 17 16  0  0  0  0  0  0  0  0999 V2000     
   19.9925   17.4885   22.5843 N   0  3  0  0  0  0  0  0  0  0  0  0
   19.9781   17.0607   23.5157 H   0  0  0  0  0  0  0  0  0  0  0  0
   20.3191   16.7692   21.9321 H   0  0  0  0  0  0  0  0  0  0  0  0
   19.0235   17.7028   22.3354 H   0  0  0  0  0  0  0  0  0  0  0  0
   20.8698   18.7251   22.5450 C   0  0  0  0  0  0  0  0  0  0  0  0
   21.8800   18.4093   22.8194 H   0  0  0  0  0  0  0  0  0  0  0  0
   20.5168   19.4266   23.3056 H   0  0  0  0  0  0  0  0  0  0  0  0
   20.9179   19.4253   21.1706 C   0  0  0  0  0  0  0  0  0  0  0  0
   21.8292   20.0371   21.1381 H   0  0  0  0  0  0  0  0  0  0  0  0
   21.0274   18.6792   20.3725 H   0  0  0  0  0  0  0  0  0  0  0  0
   19.7107   20.3530   20.8793 C   0  0  0  0  0  0  0  0  0  0  0  0
   19.8975   20.8766   19.9312 H   0  0  0  0  0  0  0  0  0  0  0  0
   19.6499   21.1337   21.6506 H   0  0  0  0  0  0  0  0  0  0  0  0
   18.3526   19.6219   20.7785 C   0  0  0  0  0  0  0  0  0  0  0  0
   18.4072   18.7737   20.0837 H   0  0  0  0  0  0  0  0  0  0  0  0
   17.5786   20.3065   20.4079 H   0  0  0  0  0  0  0  0  0  0  0  0
   18.0182   19.2576   21.7568 H   0  0  0  0  0  0  0  0  0  0  0  0
  1  2  1  0  0  0  0
  1  3  1  0  0  0  0
  1  4  1  0  0  0  0
  1  5  1  0  0  0  0
  5  6  1  0  0  0  0
  5  7  1  0  0  0  0
  5  8  1  0  0  0  0
  8  9  1  0  0  0  0
  8 10  1  0  0  0  0
  8 11  1  0  0  0  0
 11 12  1  0  0  0  0
 11 13  1  0  0  0  0
 11 14  1  0  0  0  0
 14 15  1  0  0  0  0
 14 16  1  0  0  0  0
 14 17  1  0  0  0  0
M  END
> <VConfSearch Rank>
778

> <Conf_Id>
44

> <Delta U+W>
2.712

> <U+W>
-13.153

> <U>
47.423

> <W>
-60.576

> <W(PB)>
-62.262

> <W(SA)>
1.687

> <Valence>
2.414

> <Coulomb>
44.831

> <VdW>
0.178

> <VdW6>
-3.743

> <VdW12>
3.922

> <Bond>
0.138

> <Angle>
0.941

> <Pdih>
1.335

> <Idih>
0.000

> <Tether>
0.000

$$$$
VeraChem MOL file


 17 16  0  0  0  0  0  0  0  0999 V2000     
   20.5183   18.4868   19.7876 N   0  3  0  0  0  0  0  0  0  0  0  0
   19.6112   18.0416   19.9530 H   0  0  0  0  0  0  0  0  0  0  0  0
   21.2297   17.7513   19.8347 H   0  0  0  0  0  0  0  0  0  0  0  0
   20.5106   18.8320   18.8225 H   0  0  0  0  0  0  0  0  0  0  0  0
   20.7879   19.5993   20.7824 C   0  0  0  0  0  0  0  0  0  0  0  0
   20.0130   20.3603   20.6589 H   0  0  0  0  0  0  0  0  0  0  0  0
   21.7494   20.0513   20.5239 H   0  0  0  0  0  0  0  0  0  0  0  0
   20.8238   19.1268   22.2505 C   0  0  0  0  0  0  0  0  0  0  0  0
   21.6315   18.3931   22.3732 H   0  0  0  0  0  0  0  0  0  0  0  0
   21.0874   19.9811   22.8881 H   0  0  0  0  0  0  0  0  0  0  0  0
   19.4915   18.5125   22.7474 C   0  0  0  0  0  0  0  0  0  0  0  0
   19.6166   18.1937   23.7917 H   0  0  0  0  0  0  0  0  0  0  0  0
   19.2601   17.6018   22.1783 H   0  0  0  0  0  0  0  0  0  0  0  0
   18.3020   19.4962   22.6617 C   0  0  0  0  0  0  0  0  0  0  0  0
   18.5090   20.4156   23.2247 H   0  0  0  0  0  0  0  0  0  0  0  0
   17.3959   19.0424   23.0837 H   0  0  0  0  0  0  0  0  0  0  0  0
   18.0806   19.7729   21.6233 H   0  0  0  0  0  0  0  0  0  0  0  0
  1  2  1  0  0  0  0
  1  3  1  0  0  0  0
  1  4  1  0  0  0  0
  1  5  1  0  0  0  0
  5  6  1  0  0  0  0
  5  7  1  0  0  0  0
  5  8  1  0  0  0  0
  8  9  1  0  0  0  0
  8 10  1  0  0  0  0
  8 11  1  0  0  0  0
 11 12  1  0  0  0  0
 11 13  1  0  0  0  0
 11 14  1  0  0  0  0
 14 15  1  0  0  0  0
 14 16  1  0  0  0  0
 14 17  1  0  0  0  0
M  END
> <VConfSearch Rank>
779

> <Conf_Id>
1

> <Delta U+W>
0.685

> <U+W>
-15.179

> <U>
45.697

> <W>
-60.876

> <W(PB)>
-62.586

> <W(SA)>
1.710

> <Valence>
1.263

> <Coulomb>
44.179

> <VdW>
0.255

> <VdW6>
-3.552

> <VdW12>
3.807

> <Bond>
0.125

> <Angle>
0.616

> <Pdih>
0.521

> <Idih>
0.000

> <Tether>
0.000

$$$$
VeraChem MOL file


 17 16  0  0  0  0  0  0  0  0999 V2000     
   18.0277   19.1607   22.1702 N   0  3  0  0  0  0  0  0  0  0  0  0
   17.7975   20.1039   22.4971 H   0  0  0  0  0  0  0  0  0  0  0  0
   18.5378   18.6946   22.9258 H   0  0  0  0  0  0  0  0  0  0  0  0
   17.1403   18.6607   22.0554 H   0  0  0  0  0  0  0  0  0  0  0  0
   18.8302   19.1880   20.8837 C   0  0  0  0  0  0  0  0  0  0  0  0
   18.2131   19.6631   20.1163 H   0  0  0  0  0  0  0  0  0  0  0  0
   19.0149   18.1552   20.5769 H   0  0  0  0  0  0  0  0  0  0  0  0
   20.1702   19.9433   21.0016 C   0  0  0  0  0  0  0  0  0  0  0  0
   20.6482   19.9668   20.0133 H   0  0  0  0  0  0  0  0  0  0  0  0
   19.9719   20.9893   21.2701 H   0  0  0  0  0  0  0  0  0  0  0  0
   21.1529   19.3265   22.0280 C   0  0  0  0  0  0  0  0  0  0  0  0
   20.7257   19.3795   23.0386 H   0  0  0  0  0  0  0  0  0  0  0  0
   22.0670   19.9361   22.0530 H   0  0  0  0  0  0  0  0  0  0  0  0
   21.5331   17.8646   21.6994 C   0  0  0  0  0  0  0  0  0  0  0  0
   22.2789   17.4910   22.4130 H   0  0  0  0  0  0  0  0  0  0  0  0
   21.9641   17.7856   20.6929 H   0  0  0  0  0  0  0  0  0  0  0  0
   20.6623   17.1991   21.7522 H   0  0  0  0  0  0  0  0  0  0  0  0
  1  2  1  0  0  0  0
  1  3  1  0  0  0  0
  1  4  1  0  0  0  0
  1  5  1  0  0  0  0
  5  6  1  0  0  0  0
  5  7  1  0  0  0  0
  5  8  1  0  0  0  0
  8  9  1  0  0  0  0
  8 10  1  0  0  0  0
  8 11  1  0  0  0  0
 11 12  1  0  0  0  0
 11 13  1  0  0  0  0
 11 14  1  0  0  0  0
 14 15  1  0  0  0  0
 14 16  1  0  0  0  0
 14 17  1  0  0  0  0
M  END
> <VConfSearch Rank>
780

> <Conf_Id>
43

> <Delta U+W>
0.642

> <U+W>
-15.222

> <U>
45.697

> <W>
-60.919

> <W(PB)>
-62.631

> <W(SA)>
1.712

> <Valence>
1.262

> <Coulomb>
44.179

> <VdW>
0.255

> <VdW6>
-3.552

> <VdW12>
3.807

> <Bond>
0.125

> <Angle>
0.616

> <Pdih>
0.521

> <Idih>
0.000

> <Tether>
0.000

$$$$
VeraChem MOL file


 17 16  0  0  0  0  0  0  0  0999 V2000     
   20.0770   21.5897   21.1789 N   0  3  0  0  0  0  0  0  0  0  0  0
   21.0644   21.6320   20.9088 H   0  0  0  0  0  0  0  0  0  0  0  0
   20.0195   21.8908   22.1566 H   0  0  0  0  0  0  0  0  0  0  0  0
   19.5869   22.2970   20.6218 H   0  0  0  0  0  0  0  0  0  0  0  0
   19.4911   20.2067   20.9752 C   0  0  0  0  0  0  0  0  0  0  0  0
   19.5577   19.9653   19.9109 H   0  0  0  0  0  0  0  0  0  0  0  0
   18.4341   20.2436   21.2526 H   0  0  0  0  0  0  0  0  0  0  0  0
   20.2043   19.1184   21.7983 C   0  0  0  0  0  0  0  0  0  0  0  0
   21.2685   19.0948   21.5283 H   0  0  0  0  0  0  0  0  0  0  0  0
   20.1486   19.3721   22.8653 H   0  0  0  0  0  0  0  0  0  0  0  0
   19.5774   17.7268   21.5618 C   0  0  0  0  0  0  0  0  0  0  0  0
   19.6299   17.4737   20.4934 H   0  0  0  0  0  0  0  0  0  0  0  0
   18.5114   17.7507   21.8289 H   0  0  0  0  0  0  0  0  0  0  0  0
   20.2878   16.6300   22.3842 C   0  0  0  0  0  0  0  0  0  0  0  0
   19.8280   15.6499   22.2023 H   0  0  0  0  0  0  0  0  0  0  0  0
   20.2222   16.8376   23.4602 H   0  0  0  0  0  0  0  0  0  0  0  0
   21.3495   16.5586   22.1142 H   0  0  0  0  0  0  0  0  0  0  0  0
  1  2  1  0  0  0  0
  1  3  1  0  0  0  0
  1  4  1  0  0  0  0
  1  5  1  0  0  0  0
  5  6  1  0  0  0  0
  5  7  1  0  0  0  0
  5  8  1  0  0  0  0
  8  9  1  0  0  0  0
  8 10  1  0  0  0  0
  8 11  1  0  0  0  0
 11 12  1  0  0  0  0
 11 13  1  0  0  0  0
 11 14  1  0  0  0  0
 14 15  1  0  0  0  0
 14 16  1  0  0  0  0
 14 17  1  0  0  0  0
M  END
> <VConfSearch Rank>
781

> <Conf_Id>
7

> <Delta U+W>
0.000

> <U+W>
-15.865

> <U>
44.664

> <W>
-60.529

> <W(PB)>
-62.309

> <W(SA)>
1.780

> <Valence>
0.872

> <Coulomb>
43.648

> <VdW>
0.144

> <VdW6>
-2.370

> <VdW12>
2.515

> <Bond>
0.080

> <Angle>
0.376

> <Pdih>
0.416

> <Idih>
0.000

> <Tether>
0.000

$$$$
VeraChem MOL file


 17 16  0  0  0  0  0  0  0  0999 V2000     
   20.4260   18.2517   19.4141 N   0  3  0  0  0  0  0  0  0  0  0  0
   21.1732   17.5548   19.4900 H   0  0  0  0  0  0  0  0  0  0  0  0
   20.8467   19.1032   19.0300 H   0  0  0  0  0  0  0  0  0  0  0  0
   19.7666   17.9035   18.7107 H   0  0  0  0  0  0  0  0  0  0  0  0
   19.7480   18.5045   20.7460 C   0  0  0  0  0  0  0  0  0  0  0  0
   19.2980   17.5656   21.0797 H   0  0  0  0  0  0  0  0  0  0  0  0
   18.9467   19.2298   20.5826 H   0  0  0  0  0  0  0  0  0  0  0  0
   20.7118   19.0295   21.8274 C   0  0  0  0  0  0  0  0  0  0  0  0
   21.5340   18.3129   21.9552 H   0  0  0  0  0  0  0  0  0  0  0  0
   21.1650   19.9716   21.4914 H   0  0  0  0  0  0  0  0  0  0  0  0
   20.0164   19.2461   23.1918 C   0  0  0  0  0  0  0  0  0  0  0  0
   20.7711   19.5416   23.9341 H   0  0  0  0  0  0  0  0  0  0  0  0
   19.5909   18.2963   23.5454 H   0  0  0  0  0  0  0  0  0  0  0  0
   18.9096   20.3242   23.1415 C   0  0  0  0  0  0  0  0  0  0  0  0
   19.3079   21.2830   22.7849 H   0  0  0  0  0  0  0  0  0  0  0  0
   18.4866   20.4884   24.1410 H   0  0  0  0  0  0  0  0  0  0  0  0
   18.0868   20.0271   22.4790 H   0  0  0  0  0  0  0  0  0  0  0  0
  1  2  1  0  0  0  0
  1  3  1  0  0  0  0
  1  4  1  0  0  0  0
  1  5  1  0  0  0  0
  5  6  1  0  0  0  0
  5  7  1  0  0  0  0
  5  8  1  0  0  0  0
  8  9  1  0  0  0  0
  8 10  1  0  0  0  0
  8 11  1  0  0  0  0
 11 12  1  0  0  0  0
 11 13  1  0  0  0  0
 11 14  1  0  0  0  0
 14 15  1  0  0  0  0
 14 16  1  0  0  0  0
 14 17  1  0  0  0  0
M  END
> <VConfSearch Rank>
782

> <Conf_Id>
36

> <Delta U+W>
0.275

> <U+W>
-15.590

> <U>
45.174

> <W>
-60.765

> <W(PB)>
-62.518

> <W(SA)>
1.754

> <Valence>
1.161

> <Coulomb>
43.789

> <VdW>
0.224

> <VdW6>
-2.897

> <VdW12>
3.121

> <Bond>
0.100

> <Angle>
0.500

> <Pdih>
0.561

> <Idih>
0.000

> <Tether>
0.000

$$$$
VeraChem MOL file


 17 16  0  0  0  0  0  0  0  0999 V2000     
   20.9316   17.9172   22.7519 N   0  3  0  0  0  0  0  0  0  0  0  0
   21.5333   18.5580   22.2284 H   0  0  0  0  0  0  0  0  0  0  0  0
   21.0000   17.0013   22.2981 H   0  0  0  0  0  0  0  0  0  0  0  0
   21.3384   17.8165   23.6874 H   0  0  0  0  0  0  0  0  0  0  0  0
   19.4991   18.4118   22.8098 C   0  0  0  0  0  0  0  0  0  0  0  0
   19.4787   19.3552   23.3621 H   0  0  0  0  0  0  0  0  0  0  0  0
   18.9288   17.6739   23.3805 H   0  0  0  0  0  0  0  0  0  0  0  0
   18.8368   18.6006   21.4288 C   0  0  0  0  0  0  0  0  0  0  0  0
   19.0703   17.7459   20.7802 H   0  0  0  0  0  0  0  0  0  0  0  0
   17.7485   18.5801   21.5738 H   0  0  0  0  0  0  0  0  0  0  0  0
   19.1980   19.9305   20.7191 C   0  0  0  0  0  0  0  0  0  0  0  0
   18.9014   20.7792   21.3513 H   0  0  0  0  0  0  0  0  0  0  0  0
   18.5953   20.0088   19.8033 H   0  0  0  0  0  0  0  0  0  0  0  0
   20.6899   20.0676   20.3395 C   0  0  0  0  0  0  0  0  0  0  0  0
   21.3197   20.2048   21.2262 H   0  0  0  0  0  0  0  0  0  0  0  0
   20.8403   20.9460   19.6985 H   0  0  0  0  0  0  0  0  0  0  0  0
   21.0430   19.1875   19.7864 H   0  0  0  0  0  0  0  0  0  0  0  0
  1  2  1  0  0  0  0
  1  3  1  0  0  0  0
  1  4  1  0  0  0  0
  1  5  1  0  0  0  0
  5  6  1  0  0  0  0
  5  7  1  0  0  0  0
  5  8  1  0  0  0  0
  8  9  1  0  0  0  0
  8 10  1  0  0  0  0
  8 11  1  0  0  0  0
 11 12  1  0  0  0  0
 11 13  1  0  0  0  0
 11 14  1  0  0  0  0
 14 15  1  0  0  0  0
 14 16  1  0  0  0  0
 14 17  1  0  0  0  0
M  END
> <VConfSearch Rank>
783

> <Conf_Id>
19

> <Delta U+W>
2.662

> <U+W>
-13.203

> <U>
47.423

> <W>
-60.626

> <W(PB)>
-62.328

> <W(SA)>
1.702

> <Valence>
2.414

> <Coulomb>
44.831

> <VdW>
0.178

> <VdW6>
-3.743

> <VdW12>
3.921

> <Bond>
0.138

> <Angle>
0.941

> <Pdih>
1.335

> <Idih>
0.000

> <Tether>
0.000

$$$$
VeraChem MOL file


 17 16  0  0  0  0  0  0  0  0999 V2000     
   20.3457   19.4086   19.8345 N   0  3  0  0  0  0  0  0  0  0  0  0
   21.0577   19.7764   19.1952 H   0  0  0  0  0  0  0  0  0  0  0  0
   19.4883   19.2886   19.2870 H   0  0  0  0  0  0  0  0  0  0  0  0
   20.6517   18.4759   20.1229 H   0  0  0  0  0  0  0  0  0  0  0  0
   20.1306   20.3229   21.0253 C   0  0  0  0  0  0  0  0  0  0  0  0
   19.8058   21.2898   20.6315 H   0  0  0  0  0  0  0  0  0  0  0  0
   21.0894   20.4685   21.5301 H   0  0  0  0  0  0  0  0  0  0  0  0
   19.0809   19.8130   22.0351 C   0  0  0  0  0  0  0  0  0  0  0  0
   18.7297   20.6753   22.6173 H   0  0  0  0  0  0  0  0  0  0  0  0
   18.2004   19.4314   21.5012 H   0  0  0  0  0  0  0  0  0  0  0  0
   19.6104   18.7495   23.0308 C   0  0  0  0  0  0  0  0  0  0  0  0
   18.8191   18.5373   23.7635 H   0  0  0  0  0  0  0  0  0  0  0  0
   20.4510   19.1657   23.6036 H   0  0  0  0  0  0  0  0  0  0  0  0
   20.0431   17.4189   22.3744 C   0  0  0  0  0  0  0  0  0  0  0  0
   19.2569   17.0241   21.7177 H   0  0  0  0  0  0  0  0  0  0  0  0
   20.2445   16.6626   23.1443 H   0  0  0  0  0  0  0  0  0  0  0  0
   20.9641   17.5383   21.7920 H   0  0  0  0  0  0  0  0  0  0  0  0
  1  2  1  0  0  0  0
  1  3  1  0  0  0  0
  1  4  1  0  0  0  0
  1  5  1  0  0  0  0
  5  6  1  0  0  0  0
  5  7  1  0  0  0  0
  5  8  1  0  0  0  0
  8  9  1  0  0  0  0
  8 10  1  0  0  0  0
  8 11  1  0  0  0  0
 11 12  1  0  0  0  0
 11 13  1  0  0  0  0
 11 14  1  0  0  0  0
 14 15  1  0  0  0  0
 14 16  1  0  0  0  0
 14 17  1  0  0  0  0
M  END
> <VConfSearch Rank>
784

> <Conf_Id>
44

> <Delta U+W>
2.712

> <U+W>
-13.153

> <U>
47.423

> <W>
-60.576

> <W(PB)>
-62.262

> <W(SA)>
1.687

> <Valence>
2.414

> <Coulomb>
44.831

> <VdW>
0.178

> <VdW6>
-3.743

> <VdW12>
3.922

> <Bond>
0.138

> <Angle>
0.941

> <Pdih>
1.335

> <Idih>
0.000

> <Tether>
0.000

$$$$
VeraChem MOL file


 17 16  0  0  0  0  0  0  0  0999 V2000     
   20.4726   20.9454   21.6615 N   0  3  0  0  0  0  0  0  0  0  0  0
   20.5610   20.5750   22.6121 H   0  0  0  0  0  0  0  0  0  0  0  0
   19.6628   21.5727   21.6550 H   0  0  0  0  0  0  0  0  0  0  0  0
   21.2997   21.5254   21.4883 H   0  0  0  0  0  0  0  0  0  0  0  0
   20.3371   19.8358   20.6366 C   0  0  0  0  0  0  0  0  0  0  0  0
   21.2426   19.2248   20.6760 H   0  0  0  0  0  0  0  0  0  0  0  0
   20.2857   20.3002   19.6481 H   0  0  0  0  0  0  0  0  0  0  0  0
   19.0971   18.9424   20.8463 C   0  0  0  0  0  0  0  0  0  0  0  0
   18.1914   19.5578   20.7645 H   0  0  0  0  0  0  0  0  0  0  0  0
   19.0465   18.2137   20.0264 H   0  0  0  0  0  0  0  0  0  0  0  0
   19.0855   18.1881   22.1993 C   0  0  0  0  0  0  0  0  0  0  0  0
   18.1638   17.5931   22.2648 H   0  0  0  0  0  0  0  0  0  0  0  0
   19.0432   18.9048   23.0308 H   0  0  0  0  0  0  0  0  0  0  0  0
   20.3019   17.2514   22.3808 C   0  0  0  0  0  0  0  0  0  0  0  0
   20.3654   16.5239   21.5612 H   0  0  0  0  0  0  0  0  0  0  0  0
   20.2189   16.6903   23.3206 H   0  0  0  0  0  0  0  0  0  0  0  0
   21.2435   17.8138   22.4133 H   0  0  0  0  0  0  0  0  0  0  0  0
  1  2  1  0  0  0  0
  1  3  1  0  0  0  0
  1  4  1  0  0  0  0
  1  5  1  0  0  0  0
  5  6  1  0  0  0  0
  5  7  1  0  0  0  0
  5  8  1  0  0  0  0
  8  9  1  0  0  0  0
  8 10  1  0  0  0  0
  8 11  1  0  0  0  0
 11 12  1  0  0  0  0
 11 13  1  0  0  0  0
 11 14  1  0  0  0  0
 14 15  1  0  0  0  0
 14 16  1  0  0  0  0
 14 17  1  0  0  0  0
M  END
> <VConfSearch Rank>
785

> <Conf_Id>
1

> <Delta U+W>
0.685

> <U+W>
-15.179

> <U>
45.697

> <W>
-60.876

> <W(PB)>
-62.586

> <W(SA)>
1.710

> <Valence>
1.263

> <Coulomb>
44.179

> <VdW>
0.255

> <VdW6>
-3.552

> <VdW12>
3.807

> <Bond>
0.125

> <Angle>
0.616

> <Pdih>
0.521

> <Idih>
0.000

> <Tether>
0.000

$$$$
VeraChem MOL file


 17 16  0  0  0  0  0  0  0  0999 V2000     
   19.5541   17.5938   22.9203 N   0  3  0  0  0  0  0  0  0  0  0  0
   19.4582   17.9704   23.8681 H   0  0  0  0  0  0  0  0  0  0  0  0
   20.5553   17.5568   22.7090 H   0  0  0  0  0  0  0  0  0  0  0  0
   19.2184   16.6257   22.9493 H   0  0  0  0  0  0  0  0  0  0  0  0
   18.7955   18.4235   21.9024 C   0  0  0  0  0  0  0  0  0  0  0  0
   17.7353   18.3878   22.1674 H   0  0  0  0  0  0  0  0  0  0  0  0
   18.9150   17.9522   20.9234 H   0  0  0  0  0  0  0  0  0  0  0  0
   19.2549   19.8945   21.8313 C   0  0  0  0  0  0  0  0  0  0  0  0
   18.6114   20.4294   21.1202 H   0  0  0  0  0  0  0  0  0  0  0  0
   19.0929   20.3702   22.8076 H   0  0  0  0  0  0  0  0  0  0  0  0
   20.7354   20.0725   21.4119 C   0  0  0  0  0  0  0  0  0  0  0  0
   21.3976   19.6211   22.1632 H   0  0  0  0  0  0  0  0  0  0  0  0
   20.9740   21.1453   21.4031 H   0  0  0  0  0  0  0  0  0  0  0  0
   21.0461   19.4775   20.0194 C   0  0  0  0  0  0  0  0  0  0  0  0
   22.0863   19.6837   19.7360 H   0  0  0  0  0  0  0  0  0  0  0  0
   20.3967   19.9146   19.2497 H   0  0  0  0  0  0  0  0  0  0  0  0
   20.9089   18.3890   20.0055 H   0  0  0  0  0  0  0  0  0  0  0  0
  1  2  1  0  0  0  0
  1  3  1  0  0  0  0
  1  4  1  0  0  0  0
  1  5  1  0  0  0  0
  5  6  1  0  0  0  0
  5  7  1  0  0  0  0
  5  8  1  0  0  0  0
  8  9  1  0  0  0  0
  8 10  1  0  0  0  0
  8 11  1  0  0  0  0
 11 12  1  0  0  0  0
 11 13  1  0  0  0  0
 11 14  1  0  0  0  0
 14 15  1  0  0  0  0
 14 16  1  0  0  0  0
 14 17  1  0  0  0  0
M  END
> <VConfSearch Rank>
786

> <Conf_Id>
43

> <Delta U+W>
0.642

> <U+W>
-15.222

> <U>
45.697

> <W>
-60.919

> <W(PB)>
-62.631

> <W(SA)>
1.712

> <Valence>
1.262

> <Coulomb>
44.179

> <VdW>
0.255

> <VdW6>
-3.552

> <VdW12>
3.807

> <Bond>
0.125

> <Angle>
0.616

> <Pdih>
0.521

> <Idih>
0.000

> <Tether>
0.000

$$$$
VeraChem MOL file


 17 16  0  0  0  0  0  0  0  0999 V2000     
   18.1828   20.7731   20.8874 N   0  3  0  0  0  0  0  0  0  0  0  0
   18.7918   21.3621   20.3112 H   0  0  0  0  0  0  0  0  0  0  0  0
   18.0791   21.2424   21.7922 H   0  0  0  0  0  0  0  0  0  0  0  0
   17.2589   20.7785   20.4432 H   0  0  0  0  0  0  0  0  0  0  0  0
   18.7283   19.3668   21.0362 C   0  0  0  0  0  0  0  0  0  0  0  0
   18.7828   18.9187   20.0403 H   0  0  0  0  0  0  0  0  0  0  0  0
   18.0164   18.7899   21.6328 H   0  0  0  0  0  0  0  0  0  0  0  0
   20.1164   19.3216   21.7006 C   0  0  0  0  0  0  0  0  0  0  0  0
   20.8249   19.9146   21.1071 H   0  0  0  0  0  0  0  0  0  0  0  0
   20.0611   19.7861   22.6941 H   0  0  0  0  0  0  0  0  0  0  0  0
   20.6347   17.8726   21.8328 C   0  0  0  0  0  0  0  0  0  0  0  0
   20.6870   17.4060   20.8389 H   0  0  0  0  0  0  0  0  0  0  0  0
   19.9242   17.2777   22.4241 H   0  0  0  0  0  0  0  0  0  0  0  0
   22.0268   17.8194   22.4984 C   0  0  0  0  0  0  0  0  0  0  0  0
   22.3769   16.7824   22.5829 H   0  0  0  0  0  0  0  0  0  0  0  0
   21.9987   18.2482   23.5086 H   0  0  0  0  0  0  0  0  0  0  0  0
   22.7675   18.3775   21.9109 H   0  0  0  0  0  0  0  0  0  0  0  0
  1  2  1  0  0  0  0
  1  3  1  0  0  0  0
  1  4  1  0  0  0  0
  1  5  1  0  0  0  0
  5  6  1  0  0  0  0
  5  7  1  0  0  0  0
  5  8  1  0  0  0  0
  8  9  1  0  0  0  0
  8 10  1  0  0  0  0
  8 11  1  0  0  0  0
 11 12  1  0  0  0  0
 11 13  1  0  0  0  0
 11 14  1  0  0  0  0
 14 15  1  0  0  0  0
 14 16  1  0  0  0  0
 14 17  1  0  0  0  0
M  END
> <VConfSearch Rank>
787

> <Conf_Id>
7

> <Delta U+W>
0.000

> <U+W>
-15.865

> <U>
44.664

> <W>
-60.529

> <W(PB)>
-62.309

> <W(SA)>
1.780

> <Valence>
0.872

> <Coulomb>
43.648

> <VdW>
0.144

> <VdW6>
-2.370

> <VdW12>
2.515

> <Bond>
0.080

> <Angle>
0.376

> <Pdih>
0.416

> <Idih>
0.000

> <Tether>
0.000

$$$$
VeraChem MOL file


 17 16  0  0  0  0  0  0  0  0999 V2000     
   18.6729   17.8739   19.9598 N   0  3  0  0  0  0  0  0  0  0  0  0
   17.9495   17.3245   20.4337 H   0  0  0  0  0  0  0  0  0  0  0  0
   19.4108   17.2209   19.6791 H   0  0  0  0  0  0  0  0  0  0  0  0
   18.2530   18.2351   19.0973 H   0  0  0  0  0  0  0  0  0  0  0  0
   19.2054   18.9889   20.8376 C   0  0  0  0  0  0  0  0  0  0  0  0
   18.3749   19.6601   21.0723 H   0  0  0  0  0  0  0  0  0  0  0  0
   19.9451   19.5480   20.2586 H   0  0  0  0  0  0  0  0  0  0  0  0
   19.8445   18.4801   22.1439 C   0  0  0  0  0  0  0  0  0  0  0  0
   19.1057   17.8865   22.6986 H   0  0  0  0  0  0  0  0  0  0  0  0
   20.6776   17.8046   21.9082 H   0  0  0  0  0  0  0  0  0  0  0  0
   20.3485   19.6290   23.0484 C   0  0  0  0  0  0  0  0  0  0  0  0
   20.7170   19.2044   23.9928 H   0  0  0  0  0  0  0  0  0  0  0  0
   19.5091   20.2876   23.3127 H   0  0  0  0  0  0  0  0  0  0  0  0
   21.4761   20.4614   22.3960 C   0  0  0  0  0  0  0  0  0  0  0  0
   22.3258   19.8250   22.1165 H   0  0  0  0  0  0  0  0  0  0  0  0
   21.8446   21.2241   23.0942 H   0  0  0  0  0  0  0  0  0  0  0  0
   21.1250   20.9799   21.4950 H   0  0  0  0  0  0  0  0  0  0  0  0
  1  2  1  0  0  0  0
  1  3  1  0  0  0  0
  1  4  1  0  0  0  0
  1  5  1  0  0  0  0
  5  6  1  0  0  0  0
  5  7  1  0  0  0  0
  5  8  1  0  0  0  0
  8  9  1  0  0  0  0
  8 10  1  0  0  0  0
  8 11  1  0  0  0  0
 11 12  1  0  0  0  0
 11 13  1  0  0  0  0
 11 14  1  0  0  0  0
 14 15  1  0  0  0  0
 14 16  1  0  0  0  0
 14 17  1  0  0  0  0
M  END
> <VConfSearch Rank>
788

> <Conf_Id>
36

> <Delta U+W>
0.275

> <U+W>
-15.590

> <U>
45.174

> <W>
-60.765

> <W(PB)>
-62.518

> <W(SA)>
1.754

> <Valence>
1.161

> <Coulomb>
43.789

> <VdW>
0.224

> <VdW6>
-2.897

> <VdW12>
3.121

> <Bond>
0.100

> <Angle>
0.500

> <Pdih>
0.561

> <Idih>
0.000

> <Tether>
0.000

$$$$
VeraChem MOL file


 17 16  0  0  0  0  0  0  0  0999 V2000     
   20.5861   19.7060   23.1886 N   0  3  0  0  0  0  0  0  0  0  0  0
   21.1883   19.9489   22.3979 H   0  0  0  0  0  0  0  0  0  0  0  0
   21.0386   18.9328   23.6856 H   0  0  0  0  0  0  0  0  0  0  0  0
   20.5853   20.5089   23.8260 H   0  0  0  0  0  0  0  0  0  0  0  0
   19.1847   19.3425   22.7372 C   0  0  0  0  0  0  0  0  0  0  0  0
   18.7281   20.2226   22.2765 H   0  0  0  0  0  0  0  0  0  0  0  0
   18.6128   19.0968   23.6362 H   0  0  0  0  0  0  0  0  0  0  0  0
   19.1222   18.1496   21.7601 C   0  0  0  0  0  0  0  0  0  0  0  0
   19.7867   17.3464   22.1050 H   0  0  0  0  0  0  0  0  0  0  0  0
   18.1054   17.7371   21.7998 H   0  0  0  0  0  0  0  0  0  0  0  0
   19.4330   18.5103   20.2849 C   0  0  0  0  0  0  0  0  0  0  0  0
   18.7208   19.2695   19.9322 H   0  0  0  0  0  0  0  0  0  0  0  0
   19.2576   17.6188   19.6665 H   0  0  0  0  0  0  0  0  0  0  0  0
   20.8766   19.0041   20.0382 C   0  0  0  0  0  0  0  0  0  0  0  0
   21.0393   20.0008   20.4648 H   0  0  0  0  0  0  0  0  0  0  0  0
   21.0744   19.0786   18.9610 H   0  0  0  0  0  0  0  0  0  0  0  0
   21.6134   18.3111   20.4648 H   0  0  0  0  0  0  0  0  0  0  0  0
  1  2  1  0  0  0  0
  1  3  1  0  0  0  0
  1  4  1  0  0  0  0
  1  5  1  0  0  0  0
  5  6  1  0  0  0  0
  5  7  1  0  0  0  0
  5  8  1  0  0  0  0
  8  9  1  0  0  0  0
  8 10  1  0  0  0  0
  8 11  1  0  0  0  0
 11 12  1  0  0  0  0
 11 13  1  0  0  0  0
 11 14  1  0  0  0  0
 14 15  1  0  0  0  0
 14 16  1  0  0  0  0
 14 17  1  0  0  0  0
M  END
> <VConfSearch Rank>
789

> <Conf_Id>
19

> <Delta U+W>
2.662

> <U+W>
-13.203

> <U>
47.423

> <W>
-60.626

> <W(PB)>
-62.328

> <W(SA)>
1.702

> <Valence>
2.414

> <Coulomb>
44.831

> <VdW>
0.178

> <VdW6>
-3.743

> <VdW12>
3.921

> <Bond>
0.138

> <Angle>
0.941

> <Pdih>
1.335

> <Idih>
0.000

> <Tether>
0.000

$$$$
VeraChem MOL file


 17 16  0  0  0  0  0  0  0  0999 V2000     
   21.3566   18.0060   22.0030 N   0  3  0  0  0  0  0  0  0  0  0  0
   22.2679   17.6565   21.6895 H   0  0  0  0  0  0  0  0  0  0  0  0
   21.0960   17.4576   22.8281 H   0  0  0  0  0  0  0  0  0  0  0  0
   21.4940   18.9710   22.3141 H   0  0  0  0  0  0  0  0  0  0  0  0
   20.3097   17.9114   20.9098 C   0  0  0  0  0  0  0  0  0  0  0  0
   20.2243   16.8554   20.6393 H   0  0  0  0  0  0  0  0  0  0  0  0
   20.6710   18.4564   20.0336 H   0  0  0  0  0  0  0  0  0  0  0  0
   18.9181   18.4401   21.3166 C   0  0  0  0  0  0  0  0  0  0  0  0
   18.1787   17.9929   20.6390 H   0  0  0  0  0  0  0  0  0  0  0  0
   18.6597   18.0828   22.3222 H   0  0  0  0  0  0  0  0  0  0  0  0
   18.7673   19.9808   21.2366 C   0  0  0  0  0  0  0  0  0  0  0  0
   17.7185   20.2370   21.4425 H   0  0  0  0  0  0  0  0  0  0  0  0
   18.9666   20.3188   20.2099 H   0  0  0  0  0  0  0  0  0  0  0  0
   19.6672   20.7629   22.2201 C   0  0  0  0  0  0  0  0  0  0  0  0
   19.5615   20.3836   23.2449 H   0  0  0  0  0  0  0  0  0  0  0  0
   19.3893   21.8249   22.2279 H   0  0  0  0  0  0  0  0  0  0  0  0
   20.7228   20.7088   21.9296 H   0  0  0  0  0  0  0  0  0  0  0  0
  1  2  1  0  0  0  0
  1  3  1  0  0  0  0
  1  4  1  0  0  0  0
  1  5  1  0  0  0  0
  5  6  1  0  0  0  0
  5  7  1  0  0  0  0
  5  8  1  0  0  0  0
  8  9  1  0  0  0  0
  8 10  1  0  0  0  0
  8 11  1  0  0  0  0
 11 12  1  0  0  0  0
 11 13  1  0  0  0  0
 11 14  1  0  0  0  0
 14 15  1  0  0  0  0
 14 16  1  0  0  0  0
 14 17  1  0  0  0  0
M  END
> <VConfSearch Rank>
790

> <Conf_Id>
44

> <Delta U+W>
2.712

> <U+W>
-13.153

> <U>
47.423

> <W>
-60.576

> <W(PB)>
-62.262

> <W(SA)>
1.687

> <Valence>
2.414

> <Coulomb>
44.831

> <VdW>
0.178

> <VdW6>
-3.743

> <VdW12>
3.922

> <Bond>
0.138

> <Angle>
0.941

> <Pdih>
1.335

> <Idih>
0.000

> <Tether>
0.000

$$$$
VeraChem MOL file


 17 16  0  0  0  0  0  0  0  0999 V2000     
   18.6581   18.6246   23.0773 N   0  3  0  0  0  0  0  0  0  0  0  0
   19.5568   18.1981   23.3198 H   0  0  0  0  0  0  0  0  0  0  0  0
   18.0199   17.8639   22.8254 H   0  0  0  0  0  0  0  0  0  0  0  0
   18.2890   19.0516   23.9330 H   0  0  0  0  0  0  0  0  0  0  0  0
   18.8009   19.6375   21.9577 C   0  0  0  0  0  0  0  0  0  0  0  0
   19.4677   20.4323   22.3020 H   0  0  0  0  0  0  0  0  0  0  0  0
   17.8158   20.0770   21.7787 H   0  0  0  0  0  0  0  0  0  0  0  0
   19.3401   19.0395   20.6419 C   0  0  0  0  0  0  0  0  0  0  0  0
   18.6429   18.2708   20.2830 H   0  0  0  0  0  0  0  0  0  0  0  0
   19.3483   19.8262   19.8759 H   0  0  0  0  0  0  0  0  0  0  0  0
   20.7594   18.4305   20.7617 C   0  0  0  0  0  0  0  0  0  0  0  0
   21.0513   18.0190   19.7853 H   0  0  0  0  0  0  0  0  0  0  0  0
   20.7481   17.5806   21.4576 H   0  0  0  0  0  0  0  0  0  0  0  0
   21.8231   19.4580   21.2119 C   0  0  0  0  0  0  0  0  0  0  0  0
   21.8544   20.3179   20.5303 H   0  0  0  0  0  0  0  0  0  0  0  0
   22.8210   19.0007   21.2197 H   0  0  0  0  0  0  0  0  0  0  0  0
   21.6219   19.8304   22.2242 H   0  0  0  0  0  0  0  0  0  0  0  0
  1  2  1  0  0  0  0
  1  3  1  0  0  0  0
  1  4  1  0  0  0  0
  1  5  1  0  0  0  0
  5  6  1  0  0  0  0
  5  7  1  0  0  0  0
  5  8  1  0  0  0  0
  8  9  1  0  0  0  0
  8 10  1  0  0  0  0
  8 11  1  0  0  0  0
 11 12  1  0  0  0  0
 11 13  1  0  0  0  0
 11 14  1  0  0  0  0
 14 15  1  0  0  0  0
 14 16  1  0  0  0  0
 14 17  1  0  0  0  0
M  END
> <VConfSearch Rank>
791

> <Conf_Id>
1

> <Delta U+W>
0.685

> <U+W>
-15.179

> <U>
45.697

> <W>
-60.876

> <W(PB)>
-62.586

> <W(SA)>
1.710

> <Valence>
1.263

> <Coulomb>
44.179

> <VdW>
0.255

> <VdW6>
-3.552

> <VdW12>
3.807

> <Bond>
0.125

> <Angle>
0.616

> <Pdih>
0.521

> <Idih>
0.000

> <Tether>
0.000

$$$$
VeraChem MOL file


 17 16  0  0  0  0  0  0  0  0999 V2000     
   21.3858   18.2545   22.7003 N   0  3  0  0  0  0  0  0  0  0  0  0
   21.2254   18.4089   23.7002 H   0  0  0  0  0  0  0  0  0  0  0  0
   21.7370   19.1340   22.3107 H   0  0  0  0  0  0  0  0  0  0  0  0
   22.1440   17.5691   22.6229 H   0  0  0  0  0  0  0  0  0  0  0  0
   20.1291   17.7881   21.9910 C   0  0  0  0  0  0  0  0  0  0  0  0
   19.8342   16.8314   22.4307 H   0  0  0  0  0  0  0  0  0  0  0  0
   20.3767   17.6149   20.9405 H   0  0  0  0  0  0  0  0  0  0  0  0
   18.9525   18.7807   22.0914 C   0  0  0  0  0  0  0  0  0  0  0  0
   18.0735   18.3335   21.6084 H   0  0  0  0  0  0  0  0  0  0  0  0
   18.6848   18.9166   23.1476 H   0  0  0  0  0  0  0  0  0  0  0  0
   19.2374   20.1623   21.4515 C   0  0  0  0  0  0  0  0  0  0  0  0
   20.0569   20.6635   21.9843 H   0  0  0  0  0  0  0  0  0  0  0  0
   18.3538   20.8024   21.5836 H   0  0  0  0  0  0  0  0  0  0  0  0
   19.5729   20.0742   19.9450 C   0  0  0  0  0  0  0  0  0  0  0  0
   19.7025   21.0780   19.5200 H   0  0  0  0  0  0  0  0  0  0  0  0
   18.7669   19.5773   19.3896 H   0  0  0  0  0  0  0  0  0  0  0  0
   20.5026   19.5184   19.7700 H   0  0  0  0  0  0  0  0  0  0  0  0
  1  2  1  0  0  0  0
  1  3  1  0  0  0  0
  1  4  1  0  0  0  0
  1  5  1  0  0  0  0
  5  6  1  0  0  0  0
  5  7  1  0  0  0  0
  5  8  1  0  0  0  0
  8  9  1  0  0  0  0
  8 10  1  0  0  0  0
  8 11  1  0  0  0  0
 11 12  1  0  0  0  0
 11 13  1  0  0  0  0
 11 14  1  0  0  0  0
 14 15  1  0  0  0  0
 14 16  1  0  0  0  0
 14 17  1  0  0  0  0
M  END
> <VConfSearch Rank>
792

> <Conf_Id>
43

> <Delta U+W>
0.642

> <U+W>
-15.222

> <U>
45.697

> <W>
-60.919

> <W(PB)>
-62.631

> <W(SA)>
1.712

> <Valence>
1.262

> <Coulomb>
44.179

> <VdW>
0.255

> <VdW6>
-3.552

> <VdW12>
3.807

> <Bond>
0.125

> <Angle>
0.616

> <Pdih>
0.521

> <Idih>
0.000

> <Tether>
0.000

$$$$
VeraChem MOL file


 17 16  0  0  0  0  0  0  0  0999 V2000     
   22.4924   19.1736   21.9817 N   0  3  0  0  0  0  0  0  0  0  0  0
   22.5609   18.4007   22.6508 H   0  0  0  0  0  0  0  0  0  0  0  0
   22.5070   20.0428   22.5239 H   0  0  0  0  0  0  0  0  0  0  0  0
   23.3517   19.1586   21.4229 H   0  0  0  0  0  0  0  0  0  0  0  0
   21.2541   19.0659   21.1143 C   0  0  0  0  0  0  0  0  0  0  0  0
   21.3208   18.1350   20.5448 H   0  0  0  0  0  0  0  0  0  0  0  0
   21.2629   19.9008   20.4083 H   0  0  0  0  0  0  0  0  0  0  0  0
   19.9438   19.0854   21.9224 C   0  0  0  0  0  0  0  0  0  0  0  0
   19.9453   18.2550   22.6409 H   0  0  0  0  0  0  0  0  0  0  0  0
   19.8875   20.0147   22.5048 H   0  0  0  0  0  0  0  0  0  0  0  0
   18.7085   18.9737   21.0020 C   0  0  0  0  0  0  0  0  0  0  0  0
   18.7658   18.0452   20.4164 H   0  0  0  0  0  0  0  0  0  0  0  0
   18.7081   19.8029   20.2804 H   0  0  0  0  0  0  0  0  0  0  0  0
   17.3902   18.9925   21.8057 C   0  0  0  0  0  0  0  0  0  0  0  0
   16.5255   18.9121   21.1343 H   0  0  0  0  0  0  0  0  0  0  0  0
   17.2879   19.9252   22.3756 H   0  0  0  0  0  0  0  0  0  0  0  0
   17.3461   18.1537   22.5126 H   0  0  0  0  0  0  0  0  0  0  0  0
  1  2  1  0  0  0  0
  1  3  1  0  0  0  0
  1  4  1  0  0  0  0
  1  5  1  0  0  0  0
  5  6  1  0  0  0  0
  5  7  1  0  0  0  0
  5  8  1  0  0  0  0
  8  9  1  0  0  0  0
  8 10  1  0  0  0  0
  8 11  1  0  0  0  0
 11 12  1  0  0  0  0
 11 13  1  0  0  0  0
 11 14  1  0  0  0  0
 14 15  1  0  0  0  0
 14 16  1  0  0  0  0
 14 17  1  0  0  0  0
M  END
> <VConfSearch Rank>
793

> <Conf_Id>
7

> <Delta U+W>
0.000

> <U+W>
-15.865

> <U>
44.664

> <W>
-60.529

> <W(PB)>
-62.309

> <W(SA)>
1.780

> <Valence>
0.872

> <Coulomb>
43.648

> <VdW>
0.144

> <VdW6>
-2.370

> <VdW12>
2.515

> <Bond>
0.080

> <Angle>
0.376

> <Pdih>
0.416

> <Idih>
0.000

> <Tether>
0.000

$$$$
VeraChem MOL file


 17 16  0  0  0  0  0  0  0  0999 V2000     
   20.9612   18.4720   23.7112 N   0  3  0  0  0  0  0  0  0  0  0  0
   20.2475   18.0600   24.3199 H   0  0  0  0  0  0  0  0  0  0  0  0
   21.1474   19.4162   24.0625 H   0  0  0  0  0  0  0  0  0  0  0  0
   21.8193   17.9291   23.8513 H   0  0  0  0  0  0  0  0  0  0  0  0
   20.5312   18.4817   22.2578 C   0  0  0  0  0  0  0  0  0  0  0  0
   20.3801   17.4456   21.9431 H   0  0  0  0  0  0  0  0  0  0  0  0
   21.3495   18.9033   21.6683 H   0  0  0  0  0  0  0  0  0  0  0  0
   19.2430   19.2904   22.0116 C   0  0  0  0  0  0  0  0  0  0  0  0
   18.4379   18.8841   22.6381 H   0  0  0  0  0  0  0  0  0  0  0  0
   19.3943   20.3306   22.3291 H   0  0  0  0  0  0  0  0  0  0  0  0
   18.7933   19.2600   20.5321 C   0  0  0  0  0  0  0  0  0  0  0  0
   17.8319   19.7846   20.4404 H   0  0  0  0  0  0  0  0  0  0  0  0
   18.6093   18.2216   20.2222 H   0  0  0  0  0  0  0  0  0  0  0  0
   19.8173   19.9135   19.5758 C   0  0  0  0  0  0  0  0  0  0  0  0
   20.0237   20.9515   19.8674 H   0  0  0  0  0  0  0  0  0  0  0  0
   19.4313   19.9249   18.5482 H   0  0  0  0  0  0  0  0  0  0  0  0
   20.7674   19.3647   19.5659 H   0  0  0  0  0  0  0  0  0  0  0  0
  1  2  1  0  0  0  0
  1  3  1  0  0  0  0
  1  4  1  0  0  0  0
  1  5  1  0  0  0  0
  5  6  1  0  0  0  0
  5  7  1  0  0  0  0
  5  8  1  0  0  0  0
  8  9  1  0  0  0  0
  8 10  1  0  0  0  0
  8 11  1  0  0  0  0
 11 12  1  0  0  0  0
 11 13  1  0  0  0  0
 11 14  1  0  0  0  0
 14 15  1  0  0  0  0
 14 16  1  0  0  0  0
 14 17  1  0  0  0  0
M  END
> <VConfSearch Rank>
794

> <Conf_Id>
36

> <Delta U+W>
0.275

> <U+W>
-15.590

> <U>
45.174

> <W>
-60.765

> <W(PB)>
-62.518

> <W(SA)>
1.754

> <Valence>
1.161

> <Coulomb>
43.789

> <VdW>
0.224

> <VdW6>
-2.897

> <VdW12>
3.121

> <Bond>
0.100

> <Angle>
0.500

> <Pdih>
0.561

> <Idih>
0.000

> <Tether>
0.000

$$$$
VeraChem MOL file


 17 16  0  0  0  0  0  0  0  0999 V2000     
   18.8644   19.5284   23.0188 N   0  3  0  0  0  0  0  0  0  0  0  0
   19.0016   18.5145   23.0227 H   0  0  0  0  0  0  0  0  0  0  0  0
   17.9376   19.7055   22.6200 H   0  0  0  0  0  0  0  0  0  0  0  0
   18.8302   19.8327   23.9971 H   0  0  0  0  0  0  0  0  0  0  0  0
   19.9566   20.2406   22.2443 C   0  0  0  0  0  0  0  0  0  0  0  0
   20.9099   20.0725   22.7525 H   0  0  0  0  0  0  0  0  0  0  0  0
   19.7343   21.3103   22.2883 H   0  0  0  0  0  0  0  0  0  0  0  0
   20.0697   19.8110   20.7664 C   0  0  0  0  0  0  0  0  0  0  0  0
   19.0698   19.7407   20.3181 H   0  0  0  0  0  0  0  0  0  0  0  0
   20.5875   20.6127   20.2233 H   0  0  0  0  0  0  0  0  0  0  0  0
   20.8566   18.4952   20.5379 C   0  0  0  0  0  0  0  0  0  0  0  0
   21.8761   18.6007   20.9348 H   0  0  0  0  0  0  0  0  0  0  0  0
   20.9665   18.3413   19.4552 H   0  0  0  0  0  0  0  0  0  0  0  0
   20.1935   17.2397   21.1486 C   0  0  0  0  0  0  0  0  0  0  0  0
   20.2474   17.2485   22.2435 H   0  0  0  0  0  0  0  0  0  0  0  0
   20.7099   16.3329   20.8079 H   0  0  0  0  0  0  0  0  0  0  0  0
   19.1415   17.1574   20.8459 H   0  0  0  0  0  0  0  0  0  0  0  0
  1  2  1  0  0  0  0
  1  3  1  0  0  0  0
  1  4  1  0  0  0  0
  1  5  1  0  0  0  0
  5  6  1  0  0  0  0
  5  7  1  0  0  0  0
  5  8  1  0  0  0  0
  8  9  1  0  0  0  0
  8 10  1  0  0  0  0
  8 11  1  0  0  0  0
 11 12  1  0  0  0  0
 11 13  1  0  0  0  0
 11 14  1  0  0  0  0
 14 15  1  0  0  0  0
 14 16  1  0  0  0  0
 14 17  1  0  0  0  0
M  END
> <VConfSearch Rank>
795

> <Conf_Id>
19

> <Delta U+W>
2.662

> <U+W>
-13.203

> <U>
47.423

> <W>
-60.626

> <W(PB)>
-62.328

> <W(SA)>
1.702

> <Valence>
2.414

> <Coulomb>
44.831

> <VdW>
0.178

> <VdW6>
-3.743

> <VdW12>
3.921

> <Bond>
0.138

> <Angle>
0.941

> <Pdih>
1.335

> <Idih>
0.000

> <Tether>
0.000

$$$$
VeraChem MOL file


 17 16  0  0  0  0  0  0  0  0999 V2000     
   19.6649   17.8169   22.9640 N   0  3  0  0  0  0  0  0  0  0  0  0
   20.1287   17.1992   23.6379 H   0  0  0  0  0  0  0  0  0  0  0  0
   18.6737   17.5582   22.9571 H   0  0  0  0  0  0  0  0  0  0  0  0
   19.7250   18.7684   23.3355 H   0  0  0  0  0  0  0  0  0  0  0  0
   20.2842   17.7122   21.5836 C   0  0  0  0  0  0  0  0  0  0  0  0
   20.1764   16.6725   21.2628 H   0  0  0  0  0  0  0  0  0  0  0  0
   21.3522   17.9320   21.6636 H   0  0  0  0  0  0  0  0  0  0  0  0
   19.6390   18.6338   20.5272 C   0  0  0  0  0  0  0  0  0  0  0  0
   19.8751   18.2239   19.5362 H   0  0  0  0  0  0  0  0  0  0  0  0
   18.5451   18.5977   20.6152 H   0  0  0  0  0  0  0  0  0  0  0  0
   20.1349   20.1019   20.5662 C   0  0  0  0  0  0  0  0  0  0  0  0
   19.6953   20.6383   19.7135 H   0  0  0  0  0  0  0  0  0  0  0  0
   21.2230   20.1286   20.4136 H   0  0  0  0  0  0  0  0  0  0  0  0
   19.7778   20.8628   21.8633 C   0  0  0  0  0  0  0  0  0  0  0  0
   18.7085   20.7748   22.0955 H   0  0  0  0  0  0  0  0  0  0  0  0
   20.0078   21.9306   21.7536 H   0  0  0  0  0  0  0  0  0  0  0  0
   20.3574   20.4950   22.7180 H   0  0  0  0  0  0  0  0  0  0  0  0
  1  2  1  0  0  0  0
  1  3  1  0  0  0  0
  1  4  1  0  0  0  0
  1  5  1  0  0  0  0
  5  6  1  0  0  0  0
  5  7  1  0  0  0  0
  5  8  1  0  0  0  0
  8  9  1  0  0  0  0
  8 10  1  0  0  0  0
  8 11  1  0  0  0  0
 11 12  1  0  0  0  0
 11 13  1  0  0  0  0
 11 14  1  0  0  0  0
 14 15  1  0  0  0  0
 14 16  1  0  0  0  0
 14 17  1  0  0  0  0
M  END
> <VConfSearch Rank>
796

> <Conf_Id>
44

> <Delta U+W>
2.712

> <U+W>
-13.153

> <U>
47.423

> <W>
-60.576

> <W(PB)>
-62.262

> <W(SA)>
1.687

> <Valence>
2.414

> <Coulomb>
44.831

> <VdW>
0.178

> <VdW6>
-3.743

> <VdW12>
3.922

> <Bond>
0.138

> <Angle>
0.941

> <Pdih>
1.335

> <Idih>
0.000

> <Tether>
0.000

$$$$
VeraChem MOL file


 17 16  0  0  0  0  0  0  0  0999 V2000     
   19.8567   17.4918   22.8437 N   0  3  0  0  0  0  0  0  0  0  0  0
   20.8427   17.6667   22.6299 H   0  0  0  0  0  0  0  0  0  0  0  0
   19.5901   16.6296   22.3590 H   0  0  0  0  0  0  0  0  0  0  0  0
   19.7982   17.2985   23.8486 H   0  0  0  0  0  0  0  0  0  0  0  0
   18.9787   18.6613   22.4422 C   0  0  0  0  0  0  0  0  0  0  0  0
   19.2963   19.5365   23.0148 H   0  0  0  0  0  0  0  0  0  0  0  0
   17.9521   18.4219   22.7325 H   0  0  0  0  0  0  0  0  0  0  0  0
   19.0212   18.9829   20.9340 C   0  0  0  0  0  0  0  0  0  0  0  0
   18.6621   18.1122   20.3695 H   0  0  0  0  0  0  0  0  0  0  0  0
   18.3112   19.7948   20.7279 H   0  0  0  0  0  0  0  0  0  0  0  0
   20.4234   19.3888   20.4156 C   0  0  0  0  0  0  0  0  0  0  0  0
   20.3587   19.5835   19.3359 H   0  0  0  0  0  0  0  0  0  0  0  0
   21.1255   18.5519   20.5311 H   0  0  0  0  0  0  0  0  0  0  0  0
   20.9891   20.6438   21.1191 C   0  0  0  0  0  0  0  0  0  0  0  0
   20.3045   21.4958   21.0167 H   0  0  0  0  0  0  0  0  0  0  0  0
   21.9512   20.9325   20.6765 H   0  0  0  0  0  0  0  0  0  0  0  0
   21.1571   20.4661   22.1887 H   0  0  0  0  0  0  0  0  0  0  0  0
  1  2  1  0  0  0  0
  1  3  1  0  0  0  0
  1  4  1  0  0  0  0
  1  5  1  0  0  0  0
  5  6  1  0  0  0  0
  5  7  1  0  0  0  0
  5  8  1  0  0  0  0
  8  9  1  0  0  0  0
  8 10  1  0  0  0  0
  8 11  1  0  0  0  0
 11 12  1  0  0  0  0
 11 13  1  0  0  0  0
 11 14  1  0  0  0  0
 14 15  1  0  0  0  0
 14 16  1  0  0  0  0
 14 17  1  0  0  0  0
M  END
> <VConfSearch Rank>
797

> <Conf_Id>
1

> <Delta U+W>
0.685

> <U+W>
-15.179

> <U>
45.697

> <W>
-60.876

> <W(PB)>
-62.586

> <W(SA)>
1.710

> <Valence>
1.263

> <Coulomb>
44.179

> <VdW>
0.255

> <VdW6>
-3.552

> <VdW12>
3.807

> <Bond>
0.125

> <Angle>
0.616

> <Pdih>
0.521

> <Idih>
0.000

> <Tether>
0.000

$$$$
VeraChem MOL file


 17 16  0  0  0  0  0  0  0  0999 V2000     
   19.7938   17.1335   22.1751 N   0  3  0  0  0  0  0  0  0  0  0  0
   19.1635   17.0265   22.9756 H   0  0  0  0  0  0  0  0  0  0  0  0
   20.6811   17.4963   22.5349 H   0  0  0  0  0  0  0  0  0  0  0  0
   19.9796   16.1920   21.8147 H   0  0  0  0  0  0  0  0  0  0  0  0
   19.2069   18.0395   21.1100 C   0  0  0  0  0  0  0  0  0  0  0  0
   18.2865   17.5739   20.7470 H   0  0  0  0  0  0  0  0  0  0  0  0
   19.9131   18.0859   20.2770 H   0  0  0  0  0  0  0  0  0  0  0  0
   18.8956   19.4659   21.6083 C   0  0  0  0  0  0  0  0  0  0  0  0
   18.4178   20.0261   20.7936 H   0  0  0  0  0  0  0  0  0  0  0  0
   18.1549   19.4115   22.4171 H   0  0  0  0  0  0  0  0  0  0  0  0
   20.1393   20.2463   22.1018 C   0  0  0  0  0  0  0  0  0  0  0  0
   20.5761   19.7462   22.9769 H   0  0  0  0  0  0  0  0  0  0  0  0
   19.8195   21.2391   22.4483 H   0  0  0  0  0  0  0  0  0  0  0  0
   21.2185   20.4197   21.0086 C   0  0  0  0  0  0  0  0  0  0  0  0
   22.0494   21.0324   21.3815 H   0  0  0  0  0  0  0  0  0  0  0  0
   20.8058   20.9191   20.1224 H   0  0  0  0  0  0  0  0  0  0  0  0
   21.6345   19.4540   20.6949 H   0  0  0  0  0  0  0  0  0  0  0  0
  1  2  1  0  0  0  0
  1  3  1  0  0  0  0
  1  4  1  0  0  0  0
  1  5  1  0  0  0  0
  5  6  1  0  0  0  0
  5  7  1  0  0  0  0
  5  8  1  0  0  0  0
  8  9  1  0  0  0  0
  8 10  1  0  0  0  0
  8 11  1  0  0  0  0
 11 12  1  0  0  0  0
 11 13  1  0  0  0  0
 11 14  1  0  0  0  0
 14 15  1  0  0  0  0
 14 16  1  0  0  0  0
 14 17  1  0  0  0  0
M  END
> <VConfSearch Rank>
798

> <Conf_Id>
43

> <Delta U+W>
0.642

> <U+W>
-15.222

> <U>
45.697

> <W>
-60.919

> <W(PB)>
-62.631

> <W(SA)>
1.712

> <Valence>
1.262

> <Coulomb>
44.179

> <VdW>
0.255

> <VdW6>
-3.552

> <VdW12>
3.807

> <Bond>
0.125

> <Angle>
0.616

> <Pdih>
0.521

> <Idih>
0.000

> <Tether>
0.000

$$$$
VeraChem MOL file


 17 16  0  0  0  0  0  0  0  0999 V2000     
   20.1360   21.6202   21.5217 N   0  3  0  0  0  0  0  0  0  0  0  0
   19.1915   21.8084   21.1723 H   0  0  0  0  0  0  0  0  0  0  0  0
   20.7712   21.6833   20.7202 H   0  0  0  0  0  0  0  0  0  0  0  0
   20.3777   22.3912   22.1526 H   0  0  0  0  0  0  0  0  0  0  0  0
   20.2278   20.2752   22.2145 C   0  0  0  0  0  0  0  0  0  0  0  0
   19.5503   20.2906   23.0726 H   0  0  0  0  0  0  0  0  0  0  0  0
   21.2490   20.1560   22.5865 H   0  0  0  0  0  0  0  0  0  0  0  0
   19.8709   19.0933   21.2946 C   0  0  0  0  0  0  0  0  0  0  0  0
   18.8504   19.2243   20.9108 H   0  0  0  0  0  0  0  0  0  0  0  0
   20.5433   19.0902   20.4264 H   0  0  0  0  0  0  0  0  0  0  0  0
   19.9768   17.7439   22.0385 C   0  0  0  0  0  0  0  0  0  0  0  0
   19.3064   17.7477   22.9096 H   0  0  0  0  0  0  0  0  0  0  0  0
   20.9973   17.6136   22.4258 H   0  0  0  0  0  0  0  0  0  0  0  0
   19.6202   16.5536   21.1220 C   0  0  0  0  0  0  0  0  0  0  0  0
   19.7014   15.6052   21.6688 H   0  0  0  0  0  0  0  0  0  0  0  0
   20.2963   16.5029   20.2586 H   0  0  0  0  0  0  0  0  0  0  0  0
   18.5921   16.6381   20.7463 H   0  0  0  0  0  0  0  0  0  0  0  0
  1  2  1  0  0  0  0
  1  3  1  0  0  0  0
  1  4  1  0  0  0  0
  1  5  1  0  0  0  0
  5  6  1  0  0  0  0
  5  7  1  0  0  0  0
  5  8  1  0  0  0  0
  8  9  1  0  0  0  0
  8 10  1  0  0  0  0
  8 11  1  0  0  0  0
 11 12  1  0  0  0  0
 11 13  1  0  0  0  0
 11 14  1  0  0  0  0
 14 15  1  0  0  0  0
 14 16  1  0  0  0  0
 14 17  1  0  0  0  0
M  END
> <VConfSearch Rank>
799

> <Conf_Id>
7

> <Delta U+W>
0.000

> <U+W>
-15.865

> <U>
44.664

> <W>
-60.529

> <W(PB)>
-62.309

> <W(SA)>
1.780

> <Valence>
0.872

> <Coulomb>
43.648

> <VdW>
0.144

> <VdW6>
-2.370

> <VdW12>
2.515

> <Bond>
0.080

> <Angle>
0.376

> <Pdih>
0.416

> <Idih>
0.000

> <Tether>
0.000

$$$$
VeraChem MOL file


 17 16  0  0  0  0  0  0  0  0999 V2000     
   21.9003   19.2528   23.0043 N   0  3  0  0  0  0  0  0  0  0  0  0
   22.6658   18.7516   22.5433 H   0  0  0  0  0  0  0  0  0  0  0  0
   21.5764   18.6625   23.7765 H   0  0  0  0  0  0  0  0  0  0  0  0
   22.3080   20.0940   23.4250 H   0  0  0  0  0  0  0  0  0  0  0  0
   20.7808   19.5907   22.0399 C   0  0  0  0  0  0  0  0  0  0  0  0
   21.1890   20.2434   21.2635 H   0  0  0  0  0  0  0  0  0  0  0  0
   20.0194   20.1484   22.5914 H   0  0  0  0  0  0  0  0  0  0  0  0
   20.1448   18.3474   21.3890 C   0  0  0  0  0  0  0  0  0  0  0  0
   20.9249   17.7733   20.8716 H   0  0  0  0  0  0  0  0  0  0  0  0
   19.7363   17.6911   22.1689 H   0  0  0  0  0  0  0  0  0  0  0  0
   19.0309   18.7073   20.3782 C   0  0  0  0  0  0  0  0  0  0  0  0
   18.6774   17.7863   19.8937 H   0  0  0  0  0  0  0  0  0  0  0  0
   19.4458   19.3371   19.5785 H   0  0  0  0  0  0  0  0  0  0  0  0
   17.8290   19.4254   21.0337 C   0  0  0  0  0  0  0  0  0  0  0  0
   17.3991   18.8189   21.8415 H   0  0  0  0  0  0  0  0  0  0  0  0
   17.0385   19.6063   20.2939 H   0  0  0  0  0  0  0  0  0  0  0  0
   18.1191   20.3975   21.4520 H   0  0  0  0  0  0  0  0  0  0  0  0
  1  2  1  0  0  0  0
  1  3  1  0  0  0  0
  1  4  1  0  0  0  0
  1  5  1  0  0  0  0
  5  6  1  0  0  0  0
  5  7  1  0  0  0  0
  5  8  1  0  0  0  0
  8  9  1  0  0  0  0
  8 10  1  0  0  0  0
  8 11  1  0  0  0  0
 11 12  1  0  0  0  0
 11 13  1  0  0  0  0
 11 14  1  0  0  0  0
 14 15  1  0  0  0  0
 14 16  1  0  0  0  0
 14 17  1  0  0  0  0
M  END
> <VConfSearch Rank>
800

> <Conf_Id>
36

> <Delta U+W>
0.275

> <U+W>
-15.590

> <U>
45.174

> <W>
-60.765

> <W(PB)>
-62.518

> <W(SA)>
1.754

> <Valence>
1.161

> <Coulomb>
43.789

> <VdW>
0.224

> <VdW6>
-2.897

> <VdW12>
3.121

> <Bond>
0.100

> <Angle>
0.500

> <Pdih>
0.561

> <Idih>
0.000

> <Tether>
0.000

$$$$
VeraChem MOL file


 17 16  0  0  0  0  0  0  0  0999 V2000     
   19.8023   17.3175   20.7963 N   0  3  0  0  0  0  0  0  0  0  0  0
   18.8814   17.6827   21.0522 H   0  0  0  0  0  0  0  0  0  0  0  0
   20.0658   16.6352   21.5135 H   0  0  0  0  0  0  0  0  0  0  0  0
   19.6890   16.7985   19.9196 H   0  0  0  0  0  0  0  0  0  0  0  0
   20.8304   18.4250   20.6674 C   0  0  0  0  0  0  0  0  0  0  0  0
   20.5332   19.0819   19.8455 H   0  0  0  0  0  0  0  0  0  0  0  0
   21.7779   17.9518   20.3960 H   0  0  0  0  0  0  0  0  0  0  0  0
   21.0330   19.2553   21.9524 C   0  0  0  0  0  0  0  0  0  0  0  0
   21.0853   18.5905   22.8248 H   0  0  0  0  0  0  0  0  0  0  0  0
   22.0151   19.7419   21.8853 H   0  0  0  0  0  0  0  0  0  0  0  0
   19.9687   20.3593   22.1789 C   0  0  0  0  0  0  0  0  0  0  0  0
   19.9703   21.0544   21.3275 H   0  0  0  0  0  0  0  0  0  0  0  0
   20.2660   20.9519   23.0555 H   0  0  0  0  0  0  0  0  0  0  0  0
   18.5354   19.8279   22.4072 C   0  0  0  0  0  0  0  0  0  0  0  0
   18.1106   19.4083   21.4879 H   0  0  0  0  0  0  0  0  0  0  0  0
   17.8732   20.6438   22.7249 H   0  0  0  0  0  0  0  0  0  0  0  0
   18.5154   19.0589   23.1904 H   0  0  0  0  0  0  0  0  0  0  0  0
  1  2  1  0  0  0  0
  1  3  1  0  0  0  0
  1  4  1  0  0  0  0
  1  5  1  0  0  0  0
  5  6  1  0  0  0  0
  5  7  1  0  0  0  0
  5  8  1  0  0  0  0
  8  9  1  0  0  0  0
  8 10  1  0  0  0  0
  8 11  1  0  0  0  0
 11 12  1  0  0  0  0
 11 13  1  0  0  0  0
 11 14  1  0  0  0  0
 14 15  1  0  0  0  0
 14 16  1  0  0  0  0
 14 17  1  0  0  0  0
M  END
> <VConfSearch Rank>
801

> <Conf_Id>
19

> <Delta U+W>
2.662

> <U+W>
-13.203

> <U>
47.423

> <W>
-60.626

> <W(PB)>
-62.328

> <W(SA)>
1.702

> <Valence>
2.414

> <Coulomb>
44.831

> <VdW>
0.178

> <VdW6>
-3.743

> <VdW12>
3.921

> <Bond>
0.138

> <Angle>
0.941

> <Pdih>
1.335

> <Idih>
0.000

> <Tether>
0.000

$$$$
VeraChem MOL file


 17 16  0  0  0  0  0  0  0  0999 V2000     
   21.2146   20.2063   20.9962 N   0  3  0  0  0  0  0  0  0  0  0  0
   22.2217   20.3590   20.8812 H   0  0  0  0  0  0  0  0  0  0  0  0
   20.7548   21.1020   20.8068 H   0  0  0  0  0  0  0  0  0  0  0  0
   20.9219   19.5566   20.2620 H   0  0  0  0  0  0  0  0  0  0  0  0
   20.8778   19.6813   22.3786 C   0  0  0  0  0  0  0  0  0  0  0  0
   21.2196   20.4309   23.0974 H   0  0  0  0  0  0  0  0  0  0  0  0
   21.4471   18.7639   22.5507 H   0  0  0  0  0  0  0  0  0  0  0  0
   19.3751   19.4141   22.6070 C   0  0  0  0  0  0  0  0  0  0  0  0
   19.1956   19.4158   23.6904 H   0  0  0  0  0  0  0  0  0  0  0  0
   18.7803   20.2435   22.2020 H   0  0  0  0  0  0  0  0  0  0  0  0
   18.8695   18.0620   22.0423 C   0  0  0  0  0  0  0  0  0  0  0  0
   17.8230   17.9280   22.3504 H   0  0  0  0  0  0  0  0  0  0  0  0
   19.4299   17.2364   22.5030 H   0  0  0  0  0  0  0  0  0  0  0  0
   18.9487   17.9426   20.5034 C   0  0  0  0  0  0  0  0  0  0  0  0
   18.4789   18.8045   20.0119 H   0  0  0  0  0  0  0  0  0  0  0  0
   18.4244   17.0396   20.1643 H   0  0  0  0  0  0  0  0  0  0  0  0
   19.9862   17.8606   20.1590 H   0  0  0  0  0  0  0  0  0  0  0  0
  1  2  1  0  0  0  0
  1  3  1  0  0  0  0
  1  4  1  0  0  0  0
  1  5  1  0  0  0  0
  5  6  1  0  0  0  0
  5  7  1  0  0  0  0
  5  8  1  0  0  0  0
  8  9  1  0  0  0  0
  8 10  1  0  0  0  0
  8 11  1  0  0  0  0
 11 12  1  0  0  0  0
 11 13  1  0  0  0  0
 11 14  1  0  0  0  0
 14 15  1  0  0  0  0
 14 16  1  0  0  0  0
 14 17  1  0  0  0  0
M  END
> <VConfSearch Rank>
802

> <Conf_Id>
44

> <Delta U+W>
2.712

> <U+W>
-13.153

> <U>
47.423

> <W>
-60.576

> <W(PB)>
-62.262

> <W(SA)>
1.687

> <Valence>
2.414

> <Coulomb>
44.831

> <VdW>
0.178

> <VdW6>
-3.743

> <VdW12>
3.922

> <Bond>
0.138

> <Angle>
0.941

> <Pdih>
1.335

> <Idih>
0.000

> <Tether>
0.000

$$$$
VeraChem MOL file


 17 16  0  0  0  0  0  0  0  0999 V2000     
   20.0436   20.2328   23.1817 N   0  3  0  0  0  0  0  0  0  0  0  0
   19.4528   19.4402   23.4485 H   0  0  0  0  0  0  0  0  0  0  0  0
   19.4312   21.0485   23.0866 H   0  0  0  0  0  0  0  0  0  0  0  0
   20.6681   20.4202   23.9726 H   0  0  0  0  0  0  0  0  0  0  0  0
   20.8160   19.9536   21.9068 C   0  0  0  0  0  0  0  0  0  0  0  0
   21.4677   19.0945   22.0860 H   0  0  0  0  0  0  0  0  0  0  0  0
   21.4494   20.8216   21.7044 H   0  0  0  0  0  0  0  0  0  0  0  0
   19.9187   19.6795   20.6823 C   0  0  0  0  0  0  0  0  0  0  0  0
   19.2972   20.5632   20.4859 H   0  0  0  0  0  0  0  0  0  0  0  0
   20.5587   19.5535   19.7990 H   0  0  0  0  0  0  0  0  0  0  0  0
   19.0090   18.4348   20.8338 C   0  0  0  0  0  0  0  0  0  0  0  0
   18.4002   18.3288   19.9250 H   0  0  0  0  0  0  0  0  0  0  0  0
   18.2989   18.5843   21.6585 H   0  0  0  0  0  0  0  0  0  0  0  0
   19.8035   17.1284   21.0613 C   0  0  0  0  0  0  0  0  0  0  0  0
   20.5206   16.9560   20.2482 H   0  0  0  0  0  0  0  0  0  0  0  0
   19.1248   16.2663   21.0972 H   0  0  0  0  0  0  0  0  0  0  0  0
   20.3582   17.1524   22.0077 H   0  0  0  0  0  0  0  0  0  0  0  0
  1  2  1  0  0  0  0
  1  3  1  0  0  0  0
  1  4  1  0  0  0  0
  1  5  1  0  0  0  0
  5  6  1  0  0  0  0
  5  7  1  0  0  0  0
  5  8  1  0  0  0  0
  8  9  1  0  0  0  0
  8 10  1  0  0  0  0
  8 11  1  0  0  0  0
 11 12  1  0  0  0  0
 11 13  1  0  0  0  0
 11 14  1  0  0  0  0
 14 15  1  0  0  0  0
 14 16  1  0  0  0  0
 14 17  1  0  0  0  0
M  END
> <VConfSearch Rank>
803

> <Conf_Id>
1

> <Delta U+W>
0.685

> <U+W>
-15.179

> <U>
45.697

> <W>
-60.876

> <W(PB)>
-62.586

> <W(SA)>
1.710

> <Valence>
1.263

> <Coulomb>
44.179

> <VdW>
0.255

> <VdW6>
-3.552

> <VdW12>
3.807

> <Bond>
0.125

> <Angle>
0.616

> <Pdih>
0.521

> <Idih>
0.000

> <Tether>
0.000

$$$$
VeraChem MOL file


 17 16  0  0  0  0  0  0  0  0999 V2000     
   21.5327   18.5323   20.5432 N   0  3  0  0  0  0  0  0  0  0  0  0
   21.4973   18.9244   19.5975 H   0  0  0  0  0  0  0  0  0  0  0  0
   20.9156   17.7153   20.5554 H   0  0  0  0  0  0  0  0  0  0  0  0
   22.4874   18.1884   20.6873 H   0  0  0  0  0  0  0  0  0  0  0  0
   21.1358   19.5517   21.5935 C   0  0  0  0  0  0  0  0  0  0  0  0
   21.8556   20.3736   21.5485 H   0  0  0  0  0  0  0  0  0  0  0  0
   21.2235   19.0793   22.5753 H   0  0  0  0  0  0  0  0  0  0  0  0
   19.7098   20.1112   21.4109 C   0  0  0  0  0  0  0  0  0  0  0  0
   19.5353   20.8832   22.1720 H   0  0  0  0  0  0  0  0  0  0  0  0
   19.6436   20.6191   20.4396 H   0  0  0  0  0  0  0  0  0  0  0  0
   18.5954   19.0396   21.5076 C   0  0  0  0  0  0  0  0  0  0  0  0
   18.7027   18.3088   20.6946 H   0  0  0  0  0  0  0  0  0  0  0  0
   17.6223   19.5260   21.3516 H   0  0  0  0  0  0  0  0  0  0  0  0
   18.5775   18.3058   22.8682 C   0  0  0  0  0  0  0  0  0  0  0  0
   17.7344   17.6045   22.9163 H   0  0  0  0  0  0  0  0  0  0  0  0
   18.4699   19.0160   23.6982 H   0  0  0  0  0  0  0  0  0  0  0  0
   19.4971   17.7289   23.0281 H   0  0  0  0  0  0  0  0  0  0  0  0
  1  2  1  0  0  0  0
  1  3  1  0  0  0  0
  1  4  1  0  0  0  0
  1  5  1  0  0  0  0
  5  6  1  0  0  0  0
  5  7  1  0  0  0  0
  5  8  1  0  0  0  0
  8  9  1  0  0  0  0
  8 10  1  0  0  0  0
  8 11  1  0  0  0  0
 11 12  1  0  0  0  0
 11 13  1  0  0  0  0
 11 14  1  0  0  0  0
 14 15  1  0  0  0  0
 14 16  1  0  0  0  0
 14 17  1  0  0  0  0
M  END
> <VConfSearch Rank>
804

> <Conf_Id>
43

> <Delta U+W>
0.642

> <U+W>
-15.222

> <U>
45.697

> <W>
-60.919

> <W(PB)>
-62.631

> <W(SA)>
1.712

> <Valence>
1.262

> <Coulomb>
44.179

> <VdW>
0.255

> <VdW6>
-3.552

> <VdW12>
3.807

> <Bond>
0.125

> <Angle>
0.616

> <Pdih>
0.521

> <Idih>
0.000

> <Tether>
0.000

$$$$
VeraChem MOL file


 17 16  0  0  0  0  0  0  0  0999 V2000     
   20.6810   18.8566   19.1487 N   0  3  0  0  0  0  0  0  0  0  0  0
   20.3134   19.7570   18.8264 H   0  0  0  0  0  0  0  0  0  0  0  0
   20.0051   18.1388   18.8702 H   0  0  0  0  0  0  0  0  0  0  0  0
   21.5384   18.6788   18.6157 H   0  0  0  0  0  0  0  0  0  0  0  0
   20.9345   18.8487   20.6430 C   0  0  0  0  0  0  0  0  0  0  0  0
   21.6838   19.6142   20.8623 H   0  0  0  0  0  0  0  0  0  0  0  0
   21.3524   17.8741   20.9094 H   0  0  0  0  0  0  0  0  0  0  0  0
   19.6663   19.1128   21.4749 C   0  0  0  0  0  0  0  0  0  0  0  0
   19.2408   20.0854   21.1937 H   0  0  0  0  0  0  0  0  0  0  0  0
   18.9106   18.3512   21.2407 H   0  0  0  0  0  0  0  0  0  0  0  0
   19.9682   19.0963   22.9896 C   0  0  0  0  0  0  0  0  0  0  0  0
   20.7270   19.8563   23.2241 H   0  0  0  0  0  0  0  0  0  0  0  0
   20.3971   18.1242   23.2711 H   0  0  0  0  0  0  0  0  0  0  0  0
   18.7006   19.3606   23.8305 C   0  0  0  0  0  0  0  0  0  0  0  0
   18.9361   19.3449   24.9026 H   0  0  0  0  0  0  0  0  0  0  0  0
   17.9353   18.5961   23.6432 H   0  0  0  0  0  0  0  0  0  0  0  0
   18.2678   20.3418   23.5958 H   0  0  0  0  0  0  0  0  0  0  0  0
  1  2  1  0  0  0  0
  1  3  1  0  0  0  0
  1  4  1  0  0  0  0
  1  5  1  0  0  0  0
  5  6  1  0  0  0  0
  5  7  1  0  0  0  0
  5  8  1  0  0  0  0
  8  9  1  0  0  0  0
  8 10  1  0  0  0  0
  8 11  1  0  0  0  0
 11 12  1  0  0  0  0
 11 13  1  0  0  0  0
 11 14  1  0  0  0  0
 14 15  1  0  0  0  0
 14 16  1  0  0  0  0
 14 17  1  0  0  0  0
M  END
> <VConfSearch Rank>
805

> <Conf_Id>
7

> <Delta U+W>
0.000

> <U+W>
-15.865

> <U>
44.664

> <W>
-60.529

> <W(PB)>
-62.309

> <W(SA)>
1.780

> <Valence>
0.872

> <Coulomb>
43.648

> <VdW>
0.144

> <VdW6>
-2.370

> <VdW12>
2.515

> <Bond>
0.080

> <Angle>
0.376

> <Pdih>
0.416

> <Idih>
0.000

> <Tether>
0.000

$$$$
VeraChem MOL file


 17 16  0  0  0  0  0  0  0  0999 V2000     
   18.2568   17.5841   22.4843 N   0  3  0  0  0  0  0  0  0  0  0  0
   17.5579   17.4153   21.7544 H   0  0  0  0  0  0  0  0  0  0  0  0
   17.8319   18.2200   23.1660 H   0  0  0  0  0  0  0  0  0  0  0  0
   18.4051   16.6907   22.9647 H   0  0  0  0  0  0  0  0  0  0  0  0
   19.5476   18.1401   21.9169 C   0  0  0  0  0  0  0  0  0  0  0  0
   19.9585   17.4007   21.2242 H   0  0  0  0  0  0  0  0  0  0  0  0
   20.2519   18.2641   22.7436 H   0  0  0  0  0  0  0  0  0  0  0  0
   19.3604   19.4844   21.1876 C   0  0  0  0  0  0  0  0  0  0  0  0
   18.6215   19.3584   20.3850 H   0  0  0  0  0  0  0  0  0  0  0  0
   18.9461   20.2266   21.8829 H   0  0  0  0  0  0  0  0  0  0  0  0
   20.6771   20.0215   20.5796 C   0  0  0  0  0  0  0  0  0  0  0  0
   20.4600   20.9352   20.0086 H   0  0  0  0  0  0  0  0  0  0  0  0
   21.0758   19.2942   19.8583 H   0  0  0  0  0  0  0  0  0  0  0  0
   21.7507   20.3368   21.6463 C   0  0  0  0  0  0  0  0  0  0  0  0
   21.3750   21.0579   22.3839 H   0  0  0  0  0  0  0  0  0  0  0  0
   22.6430   20.7717   21.1775 H   0  0  0  0  0  0  0  0  0  0  0  0
   22.0660   19.4321   22.1811 H   0  0  0  0  0  0  0  0  0  0  0  0
  1  2  1  0  0  0  0
  1  3  1  0  0  0  0
  1  4  1  0  0  0  0
  1  5  1  0  0  0  0
  5  6  1  0  0  0  0
  5  7  1  0  0  0  0
  5  8  1  0  0  0  0
  8  9  1  0  0  0  0
  8 10  1  0  0  0  0
  8 11  1  0  0  0  0
 11 12  1  0  0  0  0
 11 13  1  0  0  0  0
 11 14  1  0  0  0  0
 14 15  1  0  0  0  0
 14 16  1  0  0  0  0
 14 17  1  0  0  0  0
M  END
> <VConfSearch Rank>
806

> <Conf_Id>
36

> <Delta U+W>
0.275

> <U+W>
-15.590

> <U>
45.174

> <W>
-60.765

> <W(PB)>
-62.518

> <W(SA)>
1.754

> <Valence>
1.161

> <Coulomb>
43.789

> <VdW>
0.224

> <VdW6>
-2.897

> <VdW12>
3.121

> <Bond>
0.100

> <Angle>
0.500

> <Pdih>
0.561

> <Idih>
0.000

> <Tether>
0.000

$$$$
VeraChem MOL file


 17 16  0  0  0  0  0  0  0  0999 V2000     
   20.1013   19.7141   19.8985 N   0  3  0  0  0  0  0  0  0  0  0  0
   19.2742   20.0767   20.3795 H   0  0  0  0  0  0  0  0  0  0  0  0
   19.7791   18.9898   19.2496 H   0  0  0  0  0  0  0  0  0  0  0  0
   20.4784   20.4778   19.3280 H   0  0  0  0  0  0  0  0  0  0  0  0
   21.1302   19.1784   20.8753 C   0  0  0  0  0  0  0  0  0  0  0  0
   21.4866   20.0061   21.4943 H   0  0  0  0  0  0  0  0  0  0  0  0
   21.9732   18.8122   20.2830 H   0  0  0  0  0  0  0  0  0  0  0  0
   20.6152   18.0363   21.7765 C   0  0  0  0  0  0  0  0  0  0  0  0
   20.0357   17.3194   21.1799 H   0  0  0  0  0  0  0  0  0  0  0  0
   21.4881   17.4831   22.1477 H   0  0  0  0  0  0  0  0  0  0  0  0
   19.7922   18.5067   23.0029 C   0  0  0  0  0  0  0  0  0  0  0  0
   20.4051   19.1738   23.6254 H   0  0  0  0  0  0  0  0  0  0  0  0
   19.5687   17.6297   23.6265 H   0  0  0  0  0  0  0  0  0  0  0  0
   18.4625   19.2104   22.6485 C   0  0  0  0  0  0  0  0  0  0  0  0
   18.6356   20.1986   22.2068 H   0  0  0  0  0  0  0  0  0  0  0  0
   17.8598   19.3629   23.5533 H   0  0  0  0  0  0  0  0  0  0  0  0
   17.8671   18.6087   21.9495 H   0  0  0  0  0  0  0  0  0  0  0  0
  1  2  1  0  0  0  0
  1  3  1  0  0  0  0
  1  4  1  0  0  0  0
  1  5  1  0  0  0  0
  5  6  1  0  0  0  0
  5  7  1  0  0  0  0
  5  8  1  0  0  0  0
  8  9  1  0  0  0  0
  8 10  1  0  0  0  0
  8 11  1  0  0  0  0
 11 12  1  0  0  0  0
 11 13  1  0  0  0  0
 11 14  1  0  0  0  0
 14 15  1  0  0  0  0
 14 16  1  0  0  0  0
 14 17  1  0  0  0  0
M  END
> <VConfSearch Rank>
807

> <Conf_Id>
19

> <Delta U+W>
2.662

> <U+W>
-13.203

> <U>
47.423

> <W>
-60.626

> <W(PB)>
-62.328

> <W(SA)>
1.702

> <Valence>
2.414

> <Coulomb>
44.831

> <VdW>
0.178

> <VdW6>
-3.743

> <VdW12>
3.921

> <Bond>
0.138

> <Angle>
0.941

> <Pdih>
1.335

> <Idih>
0.000

> <Tether>
0.000

$$$$
VeraChem MOL file


 17 16  0  0  0  0  0  0  0  0999 V2000     
   21.3608   19.6215   20.6256 N   0  3  0  0  0  0  0  0  0  0  0  0
   21.8861   20.4188   20.2524 H   0  0  0  0  0  0  0  0  0  0  0  0
   21.7426   18.7806   20.1823 H   0  0  0  0  0  0  0  0  0  0  0  0
   21.5754   19.5593   21.6240 H   0  0  0  0  0  0  0  0  0  0  0  0
   19.8711   19.7620   20.3783 C   0  0  0  0  0  0  0  0  0  0  0  0
   19.7307   19.8194   19.2955 H   0  0  0  0  0  0  0  0  0  0  0  0
   19.5336   20.7065   20.8133 H   0  0  0  0  0  0  0  0  0  0  0  0
   19.0233   18.5984   20.9343 C   0  0  0  0  0  0  0  0  0  0  0  0
   18.0671   18.5930   20.3943 H   0  0  0  0  0  0  0  0  0  0  0  0
   19.5049   17.6390   20.7034 H   0  0  0  0  0  0  0  0  0  0  0  0
   18.7141   18.6955   22.4501 C   0  0  0  0  0  0  0  0  0  0  0  0
   18.0238   17.8824   22.7151 H   0  0  0  0  0  0  0  0  0  0  0  0
   18.1759   19.6309   22.6583 H   0  0  0  0  0  0  0  0  0  0  0  0
   19.9576   18.6027   23.3632 C   0  0  0  0  0  0  0  0  0  0  0  0
   20.5697   17.7258   23.1152 H   0  0  0  0  0  0  0  0  0  0  0  0
   19.6523   18.5092   24.4135 H   0  0  0  0  0  0  0  0  0  0  0  0
   20.5801   19.5019   23.2879 H   0  0  0  0  0  0  0  0  0  0  0  0
  1  2  1  0  0  0  0
  1  3  1  0  0  0  0
  1  4  1  0  0  0  0
  1  5  1  0  0  0  0
  5  6  1  0  0  0  0
  5  7  1  0  0  0  0
  5  8  1  0  0  0  0
  8  9  1  0  0  0  0
  8 10  1  0  0  0  0
  8 11  1  0  0  0  0
 11 12  1  0  0  0  0
 11 13  1  0  0  0  0
 11 14  1  0  0  0  0
 14 15  1  0  0  0  0
 14 16  1  0  0  0  0
 14 17  1  0  0  0  0
M  END
> <VConfSearch Rank>
808

> <Conf_Id>
44

> <Delta U+W>
2.712

> <U+W>
-13.153

> <U>
47.423

> <W>
-60.576

> <W(PB)>
-62.262

> <W(SA)>
1.687

> <Valence>
2.414

> <Coulomb>
44.831

> <VdW>
0.178

> <VdW6>
-3.743

> <VdW12>
3.922

> <Bond>
0.138

> <Angle>
0.941

> <Pdih>
1.335

> <Idih>
0.000

> <Tether>
0.000

$$$$
VeraChem MOL file


 17 16  0  0  0  0  0  0  0  0999 V2000     
   20.0473   17.5847   20.2519 N   0  3  0  0  0  0  0  0  0  0  0  0
   20.7463   18.2898   20.0014 H   0  0  0  0  0  0  0  0  0  0  0  0
   19.2943   17.6455   19.5599 H   0  0  0  0  0  0  0  0  0  0  0  0
   20.4899   16.6682   20.1304 H   0  0  0  0  0  0  0  0  0  0  0  0
   19.5338   17.7801   21.6654 C   0  0  0  0  0  0  0  0  0  0  0  0
   20.3784   17.6740   22.3511 H   0  0  0  0  0  0  0  0  0  0  0  0
   18.8243   16.9752   21.8762 H   0  0  0  0  0  0  0  0  0  0  0  0
   18.8450   19.1412   21.8952 C   0  0  0  0  0  0  0  0  0  0  0  0
   17.9743   19.2212   21.2309 H   0  0  0  0  0  0  0  0  0  0  0  0
   18.4509   19.1669   22.9198 H   0  0  0  0  0  0  0  0  0  0  0  0
   19.7729   20.3619   21.6757 C   0  0  0  0  0  0  0  0  0  0  0  0
   19.1950   21.2810   21.8466 H   0  0  0  0  0  0  0  0  0  0  0  0
   20.1030   20.4019   20.6287 H   0  0  0  0  0  0  0  0  0  0  0  0
   21.0044   20.3621   22.6101 C   0  0  0  0  0  0  0  0  0  0  0  0
   20.7000   20.3236   23.6641 H   0  0  0  0  0  0  0  0  0  0  0  0
   21.5969   21.2750   22.4661 H   0  0  0  0  0  0  0  0  0  0  0  0
   21.6620   19.5064   22.4120 H   0  0  0  0  0  0  0  0  0  0  0  0
  1  2  1  0  0  0  0
  1  3  1  0  0  0  0
  1  4  1  0  0  0  0
  1  5  1  0  0  0  0
  5  6  1  0  0  0  0
  5  7  1  0  0  0  0
  5  8  1  0  0  0  0
  8  9  1  0  0  0  0
  8 10  1  0  0  0  0
  8 11  1  0  0  0  0
 11 12  1  0  0  0  0
 11 13  1  0  0  0  0
 11 14  1  0  0  0  0
 14 15  1  0  0  0  0
 14 16  1  0  0  0  0
 14 17  1  0  0  0  0
M  END
> <VConfSearch Rank>
809

> <Conf_Id>
1

> <Delta U+W>
0.685

> <U+W>
-15.179

> <U>
45.697

> <W>
-60.876

> <W(PB)>
-62.586

> <W(SA)>
1.710

> <Valence>
1.263

> <Coulomb>
44.179

> <VdW>
0.255

> <VdW6>
-3.552

> <VdW12>
3.807

> <Bond>
0.125

> <Angle>
0.616

> <Pdih>
0.521

> <Idih>
0.000

> <Tether>
0.000

$$$$
VeraChem MOL file


 17 16  0  0  0  0  0  0  0  0999 V2000     
   19.2042   17.8362   23.0135 N   0  3  0  0  0  0  0  0  0  0  0  0
   19.9545   17.3548   23.5181 H   0  0  0  0  0  0  0  0  0  0  0  0
   19.0816   17.3521   22.1195 H   0  0  0  0  0  0  0  0  0  0  0  0
   18.3438   17.6928   23.5518 H   0  0  0  0  0  0  0  0  0  0  0  0
   19.5082   19.3090   22.8178 C   0  0  0  0  0  0  0  0  0  0  0  0
   19.5885   19.7668   23.8075 H   0  0  0  0  0  0  0  0  0  0  0  0
   18.6590   19.7653   22.3025 H   0  0  0  0  0  0  0  0  0  0  0  0
   20.8037   19.5774   22.0243 C   0  0  0  0  0  0  0  0  0  0  0  0
   20.9754   20.6614   21.9886 H   0  0  0  0  0  0  0  0  0  0  0  0
   21.6556   19.1508   22.5702 H   0  0  0  0  0  0  0  0  0  0  0  0
   20.7857   19.0167   20.5804 C   0  0  0  0  0  0  0  0  0  0  0  0
   20.7066   17.9213   20.6016 H   0  0  0  0  0  0  0  0  0  0  0  0
   21.7489   19.2419   20.1014 H   0  0  0  0  0  0  0  0  0  0  0  0
   19.6460   19.6044   19.7168 C   0  0  0  0  0  0  0  0  0  0  0  0
   19.7112   19.2302   18.6869 H   0  0  0  0  0  0  0  0  0  0  0  0
   19.7042   20.6999   19.6792 H   0  0  0  0  0  0  0  0  0  0  0  0
   18.6590   19.3271   20.1076 H   0  0  0  0  0  0  0  0  0  0  0  0
  1  2  1  0  0  0  0
  1  3  1  0  0  0  0
  1  4  1  0  0  0  0
  1  5  1  0  0  0  0
  5  6  1  0  0  0  0
  5  7  1  0  0  0  0
  5  8  1  0  0  0  0
  8  9  1  0  0  0  0
  8 10  1  0  0  0  0
  8 11  1  0  0  0  0
 11 12  1  0  0  0  0
 11 13  1  0  0  0  0
 11 14  1  0  0  0  0
 14 15  1  0  0  0  0
 14 16  1  0  0  0  0
 14 17  1  0  0  0  0
M  END
> <VConfSearch Rank>
810

> <Conf_Id>
43

> <Delta U+W>
0.642

> <U+W>
-15.222

> <U>
45.697

> <W>
-60.919

> <W(PB)>
-62.631

> <W(SA)>
1.712

> <Valence>
1.262

> <Coulomb>
44.179

> <VdW>
0.255

> <VdW6>
-3.552

> <VdW12>
3.807

> <Bond>
0.125

> <Angle>
0.616

> <Pdih>
0.521

> <Idih>
0.000

> <Tether>
0.000

$$$$
VeraChem MOL file


 17 16  0  0  0  0  0  0  0  0999 V2000     
   20.5978   21.5096   21.1773 N   0  3  0  0  0  0  0  0  0  0  0  0
   19.6746   21.8387   20.8788 H   0  0  0  0  0  0  0  0  0  0  0  0
   21.1513   21.3564   20.3288 H   0  0  0  0  0  0  0  0  0  0  0  0
   21.0393   22.2845   21.6829 H   0  0  0  0  0  0  0  0  0  0  0  0
   20.5070   20.2596   22.0297 C   0  0  0  0  0  0  0  0  0  0  0  0
   19.9324   20.5041   22.9272 H   0  0  0  0  0  0  0  0  0  0  0  0
   21.5203   19.9854   22.3358 H   0  0  0  0  0  0  0  0  0  0  0  0
   19.8483   19.0745   21.3004 C   0  0  0  0  0  0  0  0  0  0  0  0
   18.8368   19.3587   20.9809 H   0  0  0  0  0  0  0  0  0  0  0  0
   20.4193   18.8418   20.3916 H   0  0  0  0  0  0  0  0  0  0  0  0
   19.7756   17.8232   22.2028 C   0  0  0  0  0  0  0  0  0  0  0  0
   19.2070   18.0564   23.1142 H   0  0  0  0  0  0  0  0  0  0  0  0
   20.7875   17.5401   22.5256 H   0  0  0  0  0  0  0  0  0  0  0  0
   19.1159   16.6302   21.4779 C   0  0  0  0  0  0  0  0  0  0  0  0
   19.0738   15.7520   22.1353 H   0  0  0  0  0  0  0  0  0  0  0  0
   19.6822   16.3510   20.5798 H   0  0  0  0  0  0  0  0  0  0  0  0
   18.0892   16.8715   21.1730 H   0  0  0  0  0  0  0  0  0  0  0  0
  1  2  1  0  0  0  0
  1  3  1  0  0  0  0
  1  4  1  0  0  0  0
  1  5  1  0  0  0  0
  5  6  1  0  0  0  0
  5  7  1  0  0  0  0
  5  8  1  0  0  0  0
  8  9  1  0  0  0  0
  8 10  1  0  0  0  0
  8 11  1  0  0  0  0
 11 12  1  0  0  0  0
 11 13  1  0  0  0  0
 11 14  1  0  0  0  0
 14 15  1  0  0  0  0
 14 16  1  0  0  0  0
 14 17  1  0  0  0  0
M  END
> <VConfSearch Rank>
811

> <Conf_Id>
7

> <Delta U+W>
0.000

> <U+W>
-15.865

> <U>
44.664

> <W>
-60.529

> <W(PB)>
-62.309

> <W(SA)>
1.780

> <Valence>
0.872

> <Coulomb>
43.648

> <VdW>
0.144

> <VdW6>
-2.370

> <VdW12>
2.515

> <Bond>
0.080

> <Angle>
0.376

> <Pdih>
0.416

> <Idih>
0.000

> <Tether>
0.000

$$$$
VeraChem MOL file


 17 16  0  0  0  0  0  0  0  0999 V2000     
   19.2561   20.9249   20.1951 N   0  3  0  0  0  0  0  0  0  0  0  0
   19.8108   21.7514   20.4377 H   0  0  0  0  0  0  0  0  0  0  0  0
   18.3187   21.0673   20.5833 H   0  0  0  0  0  0  0  0  0  0  0  0
   19.1573   20.9234   19.1748 H   0  0  0  0  0  0  0  0  0  0  0  0
   19.8919   19.6456   20.7017 C   0  0  0  0  0  0  0  0  0  0  0  0
   20.8710   19.5435   20.2260 H   0  0  0  0  0  0  0  0  0  0  0  0
   19.2656   18.8093   20.3806 H   0  0  0  0  0  0  0  0  0  0  0  0
   20.0551   19.6145   22.2335 C   0  0  0  0  0  0  0  0  0  0  0  0
   20.6518   20.4805   22.5495 H   0  0  0  0  0  0  0  0  0  0  0  0
   19.0719   19.7188   22.7113 H   0  0  0  0  0  0  0  0  0  0  0  0
   20.7404   18.3216   22.7342 C   0  0  0  0  0  0  0  0  0  0  0  0
   20.8983   18.3984   23.8191 H   0  0  0  0  0  0  0  0  0  0  0  0
   21.7385   18.2327   22.2824 H   0  0  0  0  0  0  0  0  0  0  0  0
   19.9190   17.0469   22.4334 C   0  0  0  0  0  0  0  0  0  0  0  0
   18.9136   17.1127   22.8693 H   0  0  0  0  0  0  0  0  0  0  0  0
   20.4110   16.1626   22.8588 H   0  0  0  0  0  0  0  0  0  0  0  0
   19.8143   16.8798   21.3539 H   0  0  0  0  0  0  0  0  0  0  0  0
  1  2  1  0  0  0  0
  1  3  1  0  0  0  0
  1  4  1  0  0  0  0
  1  5  1  0  0  0  0
  5  6  1  0  0  0  0
  5  7  1  0  0  0  0
  5  8  1  0  0  0  0
  8  9  1  0  0  0  0
  8 10  1  0  0  0  0
  8 11  1  0  0  0  0
 11 12  1  0  0  0  0
 11 13  1  0  0  0  0
 11 14  1  0  0  0  0
 14 15  1  0  0  0  0
 14 16  1  0  0  0  0
 14 17  1  0  0  0  0
M  END
> <VConfSearch Rank>
812

> <Conf_Id>
36

> <Delta U+W>
0.275

> <U+W>
-15.590

> <U>
45.174

> <W>
-60.765

> <W(PB)>
-62.518

> <W(SA)>
1.754

> <Valence>
1.161

> <Coulomb>
43.789

> <VdW>
0.224

> <VdW6>
-2.897

> <VdW12>
3.121

> <Bond>
0.100

> <Angle>
0.500

> <Pdih>
0.561

> <Idih>
0.000

> <Tether>
0.000

$$$$
VeraChem MOL file


 17 16  0  0  0  0  0  0  0  0999 V2000     
   20.1788   19.1122   23.4404 N   0  3  0  0  0  0  0  0  0  0  0  0
   19.1860   19.0612   23.1982 H   0  0  0  0  0  0  0  0  0  0  0  0
   20.3920   20.0957   23.6318 H   0  0  0  0  0  0  0  0  0  0  0  0
   20.3014   18.6043   24.3224 H   0  0  0  0  0  0  0  0  0  0  0  0
   21.0560   18.5494   22.3387 C   0  0  0  0  0  0  0  0  0  0  0  0
   20.8330   17.4851   22.2256 H   0  0  0  0  0  0  0  0  0  0  0  0
   22.0920   18.6436   22.6754 H   0  0  0  0  0  0  0  0  0  0  0  0
   20.9025   19.2627   20.9788 C   0  0  0  0  0  0  0  0  0  0  0  0
   20.8789   20.3506   21.1259 H   0  0  0  0  0  0  0  0  0  0  0  0
   21.8062   19.0581   20.3895 H   0  0  0  0  0  0  0  0  0  0  0  0
   19.6773   18.8043   20.1473 C   0  0  0  0  0  0  0  0  0  0  0  0
   19.7455   17.7247   19.9531 H   0  0  0  0  0  0  0  0  0  0  0  0
   19.7240   19.2933   19.1640 H   0  0  0  0  0  0  0  0  0  0  0  0
   18.3103   19.1263   20.7926 C   0  0  0  0  0  0  0  0  0  0  0  0
   18.1246   18.5019   21.6743 H   0  0  0  0  0  0  0  0  0  0  0  0
   17.4978   18.9291   20.0812 H   0  0  0  0  0  0  0  0  0  0  0  0
   18.2469   20.1822   21.0861 H   0  0  0  0  0  0  0  0  0  0  0  0
  1  2  1  0  0  0  0
  1  3  1  0  0  0  0
  1  4  1  0  0  0  0
  1  5  1  0  0  0  0
  5  6  1  0  0  0  0
  5  7  1  0  0  0  0
  5  8  1  0  0  0  0
  8  9  1  0  0  0  0
  8 10  1  0  0  0  0
  8 11  1  0  0  0  0
 11 12  1  0  0  0  0
 11 13  1  0  0  0  0
 11 14  1  0  0  0  0
 14 15  1  0  0  0  0
 14 16  1  0  0  0  0
 14 17  1  0  0  0  0
M  END
> <VConfSearch Rank>
813

> <Conf_Id>
19

> <Delta U+W>
2.662

> <U+W>
-13.203

> <U>
47.423

> <W>
-60.626

> <W(PB)>
-62.328

> <W(SA)>
1.702

> <Valence>
2.414

> <Coulomb>
44.831

> <VdW>
0.178

> <VdW6>
-3.743

> <VdW12>
3.921

> <Bond>
0.138

> <Angle>
0.941

> <Pdih>
1.335

> <Idih>
0.000

> <Tether>
0.000

$$$$
VeraChem MOL file


 17 16  0  0  0  0  0  0  0  0999 V2000     
   19.0647   19.1808   19.9345 N   0  3  0  0  0  0  0  0  0  0  0  0
   18.2513   19.5076   19.4031 H   0  0  0  0  0  0  0  0  0  0  0  0
   19.5957   18.5621   19.3142 H   0  0  0  0  0  0  0  0  0  0  0  0
   19.6524   19.9977   20.1197 H   0  0  0  0  0  0  0  0  0  0  0  0
   18.6570   18.4794   21.2158 C   0  0  0  0  0  0  0  0  0  0  0  0
   18.0383   17.6245   20.9294 H   0  0  0  0  0  0  0  0  0  0  0  0
   18.0382   19.1619   21.8045 H   0  0  0  0  0  0  0  0  0  0  0  0
   19.8411   17.9794   22.0698 C   0  0  0  0  0  0  0  0  0  0  0  0
   19.4655   17.1885   22.7326 H   0  0  0  0  0  0  0  0  0  0  0  0
   20.5926   17.5020   21.4271 H   0  0  0  0  0  0  0  0  0  0  0  0
   20.5011   19.0684   22.9537 C   0  0  0  0  0  0  0  0  0  0  0  0
   21.2548   18.5861   23.5919 H   0  0  0  0  0  0  0  0  0  0  0  0
   19.7523   19.4940   23.6365 H   0  0  0  0  0  0  0  0  0  0  0  0
   21.1826   20.2075   22.1620 C   0  0  0  0  0  0  0  0  0  0  0  0
   21.8692   19.8102   21.4031 H   0  0  0  0  0  0  0  0  0  0  0  0
   21.7670   20.8444   22.8388 H   0  0  0  0  0  0  0  0  0  0  0  0
   20.4454   20.8524   21.6698 H   0  0  0  0  0  0  0  0  0  0  0  0
  1  2  1  0  0  0  0
  1  3  1  0  0  0  0
  1  4  1  0  0  0  0
  1  5  1  0  0  0  0
  5  6  1  0  0  0  0
  5  7  1  0  0  0  0
  5  8  1  0  0  0  0
  8  9  1  0  0  0  0
  8 10  1  0  0  0  0
  8 11  1  0  0  0  0
 11 12  1  0  0  0  0
 11 13  1  0  0  0  0
 11 14  1  0  0  0  0
 14 15  1  0  0  0  0
 14 16  1  0  0  0  0
 14 17  1  0  0  0  0
M  END
> <VConfSearch Rank>
814

> <Conf_Id>
44

> <Delta U+W>
2.712

> <U+W>
-13.153

> <U>
47.423

> <W>
-60.576

> <W(PB)>
-62.262

> <W(SA)>
1.687

> <Valence>
2.414

> <Coulomb>
44.831

> <VdW>
0.178

> <VdW6>
-3.743

> <VdW12>
3.922

> <Bond>
0.138

> <Angle>
0.941

> <Pdih>
1.335

> <Idih>
0.000

> <Tether>
0.000

$$$$
VeraChem MOL file


 17 16  0  0  0  0  0  0  0  0999 V2000     
   18.4919   18.4472   20.3501 N   0  3  0  0  0  0  0  0  0  0  0  0
   18.1523   19.2934   20.8160 H   0  0  0  0  0  0  0  0  0  0  0  0
   17.9618   17.6580   20.7314 H   0  0  0  0  0  0  0  0  0  0  0  0
   18.2362   18.5273   19.3607 H   0  0  0  0  0  0  0  0  0  0  0  0
   19.9864   18.2663   20.5336 C   0  0  0  0  0  0  0  0  0  0  0  0
   20.4903   19.1241   20.0808 H   0  0  0  0  0  0  0  0  0  0  0  0
   20.2835   17.3702   19.9819 H   0  0  0  0  0  0  0  0  0  0  0  0
   20.4205   18.1262   22.0073 C   0  0  0  0  0  0  0  0  0  0  0  0
   19.9410   17.2388   22.4414 H   0  0  0  0  0  0  0  0  0  0  0  0
   21.5015   17.9355   22.0384 H   0  0  0  0  0  0  0  0  0  0  0  0
   20.0964   19.3643   22.8799 C   0  0  0  0  0  0  0  0  0  0  0  0
   20.4266   19.1676   23.9096 H   0  0  0  0  0  0  0  0  0  0  0  0
   19.0095   19.5143   22.9338 H   0  0  0  0  0  0  0  0  0  0  0  0
   20.7759   20.6570   22.3730 C   0  0  0  0  0  0  0  0  0  0  0  0
   21.8648   20.5324   22.3114 H   0  0  0  0  0  0  0  0  0  0  0  0
   20.5727   21.4920   23.0559 H   0  0  0  0  0  0  0  0  0  0  0  0
   20.4074   20.9444   21.3802 H   0  0  0  0  0  0  0  0  0  0  0  0
  1  2  1  0  0  0  0
  1  3  1  0  0  0  0
  1  4  1  0  0  0  0
  1  5  1  0  0  0  0
  5  6  1  0  0  0  0
  5  7  1  0  0  0  0
  5  8  1  0  0  0  0
  8  9  1  0  0  0  0
  8 10  1  0  0  0  0
  8 11  1  0  0  0  0
 11 12  1  0  0  0  0
 11 13  1  0  0  0  0
 11 14  1  0  0  0  0
 14 15  1  0  0  0  0
 14 16  1  0  0  0  0
 14 17  1  0  0  0  0
M  END
> <VConfSearch Rank>
815

> <Conf_Id>
1

> <Delta U+W>
0.685

> <U+W>
-15.179

> <U>
45.697

> <W>
-60.876

> <W(PB)>
-62.586

> <W(SA)>
1.710

> <Valence>
1.263

> <Coulomb>
44.179

> <VdW>
0.255

> <VdW6>
-3.552

> <VdW12>
3.807

> <Bond>
0.125

> <Angle>
0.616

> <Pdih>
0.521

> <Idih>
0.000

> <Tether>
0.000

$$$$
VeraChem MOL file


 17 16  0  0  0  0  0  0  0  0999 V2000     
   18.9664   18.0906   20.1354 N   0  3  0  0  0  0  0  0  0  0  0  0
   17.9736   17.9666   20.3552 H   0  0  0  0  0  0  0  0  0  0  0  0
   19.4838   17.3801   20.6607 H   0  0  0  0  0  0  0  0  0  0  0  0
   19.0808   17.8699   19.1409 H   0  0  0  0  0  0  0  0  0  0  0  0
   19.4474   19.4914   20.4612 C   0  0  0  0  0  0  0  0  0  0  0  0
   18.8808   20.1908   19.8405 H   0  0  0  0  0  0  0  0  0  0  0  0
   20.5003   19.5636   20.1764 H   0  0  0  0  0  0  0  0  0  0  0  0
   19.2824   19.8769   21.9458 C   0  0  0  0  0  0  0  0  0  0  0  0
   19.5942   20.9220   22.0741 H   0  0  0  0  0  0  0  0  0  0  0  0
   18.2176   19.8410   22.2113 H   0  0  0  0  0  0  0  0  0  0  0  0
   20.0861   18.9823   22.9221 C   0  0  0  0  0  0  0  0  0  0  0  0
   19.7222   17.9470   22.8721 H   0  0  0  0  0  0  0  0  0  0  0  0
   19.8961   19.3210   23.9503 H   0  0  0  0  0  0  0  0  0  0  0  0
   21.6088   19.0122   22.6569 C   0  0  0  0  0  0  0  0  0  0  0  0
   22.1426   18.4184   23.4102 H   0  0  0  0  0  0  0  0  0  0  0  0
   21.9972   20.0380   22.7027 H   0  0  0  0  0  0  0  0  0  0  0  0
   21.8555   18.5962   21.6720 H   0  0  0  0  0  0  0  0  0  0  0  0
  1  2  1  0  0  0  0
  1  3  1  0  0  0  0
  1  4  1  0  0  0  0
  1  5  1  0  0  0  0
  5  6  1  0  0  0  0
  5  7  1  0  0  0  0
  5  8  1  0  0  0  0
  8  9  1  0  0  0  0
  8 10  1  0  0  0  0
  8 11  1  0  0  0  0
 11 12  1  0  0  0  0
 11 13  1  0  0  0  0
 11 14  1  0  0  0  0
 14 15  1  0  0  0  0
 14 16  1  0  0  0  0
 14 17  1  0  0  0  0
M  END
> <VConfSearch Rank>
816

> <Conf_Id>
43

> <Delta U+W>
0.642

> <U+W>
-15.222

> <U>
45.697

> <W>
-60.919

> <W(PB)>
-62.631

> <W(SA)>
1.712

> <Valence>
1.262

> <Coulomb>
44.179

> <VdW>
0.255

> <VdW6>
-3.552

> <VdW12>
3.807

> <Bond>
0.125

> <Angle>
0.616

> <Pdih>
0.521

> <Idih>
0.000

> <Tether>
0.000

$$$$
VeraChem MOL file


 17 16  0  0  0  0  0  0  0  0999 V2000     
   19.0764   16.8351   20.6757 N   0  3  0  0  0  0  0  0  0  0  0  0
   18.1425   17.1621   20.4099 H   0  0  0  0  0  0  0  0  0  0  0  0
   18.9806   16.3471   21.5714 H   0  0  0  0  0  0  0  0  0  0  0  0
   19.3522   16.1315   19.9830 H   0  0  0  0  0  0  0  0  0  0  0  0
   20.0757   17.9722   20.7524 C   0  0  0  0  0  0  0  0  0  0  0  0
   20.1492   18.4246   19.7597 H   0  0  0  0  0  0  0  0  0  0  0  0
   21.0504   17.5483   21.0087 H   0  0  0  0  0  0  0  0  0  0  0  0
   19.6921   19.0484   21.7844 C   0  0  0  0  0  0  0  0  0  0  0  0
   18.7059   19.4608   21.5327 H   0  0  0  0  0  0  0  0  0  0  0  0
   19.6042   18.5876   22.7773 H   0  0  0  0  0  0  0  0  0  0  0  0
   20.7349   20.1868   21.8305 C   0  0  0  0  0  0  0  0  0  0  0  0
   20.8257   20.6463   20.8361 H   0  0  0  0  0  0  0  0  0  0  0  0
   21.7229   19.7741   22.0793 H   0  0  0  0  0  0  0  0  0  0  0  0
   20.3567   21.2702   22.8636 C   0  0  0  0  0  0  0  0  0  0  0  0
   21.1093   22.0692   22.8809 H   0  0  0  0  0  0  0  0  0  0  0  0
   20.2921   20.8472   23.8745 H   0  0  0  0  0  0  0  0  0  0  0  0
   19.3878   21.7262   22.6216 H   0  0  0  0  0  0  0  0  0  0  0  0
  1  2  1  0  0  0  0
  1  3  1  0  0  0  0
  1  4  1  0  0  0  0
  1  5  1  0  0  0  0
  5  6  1  0  0  0  0
  5  7  1  0  0  0  0
  5  8  1  0  0  0  0
  8  9  1  0  0  0  0
  8 10  1  0  0  0  0
  8 11  1  0  0  0  0
 11 12  1  0  0  0  0
 11 13  1  0  0  0  0
 11 14  1  0  0  0  0
 14 15  1  0  0  0  0
 14 16  1  0  0  0  0
 14 17  1  0  0  0  0
M  END
> <VConfSearch Rank>
817

> <Conf_Id>
7

> <Delta U+W>
0.000

> <U+W>
-15.865

> <U>
44.664

> <W>
-60.529

> <W(PB)>
-62.309

> <W(SA)>
1.780

> <Valence>
0.872

> <Coulomb>
43.648

> <VdW>
0.144

> <VdW6>
-2.370

> <VdW12>
2.515

> <Bond>
0.080

> <Angle>
0.376

> <Pdih>
0.416

> <Idih>
0.000

> <Tether>
0.000

$$$$
VeraChem MOL file


 17 16  0  0  0  0  0  0  0  0999 V2000     
   19.1301   17.2111   22.8997 N   0  3  0  0  0  0  0  0  0  0  0  0
   18.9952   16.4175   22.2659 H   0  0  0  0  0  0  0  0  0  0  0  0
   18.2003   17.5781   23.1241 H   0  0  0  0  0  0  0  0  0  0  0  0
   19.5173   16.8326   23.7701 H   0  0  0  0  0  0  0  0  0  0  0  0
   20.0291   18.2724   22.2973 C   0  0  0  0  0  0  0  0  0  0  0  0
   21.0077   17.8211   22.1124 H   0  0  0  0  0  0  0  0  0  0  0  0
   20.1524   19.0675   23.0372 H   0  0  0  0  0  0  0  0  0  0  0  0
   19.4759   18.8635   20.9864 C   0  0  0  0  0  0  0  0  0  0  0  0
   19.3180   18.0516   20.2640 H   0  0  0  0  0  0  0  0  0  0  0  0
   18.4923   19.3152   21.1718 H   0  0  0  0  0  0  0  0  0  0  0  0
   20.4207   19.9165   20.3615 C   0  0  0  0  0  0  0  0  0  0  0  0
   20.0083   20.2369   19.3944 H   0  0  0  0  0  0  0  0  0  0  0  0
   21.3954   19.4571   20.1445 H   0  0  0  0  0  0  0  0  0  0  0  0
   20.6206   21.1582   21.2605 C   0  0  0  0  0  0  0  0  0  0  0  0
   19.6597   21.6332   21.4975 H   0  0  0  0  0  0  0  0  0  0  0  0
   21.2464   21.9039   20.7533 H   0  0  0  0  0  0  0  0  0  0  0  0
   21.1161   20.8974   22.2042 H   0  0  0  0  0  0  0  0  0  0  0  0
  1  2  1  0  0  0  0
  1  3  1  0  0  0  0
  1  4  1  0  0  0  0
  1  5  1  0  0  0  0
  5  6  1  0  0  0  0
  5  7  1  0  0  0  0
  5  8  1  0  0  0  0
  8  9  1  0  0  0  0
  8 10  1  0  0  0  0
  8 11  1  0  0  0  0
 11 12  1  0  0  0  0
 11 13  1  0  0  0  0
 11 14  1  0  0  0  0
 14 15  1  0  0  0  0
 14 16  1  0  0  0  0
 14 17  1  0  0  0  0
M  END
> <VConfSearch Rank>
818

> <Conf_Id>
36

> <Delta U+W>
0.275

> <U+W>
-15.590

> <U>
45.174

> <W>
-60.765

> <W(PB)>
-62.518

> <W(SA)>
1.754

> <Valence>
1.161

> <Coulomb>
43.789

> <VdW>
0.224

> <VdW6>
-2.897

> <VdW12>
3.121

> <Bond>
0.100

> <Angle>
0.500

> <Pdih>
0.561

> <Idih>
0.000

> <Tether>
0.000

$$$$
VeraChem MOL file


 17 16  0  0  0  0  0  0  0  0999 V2000     
   19.0668   18.0852   20.2298 N   0  3  0  0  0  0  0  0  0  0  0  0
   19.0192   19.0985   20.0970 H   0  0  0  0  0  0  0  0  0  0  0  0
   18.1647   17.7890   20.6144 H   0  0  0  0  0  0  0  0  0  0  0  0
   19.1469   17.6616   19.2998 H   0  0  0  0  0  0  0  0  0  0  0  0
   20.2207   17.6899   21.1311 C   0  0  0  0  0  0  0  0  0  0  0  0
   21.1570   17.9687   20.6404 H   0  0  0  0  0  0  0  0  0  0  0  0
   20.1977   16.6004   21.2209 H   0  0  0  0  0  0  0  0  0  0  0  0
   20.1653   18.3119   22.5424 C   0  0  0  0  0  0  0  0  0  0  0  0
   19.1439   18.2493   22.9406 H   0  0  0  0  0  0  0  0  0  0  0  0
   20.7853   17.6939   23.2053 H   0  0  0  0  0  0  0  0  0  0  0  0
   20.6872   19.7692   22.6235 C   0  0  0  0  0  0  0  0  0  0  0  0
   21.7311   19.8074   22.2816 H   0  0  0  0  0  0  0  0  0  0  0  0
   20.7022   20.0731   23.6796 H   0  0  0  0  0  0  0  0  0  0  0  0
   19.8469   20.7941   21.8283 C   0  0  0  0  0  0  0  0  0  0  0  0
   19.9674   20.6607   20.7469 H   0  0  0  0  0  0  0  0  0  0  0  0
   20.1701   21.8163   22.0647 H   0  0  0  0  0  0  0  0  0  0  0  0
   18.7810   20.7157   22.0788 H   0  0  0  0  0  0  0  0  0  0  0  0
  1  2  1  0  0  0  0
  1  3  1  0  0  0  0
  1  4  1  0  0  0  0
  1  5  1  0  0  0  0
  5  6  1  0  0  0  0
  5  7  1  0  0  0  0
  5  8  1  0  0  0  0
  8  9  1  0  0  0  0
  8 10  1  0  0  0  0
  8 11  1  0  0  0  0
 11 12  1  0  0  0  0
 11 13  1  0  0  0  0
 11 14  1  0  0  0  0
 14 15  1  0  0  0  0
 14 16  1  0  0  0  0
 14 17  1  0  0  0  0
M  END
> <VConfSearch Rank>
819

> <Conf_Id>
19

> <Delta U+W>
2.662

> <U+W>
-13.203

> <U>
47.423

> <W>
-60.626

> <W(PB)>
-62.328

> <W(SA)>
1.702

> <Valence>
2.414

> <Coulomb>
44.831

> <VdW>
0.178

> <VdW6>
-3.743

> <VdW12>
3.921

> <Bond>
0.138

> <Angle>
0.941

> <Pdih>
1.335

> <Idih>
0.000

> <Tether>
0.000

$$$$
VeraChem MOL file


 17 16  0  0  0  0  0  0  0  0999 V2000     
   20.2310   17.9899   23.0781 N   0  3  0  0  0  0  0  0  0  0  0  0
   19.8495   17.3341   23.7675 H   0  0  0  0  0  0  0  0  0  0  0  0
   21.1640   18.2568   23.4066 H   0  0  0  0  0  0  0  0  0  0  0  0
   20.3563   17.4713   22.2051 H   0  0  0  0  0  0  0  0  0  0  0  0
   19.3328   19.1974   22.8909 C   0  0  0  0  0  0  0  0  0  0  0  0
   19.2544   19.6915   23.8632 H   0  0  0  0  0  0  0  0  0  0  0  0
   18.3359   18.8492   22.6077 H   0  0  0  0  0  0  0  0  0  0  0  0
   19.8460   20.2146   21.8500 C   0  0  0  0  0  0  0  0  0  0  0  0
   19.3661   21.1798   22.0601 H   0  0  0  0  0  0  0  0  0  0  0  0
   20.9234   20.3785   21.9845 H   0  0  0  0  0  0  0  0  0  0  0  0
   19.5373   19.8393   20.3781 C   0  0  0  0  0  0  0  0  0  0  0  0
   19.8492   20.6745   19.7353 H   0  0  0  0  0  0  0  0  0  0  0  0
   18.4512   19.7404   20.2419 H   0  0  0  0  0  0  0  0  0  0  0  0
   20.2374   18.5519   19.8866 C   0  0  0  0  0  0  0  0  0  0  0  0
   21.3147   18.5794   20.0955 H   0  0  0  0  0  0  0  0  0  0  0  0
   20.1114   18.4408   18.8018 H   0  0  0  0  0  0  0  0  0  0  0  0
   19.8087   17.6575   20.3536 H   0  0  0  0  0  0  0  0  0  0  0  0
  1  2  1  0  0  0  0
  1  3  1  0  0  0  0
  1  4  1  0  0  0  0
  1  5  1  0  0  0  0
  5  6  1  0  0  0  0
  5  7  1  0  0  0  0
  5  8  1  0  0  0  0
  8  9  1  0  0  0  0
  8 10  1  0  0  0  0
  8 11  1  0  0  0  0
 11 12  1  0  0  0  0
 11 13  1  0  0  0  0
 11 14  1  0  0  0  0
 14 15  1  0  0  0  0
 14 16  1  0  0  0  0
 14 17  1  0  0  0  0
M  END
> <VConfSearch Rank>
820

> <Conf_Id>
44

> <Delta U+W>
2.712

> <U+W>
-13.153

> <U>
47.423

> <W>
-60.576

> <W(PB)>
-62.262

> <W(SA)>
1.687

> <Valence>
2.414

> <Coulomb>
44.831

> <VdW>
0.178

> <VdW6>
-3.743

> <VdW12>
3.922

> <Bond>
0.138

> <Angle>
0.941

> <Pdih>
1.335

> <Idih>
0.000

> <Tether>
0.000

$$$$
VeraChem MOL file


 17 16  0  0  0  0  0  0  0  0999 V2000     
   19.7908   19.3249   19.6376 N   0  3  0  0  0  0  0  0  0  0  0  0
   20.6174   19.8343   19.9628 H   0  0  0  0  0  0  0  0  0  0  0  0
   19.0774   20.0223   19.4051 H   0  0  0  0  0  0  0  0  0  0  0  0
   20.0506   18.8613   18.7612 H   0  0  0  0  0  0  0  0  0  0  0  0
   19.2970   18.3347   20.6747 C   0  0  0  0  0  0  0  0  0  0  0  0
   20.0918   17.6058   20.8535 H   0  0  0  0  0  0  0  0  0  0  0  0
   18.4417   17.8040   20.2477 H   0  0  0  0  0  0  0  0  0  0  0  0
   18.8793   18.9866   22.0090 C   0  0  0  0  0  0  0  0  0  0  0  0
   18.0536   19.6867   21.8251 H   0  0  0  0  0  0  0  0  0  0  0  0
   18.4777   18.2073   22.6701 H   0  0  0  0  0  0  0  0  0  0  0  0
   20.0294   19.7277   22.7354 C   0  0  0  0  0  0  0  0  0  0  0  0
   19.6363   20.1690   23.6620 H   0  0  0  0  0  0  0  0  0  0  0  0
   20.3814   20.5699   22.1242 H   0  0  0  0  0  0  0  0  0  0  0  0
   21.2193   18.8046   23.0844 C   0  0  0  0  0  0  0  0  0  0  0  0
   20.8926   17.9542   23.6969 H   0  0  0  0  0  0  0  0  0  0  0  0
   21.9794   19.3548   23.6540 H   0  0  0  0  0  0  0  0  0  0  0  0
   21.7032   18.4106   22.1818 H   0  0  0  0  0  0  0  0  0  0  0  0
  1  2  1  0  0  0  0
  1  3  1  0  0  0  0
  1  4  1  0  0  0  0
  1  5  1  0  0  0  0
  5  6  1  0  0  0  0
  5  7  1  0  0  0  0
  5  8  1  0  0  0  0
  8  9  1  0  0  0  0
  8 10  1  0  0  0  0
  8 11  1  0  0  0  0
 11 12  1  0  0  0  0
 11 13  1  0  0  0  0
 11 14  1  0  0  0  0
 14 15  1  0  0  0  0
 14 16  1  0  0  0  0
 14 17  1  0  0  0  0
M  END
> <VConfSearch Rank>
821

> <Conf_Id>
1

> <Delta U+W>
0.685

> <U+W>
-15.179

> <U>
45.697

> <W>
-60.876

> <W(PB)>
-62.586

> <W(SA)>
1.710

> <Valence>
1.263

> <Coulomb>
44.179

> <VdW>
0.255

> <VdW6>
-3.552

> <VdW12>
3.807

> <Bond>
0.125

> <Angle>
0.616

> <Pdih>
0.521

> <Idih>
0.000

> <Tether>
0.000

$$$$
VeraChem MOL file


 17 16  0  0  0  0  0  0  0  0999 V2000     
   20.2729   19.1321   19.6462 N   0  3  0  0  0  0  0  0  0  0  0  0
   20.6680   20.0395   19.3816 H   0  0  0  0  0  0  0  0  0  0  0  0
   19.2669   19.2676   19.7806 H   0  0  0  0  0  0  0  0  0  0  0  0
   20.3860   18.5113   18.8385 H   0  0  0  0  0  0  0  0  0  0  0  0
   20.9347   18.5676   20.8886 C   0  0  0  0  0  0  0  0  0  0  0  0
   21.9932   18.4145   20.6616 H   0  0  0  0  0  0  0  0  0  0  0  0
   20.4892   17.5914   21.0966 H   0  0  0  0  0  0  0  0  0  0  0  0
   20.8044   19.4741   22.1300 C   0  0  0  0  0  0  0  0  0  0  0  0
   21.3644   19.0188   22.9576 H   0  0  0  0  0  0  0  0  0  0  0  0
   21.2904   20.4373   21.9256 H   0  0  0  0  0  0  0  0  0  0  0  0
   19.3427   19.7211   22.5793 C   0  0  0  0  0  0  0  0  0  0  0  0
   18.7926   20.2595   21.7955 H   0  0  0  0  0  0  0  0  0  0  0  0
   19.3491   20.3846   23.4554 H   0  0  0  0  0  0  0  0  0  0  0  0
   18.5922   18.4189   22.9411 C   0  0  0  0  0  0  0  0  0  0  0  0
   17.5855   18.6459   23.3152 H   0  0  0  0  0  0  0  0  0  0  0  0
   19.1227   17.8625   23.7247 H   0  0  0  0  0  0  0  0  0  0  0  0
   18.4809   17.7614   22.0698 H   0  0  0  0  0  0  0  0  0  0  0  0
  1  2  1  0  0  0  0
  1  3  1  0  0  0  0
  1  4  1  0  0  0  0
  1  5  1  0  0  0  0
  5  6  1  0  0  0  0
  5  7  1  0  0  0  0
  5  8  1  0  0  0  0
  8  9  1  0  0  0  0
  8 10  1  0  0  0  0
  8 11  1  0  0  0  0
 11 12  1  0  0  0  0
 11 13  1  0  0  0  0
 11 14  1  0  0  0  0
 14 15  1  0  0  0  0
 14 16  1  0  0  0  0
 14 17  1  0  0  0  0
M  END
> <VConfSearch Rank>
822

> <Conf_Id>
43

> <Delta U+W>
0.642

> <U+W>
-15.222

> <U>
45.697

> <W>
-60.919

> <W(PB)>
-62.631

> <W(SA)>
1.712

> <Valence>
1.262

> <Coulomb>
44.179

> <VdW>
0.255

> <VdW6>
-3.552

> <VdW12>
3.807

> <Bond>
0.125

> <Angle>
0.616

> <Pdih>
0.521

> <Idih>
0.000

> <Tether>
0.000

$$$$
VeraChem MOL file


 17 16  0  0  0  0  0  0  0  0999 V2000     
   17.7079   20.2672   21.8810 N   0  3  0  0  0  0  0  0  0  0  0  0
   17.6843   20.7177   20.9611 H   0  0  0  0  0  0  0  0  0  0  0  0
   18.0191   20.9741   22.5542 H   0  0  0  0  0  0  0  0  0  0  0  0
   16.7390   20.0349   22.1220 H   0  0  0  0  0  0  0  0  0  0  0  0
   18.6003   19.0420   21.8906 C   0  0  0  0  0  0  0  0  0  0  0  0
   18.1930   18.3221   21.1755 H   0  0  0  0  0  0  0  0  0  0  0  0
   18.5530   18.5977   22.8885 H   0  0  0  0  0  0  0  0  0  0  0  0
   20.0645   19.3552   21.5325 C   0  0  0  0  0  0  0  0  0  0  0  0
   20.1066   19.8153   20.5363 H   0  0  0  0  0  0  0  0  0  0  0  0
   20.4654   20.0899   22.2435 H   0  0  0  0  0  0  0  0  0  0  0  0
   20.9381   18.0816   21.5537 C   0  0  0  0  0  0  0  0  0  0  0  0
   20.5354   17.3445   20.8446 H   0  0  0  0  0  0  0  0  0  0  0  0
   20.8938   17.6188   22.5497 H   0  0  0  0  0  0  0  0  0  0  0  0
   22.4084   18.3880   21.1954 C   0  0  0  0  0  0  0  0  0  0  0  0
   23.0117   17.4711   21.2159 H   0  0  0  0  0  0  0  0  0  0  0  0
   22.8496   19.0969   21.9081 H   0  0  0  0  0  0  0  0  0  0  0  0
   22.4883   18.8206   20.1895 H   0  0  0  0  0  0  0  0  0  0  0  0
  1  2  1  0  0  0  0
  1  3  1  0  0  0  0
  1  4  1  0  0  0  0
  1  5  1  0  0  0  0
  5  6  1  0  0  0  0
  5  7  1  0  0  0  0
  5  8  1  0  0  0  0
  8  9  1  0  0  0  0
  8 10  1  0  0  0  0
  8 11  1  0  0  0  0
 11 12  1  0  0  0  0
 11 13  1  0  0  0  0
 11 14  1  0  0  0  0
 14 15  1  0  0  0  0
 14 16  1  0  0  0  0
 14 17  1  0  0  0  0
M  END
> <VConfSearch Rank>
823

> <Conf_Id>
7

> <Delta U+W>
0.000

> <U+W>
-15.865

> <U>
44.664

> <W>
-60.529

> <W(PB)>
-62.309

> <W(SA)>
1.780

> <Valence>
0.872

> <Coulomb>
43.648

> <VdW>
0.144

> <VdW6>
-2.370

> <VdW12>
2.515

> <Bond>
0.080

> <Angle>
0.376

> <Pdih>
0.416

> <Idih>
0.000

> <Tether>
0.000

$$$$
VeraChem MOL file


 17 16  0  0  0  0  0  0  0  0999 V2000     
   21.2875   18.5670   23.5441 N   0  3  0  0  0  0  0  0  0  0  0  0
   21.2185   17.5615   23.7284 H   0  0  0  0  0  0  0  0  0  0  0  0
   20.7191   19.0421   24.2518 H   0  0  0  0  0  0  0  0  0  0  0  0
   22.2618   18.8339   23.7183 H   0  0  0  0  0  0  0  0  0  0  0  0
   20.8502   18.9175   22.1358 C   0  0  0  0  0  0  0  0  0  0  0  0
   21.5152   18.4024   21.4374 H   0  0  0  0  0  0  0  0  0  0  0  0
   20.9801   19.9945   22.0021 H   0  0  0  0  0  0  0  0  0  0  0  0
   19.3886   18.5295   21.8401 C   0  0  0  0  0  0  0  0  0  0  0  0
   19.2594   17.4533   22.0160 H   0  0  0  0  0  0  0  0  0  0  0  0
   18.7208   19.0456   22.5427 H   0  0  0  0  0  0  0  0  0  0  0  0
   18.9668   18.8564   20.3885 C   0  0  0  0  0  0  0  0  0  0  0  0
   17.9466   18.4836   20.2207 H   0  0  0  0  0  0  0  0  0  0  0  0
   19.6133   18.3143   19.6840 H   0  0  0  0  0  0  0  0  0  0  0  0
   19.0089   20.3692   20.0731 C   0  0  0  0  0  0  0  0  0  0  0  0
   18.3748   20.9354   20.7677 H   0  0  0  0  0  0  0  0  0  0  0  0
   18.6444   20.5606   19.0555 H   0  0  0  0  0  0  0  0  0  0  0  0
   20.0295   20.7668   20.1388 H   0  0  0  0  0  0  0  0  0  0  0  0
  1  2  1  0  0  0  0
  1  3  1  0  0  0  0
  1  4  1  0  0  0  0
  1  5  1  0  0  0  0
  5  6  1  0  0  0  0
  5  7  1  0  0  0  0
  5  8  1  0  0  0  0
  8  9  1  0  0  0  0
  8 10  1  0  0  0  0
  8 11  1  0  0  0  0
 11 12  1  0  0  0  0
 11 13  1  0  0  0  0
 11 14  1  0  0  0  0
 14 15  1  0  0  0  0
 14 16  1  0  0  0  0
 14 17  1  0  0  0  0
M  END
> <VConfSearch Rank>
824

> <Conf_Id>
36

> <Delta U+W>
0.275

> <U+W>
-15.590

> <U>
45.174

> <W>
-60.765

> <W(PB)>
-62.518

> <W(SA)>
1.754

> <Valence>
1.161

> <Coulomb>
43.789

> <VdW>
0.224

> <VdW6>
-2.897

> <VdW12>
3.121

> <Bond>
0.100

> <Angle>
0.500

> <Pdih>
0.561

> <Idih>
0.000

> <Tether>
0.000

$$$$
VeraChem MOL file


 17 16  0  0  0  0  0  0  0  0999 V2000     
   20.8248   20.6117   21.4261 N   0  3  0  0  0  0  0  0  0  0  0  0
   20.9433   20.0319   20.5914 H   0  0  0  0  0  0  0  0  0  0  0  0
   21.6843   20.5260   21.9769 H   0  0  0  0  0  0  0  0  0  0  0  0
   20.7689   21.5859   21.1121 H   0  0  0  0  0  0  0  0  0  0  0  0
   19.6011   20.2050   22.2242 C   0  0  0  0  0  0  0  0  0  0  0  0
   18.7122   20.3811   21.6125 H   0  0  0  0  0  0  0  0  0  0  0  0
   19.5506   20.8680   23.0922 H   0  0  0  0  0  0  0  0  0  0  0  0
   19.6187   18.7405   22.7105 C   0  0  0  0  0  0  0  0  0  0  0  0
   20.6110   18.4885   23.1075 H   0  0  0  0  0  0  0  0  0  0  0  0
   18.9259   18.6609   23.5587 H   0  0  0  0  0  0  0  0  0  0  0  0
   19.1859   17.7034   21.6428 C   0  0  0  0  0  0  0  0  0  0  0  0
   18.1666   17.9299   21.2995 H   0  0  0  0  0  0  0  0  0  0  0  0
   19.1327   16.7155   22.1216 H   0  0  0  0  0  0  0  0  0  0  0  0
   20.1310   17.6091   20.4235 C   0  0  0  0  0  0  0  0  0  0  0  0
   20.0613   18.5014   19.7905 H   0  0  0  0  0  0  0  0  0  0  0  0
   19.8604   16.7485   19.7980 H   0  0  0  0  0  0  0  0  0  0  0  0
   21.1747   17.4775   20.7373 H   0  0  0  0  0  0  0  0  0  0  0  0
  1  2  1  0  0  0  0
  1  3  1  0  0  0  0
  1  4  1  0  0  0  0
  1  5  1  0  0  0  0
  5  6  1  0  0  0  0
  5  7  1  0  0  0  0
  5  8  1  0  0  0  0
  8  9  1  0  0  0  0
  8 10  1  0  0  0  0
  8 11  1  0  0  0  0
 11 12  1  0  0  0  0
 11 13  1  0  0  0  0
 11 14  1  0  0  0  0
 14 15  1  0  0  0  0
 14 16  1  0  0  0  0
 14 17  1  0  0  0  0
M  END
> <VConfSearch Rank>
825

> <Conf_Id>
19

> <Delta U+W>
2.662

> <U+W>
-13.203

> <U>
47.423

> <W>
-60.626

> <W(PB)>
-62.328

> <W(SA)>
1.702

> <Valence>
2.414

> <Coulomb>
44.831

> <VdW>
0.178

> <VdW6>
-3.743

> <VdW12>
3.921

> <Bond>
0.138

> <Angle>
0.941

> <Pdih>
1.335

> <Idih>
0.000

> <Tether>
0.000

$$$$
VeraChem MOL file


 17 16  0  0  0  0  0  0  0  0999 V2000     
   21.7100   18.7429   21.6815 N   0  3  0  0  0  0  0  0  0  0  0  0
   22.5538   18.7525   22.2635 H   0  0  0  0  0  0  0  0  0  0  0  0
   22.0187   18.6170   20.7128 H   0  0  0  0  0  0  0  0  0  0  0  0
   21.1759   17.9087   21.9378 H   0  0  0  0  0  0  0  0  0  0  0  0
   20.8923   20.0086   21.8524 C   0  0  0  0  0  0  0  0  0  0  0  0
   21.5320   20.8449   21.5573 H   0  0  0  0  0  0  0  0  0  0  0  0
   20.6501   20.1262   22.9120 H   0  0  0  0  0  0  0  0  0  0  0  0
   19.5976   20.0456   21.0134 C   0  0  0  0  0  0  0  0  0  0  0  0
   19.2978   21.0966   20.9064 H   0  0  0  0  0  0  0  0  0  0  0  0
   19.7989   19.6849   19.9960 H   0  0  0  0  0  0  0  0  0  0  0  0
   18.4070   19.2713   21.6343 C   0  0  0  0  0  0  0  0  0  0  0  0
   17.5169   19.4504   21.0148 H   0  0  0  0  0  0  0  0  0  0  0  0
   18.1747   19.6839   22.6262 H   0  0  0  0  0  0  0  0  0  0  0  0
   18.6273   17.7459   21.7497 C   0  0  0  0  0  0  0  0  0  0  0  0
   18.9540   17.3168   20.7935 H   0  0  0  0  0  0  0  0  0  0  0  0
   17.6924   17.2470   22.0364 H   0  0  0  0  0  0  0  0  0  0  0  0
   19.3700   17.5037   22.5188 H   0  0  0  0  0  0  0  0  0  0  0  0
  1  2  1  0  0  0  0
  1  3  1  0  0  0  0
  1  4  1  0  0  0  0
  1  5  1  0  0  0  0
  5  6  1  0  0  0  0
  5  7  1  0  0  0  0
  5  8  1  0  0  0  0
  8  9  1  0  0  0  0
  8 10  1  0  0  0  0
  8 11  1  0  0  0  0
 11 12  1  0  0  0  0
 11 13  1  0  0  0  0
 11 14  1  0  0  0  0
 14 15  1  0  0  0  0
 14 16  1  0  0  0  0
 14 17  1  0  0  0  0
M  END
> <VConfSearch Rank>
826

> <Conf_Id>
44

> <Delta U+W>
2.712

> <U+W>
-13.153

> <U>
47.423

> <W>
-60.576

> <W(PB)>
-62.262

> <W(SA)>
1.687

> <Valence>
2.414

> <Coulomb>
44.831

> <VdW>
0.178

> <VdW6>
-3.743

> <VdW12>
3.922

> <Bond>
0.138

> <Angle>
0.941

> <Pdih>
1.335

> <Idih>
0.000

> <Tether>
0.000

$$$$
VeraChem MOL file


 17 16  0  0  0  0  0  0  0  0999 V2000     
   20.5737   20.8953   21.8635 N   0  3  0  0  0  0  0  0  0  0  0  0
   20.9102   20.5850   20.9476 H   0  0  0  0  0  0  0  0  0  0  0  0
   21.3835   20.9228   22.4902 H   0  0  0  0  0  0  0  0  0  0  0  0
   20.2508   21.8618   21.7519 H   0  0  0  0  0  0  0  0  0  0  0  0
   19.4774   19.9922   22.3948 C   0  0  0  0  0  0  0  0  0  0  0  0
   18.6369   20.0320   21.6972 H   0  0  0  0  0  0  0  0  0  0  0  0
   19.1424   20.4025   23.3513 H   0  0  0  0  0  0  0  0  0  0  0  0
   19.9192   18.5276   22.5941 C   0  0  0  0  0  0  0  0  0  0  0  0
   20.7363   18.4941   23.3268 H   0  0  0  0  0  0  0  0  0  0  0  0
   19.0864   17.9670   23.0392 H   0  0  0  0  0  0  0  0  0  0  0  0
   20.3686   17.8221   21.2902 C   0  0  0  0  0  0  0  0  0  0  0  0
   20.6768   16.7952   21.5318 H   0  0  0  0  0  0  0  0  0  0  0  0
   21.2595   18.3174   20.8807 H   0  0  0  0  0  0  0  0  0  0  0  0
   19.2592   17.7736   20.2147 C   0  0  0  0  0  0  0  0  0  0  0  0
   18.3570   17.2813   20.6003 H   0  0  0  0  0  0  0  0  0  0  0  0
   19.5988   17.2095   19.3364 H   0  0  0  0  0  0  0  0  0  0  0  0
   18.9818   18.7794   19.8749 H   0  0  0  0  0  0  0  0  0  0  0  0
  1  2  1  0  0  0  0
  1  3  1  0  0  0  0
  1  4  1  0  0  0  0
  1  5  1  0  0  0  0
  5  6  1  0  0  0  0
  5  7  1  0  0  0  0
  5  8  1  0  0  0  0
  8  9  1  0  0  0  0
  8 10  1  0  0  0  0
  8 11  1  0  0  0  0
 11 12  1  0  0  0  0
 11 13  1  0  0  0  0
 11 14  1  0  0  0  0
 14 15  1  0  0  0  0
 14 16  1  0  0  0  0
 14 17  1  0  0  0  0
M  END
> <VConfSearch Rank>
827

> <Conf_Id>
1

> <Delta U+W>
0.685

> <U+W>
-15.179

> <U>
45.697

> <W>
-60.876

> <W(PB)>
-62.586

> <W(SA)>
1.710

> <Valence>
1.263

> <Coulomb>
44.179

> <VdW>
0.255

> <VdW6>
-3.552

> <VdW12>
3.807

> <Bond>
0.125

> <Angle>
0.616

> <Pdih>
0.521

> <Idih>
0.000

> <Tether>
0.000

$$$$
VeraChem MOL file


 17 16  0  0  0  0  0  0  0  0999 V2000     
   20.3885   17.7102   20.1887 N   0  3  0  0  0  0  0  0  0  0  0  0
   19.8457   16.8472   20.2885 H   0  0  0  0  0  0  0  0  0  0  0  0
   21.1369   17.6796   20.8869 H   0  0  0  0  0  0  0  0  0  0  0  0
   20.8369   17.6750   19.2677 H   0  0  0  0  0  0  0  0  0  0  0  0
   19.5224   18.9449   20.3475 C   0  0  0  0  0  0  0  0  0  0  0  0
   18.7733   18.9308   19.5511 H   0  0  0  0  0  0  0  0  0  0  0  0
   20.1548   19.8244   20.2007 H   0  0  0  0  0  0  0  0  0  0  0  0
   18.8130   19.0365   21.7143 C   0  0  0  0  0  0  0  0  0  0  0  0
   18.1629   19.9214   21.7141 H   0  0  0  0  0  0  0  0  0  0  0  0
   18.1494   18.1699   21.8347 H   0  0  0  0  0  0  0  0  0  0  0  0
   19.7799   19.1152   22.9219 C   0  0  0  0  0  0  0  0  0  0  0  0
   20.3748   18.1942   22.9900 H   0  0  0  0  0  0  0  0  0  0  0  0
   19.1879   19.1626   23.8467 H   0  0  0  0  0  0  0  0  0  0  0  0
   20.7213   20.3401   22.8651 C   0  0  0  0  0  0  0  0  0  0  0  0
   21.3411   20.3916   23.7695 H   0  0  0  0  0  0  0  0  0  0  0  0
   20.1492   21.2746   22.7977 H   0  0  0  0  0  0  0  0  0  0  0  0
   21.3979   20.2899   22.0027 H   0  0  0  0  0  0  0  0  0  0  0  0
  1  2  1  0  0  0  0
  1  3  1  0  0  0  0
  1  4  1  0  0  0  0
  1  5  1  0  0  0  0
  5  6  1  0  0  0  0
  5  7  1  0  0  0  0
  5  8  1  0  0  0  0
  8  9  1  0  0  0  0
  8 10  1  0  0  0  0
  8 11  1  0  0  0  0
 11 12  1  0  0  0  0
 11 13  1  0  0  0  0
 11 14  1  0  0  0  0
 14 15  1  0  0  0  0
 14 16  1  0  0  0  0
 14 17  1  0  0  0  0
M  END
> <VConfSearch Rank>
828

> <Conf_Id>
43

> <Delta U+W>
0.642

> <U+W>
-15.222

> <U>
45.697

> <W>
-60.919

> <W(PB)>
-62.631

> <W(SA)>
1.712

> <Valence>
1.262

> <Coulomb>
44.179

> <VdW>
0.255

> <VdW6>
-3.552

> <VdW12>
3.807

> <Bond>
0.125

> <Angle>
0.616

> <Pdih>
0.521

> <Idih>
0.000

> <Tether>
0.000

$$$$
VeraChem MOL file


 17 16  0  0  0  0  0  0  0  0999 V2000     
   17.6357   18.6085   20.6036 N   0  3  0  0  0  0  0  0  0  0  0  0
   17.1351   19.3620   21.0846 H   0  0  0  0  0  0  0  0  0  0  0  0
   17.4382   17.7425   21.1141 H   0  0  0  0  0  0  0  0  0  0  0  0
   17.2061   18.5112   19.6779 H   0  0  0  0  0  0  0  0  0  0  0  0
   19.1229   18.8851   20.5085 C   0  0  0  0  0  0  0  0  0  0  0  0
   19.2594   19.8016   19.9280 H   0  0  0  0  0  0  0  0  0  0  0  0
   19.5853   18.0601   19.9598 H   0  0  0  0  0  0  0  0  0  0  0  0
   19.8009   19.0370   21.8824 C   0  0  0  0  0  0  0  0  0  0  0  0
   19.3237   19.8562   22.4366 H   0  0  0  0  0  0  0  0  0  0  0  0
   19.6487   18.1207   22.4682 H   0  0  0  0  0  0  0  0  0  0  0  0
   21.3131   19.3175   21.7404 C   0  0  0  0  0  0  0  0  0  0  0  0
   21.4662   20.2328   21.1513 H   0  0  0  0  0  0  0  0  0  0  0  0
   21.7907   18.4994   21.1829 H   0  0  0  0  0  0  0  0  0  0  0  0
   21.9999   19.4711   23.1147 C   0  0  0  0  0  0  0  0  0  0  0  0
   23.0726   19.6697   22.9921 H   0  0  0  0  0  0  0  0  0  0  0  0
   21.8935   18.5576   23.7142 H   0  0  0  0  0  0  0  0  0  0  0  0
   21.5664   20.3047   23.6824 H   0  0  0  0  0  0  0  0  0  0  0  0
  1  2  1  0  0  0  0
  1  3  1  0  0  0  0
  1  4  1  0  0  0  0
  1  5  1  0  0  0  0
  5  6  1  0  0  0  0
  5  7  1  0  0  0  0
  5  8  1  0  0  0  0
  8  9  1  0  0  0  0
  8 10  1  0  0  0  0
  8 11  1  0  0  0  0
 11 12  1  0  0  0  0
 11 13  1  0  0  0  0
 11 14  1  0  0  0  0
 14 15  1  0  0  0  0
 14 16  1  0  0  0  0
 14 17  1  0  0  0  0
M  END
> <VConfSearch Rank>
829

> <Conf_Id>
7

> <Delta U+W>
0.000

> <U+W>
-15.865

> <U>
44.664

> <W>
-60.529

> <W(PB)>
-62.309

> <W(SA)>
1.780

> <Valence>
0.872

> <Coulomb>
43.648

> <VdW>
0.144

> <VdW6>
-2.370

> <VdW12>
2.515

> <Bond>
0.080

> <Angle>
0.376

> <Pdih>
0.416

> <Idih>
0.000

> <Tether>
0.000

$$$$
VeraChem MOL file


 17 16  0  0  0  0  0  0  0  0999 V2000     
   21.7721   19.7981   20.2289 N   0  3  0  0  0  0  0  0  0  0  0  0
   21.8723   20.8149   20.3048 H   0  0  0  0  0  0  0  0  0  0  0  0
   21.3421   19.6054   19.3192 H   0  0  0  0  0  0  0  0  0  0  0  0
   22.7199   19.4087   20.1972 H   0  0  0  0  0  0  0  0  0  0  0  0
   20.9632   19.2202   21.3730 C   0  0  0  0  0  0  0  0  0  0  0  0
   21.4933   19.4361   22.3045 H   0  0  0  0  0  0  0  0  0  0  0  0
   20.9254   18.1355   21.2433 H   0  0  0  0  0  0  0  0  0  0  0  0
   19.5316   19.7846   21.4496 C   0  0  0  0  0  0  0  0  0  0  0  0
   19.5802   20.8780   21.5394 H   0  0  0  0  0  0  0  0  0  0  0  0
   18.9997   19.5693   20.5133 H   0  0  0  0  0  0  0  0  0  0  0  0
   18.7297   19.2168   22.6440 C   0  0  0  0  0  0  0  0  0  0  0  0
   17.7521   19.7172   22.6878 H   0  0  0  0  0  0  0  0  0  0  0  0
   19.2437   19.4604   23.5845 H   0  0  0  0  0  0  0  0  0  0  0  0
   18.5103   17.6892   22.5529 C   0  0  0  0  0  0  0  0  0  0  0  0
   18.0029   17.4180   21.6179 H   0  0  0  0  0  0  0  0  0  0  0  0
   17.8866   17.3396   23.3858 H   0  0  0  0  0  0  0  0  0  0  0  0
   19.4602   17.1418   22.5987 H   0  0  0  0  0  0  0  0  0  0  0  0
  1  2  1  0  0  0  0
  1  3  1  0  0  0  0
  1  4  1  0  0  0  0
  1  5  1  0  0  0  0
  5  6  1  0  0  0  0
  5  7  1  0  0  0  0
  5  8  1  0  0  0  0
  8  9  1  0  0  0  0
  8 10  1  0  0  0  0
  8 11  1  0  0  0  0
 11 12  1  0  0  0  0
 11 13  1  0  0  0  0
 11 14  1  0  0  0  0
 14 15  1  0  0  0  0
 14 16  1  0  0  0  0
 14 17  1  0  0  0  0
M  END
> <VConfSearch Rank>
830

> <Conf_Id>
36

> <Delta U+W>
0.275

> <U+W>
-15.590

> <U>
45.174

> <W>
-60.765

> <W(PB)>
-62.518

> <W(SA)>
1.754

> <Valence>
1.161

> <Coulomb>
43.789

> <VdW>
0.224

> <VdW6>
-2.897

> <VdW12>
3.121

> <Bond>
0.100

> <Angle>
0.500

> <Pdih>
0.561

> <Idih>
0.000

> <Tether>
0.000

$$$$
VeraChem MOL file


 17 16  0  0  0  0  0  0  0  0999 V2000     
   19.5405   18.7848   19.7971 N   0  3  0  0  0  0  0  0  0  0  0  0
   18.7051   19.0240   20.3372 H   0  0  0  0  0  0  0  0  0  0  0  0
   19.5097   17.7752   19.6257 H   0  0  0  0  0  0  0  0  0  0  0  0
   19.4527   19.2439   18.8848 H   0  0  0  0  0  0  0  0  0  0  0  0
   20.8113   19.1958   20.5157 C   0  0  0  0  0  0  0  0  0  0  0  0
   20.8212   20.2850   20.6099 H   0  0  0  0  0  0  0  0  0  0  0  0
   21.6488   18.9044   19.8761 H   0  0  0  0  0  0  0  0  0  0  0  0
   20.9915   18.5496   21.9055 C   0  0  0  0  0  0  0  0  0  0  0  0
   20.7372   17.4824   21.8594 H   0  0  0  0  0  0  0  0  0  0  0  0
   22.0589   18.5941   22.1596 H   0  0  0  0  0  0  0  0  0  0  0  0
   20.2013   19.2435   23.0443 C   0  0  0  0  0  0  0  0  0  0  0  0
   20.5110   20.2953   23.1214 H   0  0  0  0  0  0  0  0  0  0  0  0
   20.4828   18.7734   23.9970 H   0  0  0  0  0  0  0  0  0  0  0  0
   18.6649   19.1688   22.8936 C   0  0  0  0  0  0  0  0  0  0  0  0
   18.3102   19.7998   22.0704 H   0  0  0  0  0  0  0  0  0  0  0  0
   18.1750   19.5271   23.8083 H   0  0  0  0  0  0  0  0  0  0  0  0
   18.3312   18.1376   22.7193 H   0  0  0  0  0  0  0  0  0  0  0  0
  1  2  1  0  0  0  0
  1  3  1  0  0  0  0
  1  4  1  0  0  0  0
  1  5  1  0  0  0  0
  5  6  1  0  0  0  0
  5  7  1  0  0  0  0
  5  8  1  0  0  0  0
  8  9  1  0  0  0  0
  8 10  1  0  0  0  0
  8 11  1  0  0  0  0
 11 12  1  0  0  0  0
 11 13  1  0  0  0  0
 11 14  1  0  0  0  0
 14 15  1  0  0  0  0
 14 16  1  0  0  0  0
 14 17  1  0  0  0  0
M  END
> <VConfSearch Rank>
831

> <Conf_Id>
19

> <Delta U+W>
2.662

> <U+W>
-13.203

> <U>
47.423

> <W>
-60.626

> <W(PB)>
-62.328

> <W(SA)>
1.702

> <Valence>
2.414

> <Coulomb>
44.831

> <VdW>
0.178

> <VdW6>
-3.743

> <VdW12>
3.921

> <Bond>
0.138

> <Angle>
0.941

> <Pdih>
1.335

> <Idih>
0.000

> <Tether>
0.000

$$$$
VeraChem MOL file


 17 16  0  0  0  0  0  0  0  0999 V2000     
   18.7739   17.6104   21.9534 N   0  3  0  0  0  0  0  0  0  0  0  0
   18.0098   17.0166   21.6152 H   0  0  0  0  0  0  0  0  0  0  0  0
   18.9078   17.3867   22.9441 H   0  0  0  0  0  0  0  0  0  0  0  0
   19.6228   17.3194   21.4619 H   0  0  0  0  0  0  0  0  0  0  0  0
   18.4794   19.0832   21.7432 C   0  0  0  0  0  0  0  0  0  0  0  0
   17.5655   19.3091   22.2992 H   0  0  0  0  0  0  0  0  0  0  0  0
   18.2787   19.2499   20.6814 H   0  0  0  0  0  0  0  0  0  0  0  0
   19.6031   20.0289   22.2171 C   0  0  0  0  0  0  0  0  0  0  0  0
   19.1602   21.0207   22.3786 H   0  0  0  0  0  0  0  0  0  0  0  0
   19.9793   19.7041   23.1963 H   0  0  0  0  0  0  0  0  0  0  0  0
   20.7749   20.1877   21.2150 C   0  0  0  0  0  0  0  0  0  0  0  0
   21.4591   20.9560   21.6016 H   0  0  0  0  0  0  0  0  0  0  0  0
   20.3938   20.5737   20.2590 H   0  0  0  0  0  0  0  0  0  0  0  0
   21.5804   18.8929   20.9632 C   0  0  0  0  0  0  0  0  0  0  0  0
   21.8956   18.4296   21.9073 H   0  0  0  0  0  0  0  0  0  0  0  0
   22.4855   19.1146   20.3828 H   0  0  0  0  0  0  0  0  0  0  0  0
   20.9995   18.1632   20.3872 H   0  0  0  0  0  0  0  0  0  0  0  0
  1  2  1  0  0  0  0
  1  3  1  0  0  0  0
  1  4  1  0  0  0  0
  1  5  1  0  0  0  0
  5  6  1  0  0  0  0
  5  7  1  0  0  0  0
  5  8  1  0  0  0  0
  8  9  1  0  0  0  0
  8 10  1  0  0  0  0
  8 11  1  0  0  0  0
 11 12  1  0  0  0  0
 11 13  1  0  0  0  0
 11 14  1  0  0  0  0
 14 15  1  0  0  0  0
 14 16  1  0  0  0  0
 14 17  1  0  0  0  0
M  END
> <VConfSearch Rank>
832

> <Conf_Id>
44

> <Delta U+W>
2.712

> <U+W>
-13.153

> <U>
47.423

> <W>
-60.576

> <W(PB)>
-62.262

> <W(SA)>
1.687

> <Valence>
2.414

> <Coulomb>
44.831

> <VdW>
0.178

> <VdW6>
-3.743

> <VdW12>
3.922

> <Bond>
0.138

> <Angle>
0.941

> <Pdih>
1.335

> <Idih>
0.000

> <Tether>
0.000

$$$$
VeraChem MOL file


 17 16  0  0  0  0  0  0  0  0999 V2000     
   18.9688   17.3562   22.0602 N   0  3  0  0  0  0  0  0  0  0  0  0
   18.2533   18.0580   21.8500 H   0  0  0  0  0  0  0  0  0  0  0  0
   18.9511   17.1995   23.0724 H   0  0  0  0  0  0  0  0  0  0  0  0
   18.6688   16.4814   21.6183 H   0  0  0  0  0  0  0  0  0  0  0  0
   20.3398   17.7901   21.5786 C   0  0  0  0  0  0  0  0  0  0  0  0
   20.2960   17.9102   20.4931 H   0  0  0  0  0  0  0  0  0  0  0  0
   21.0420   16.9820   21.8011 H   0  0  0  0  0  0  0  0  0  0  0  0
   20.8428   19.0966   22.2267 C   0  0  0  0  0  0  0  0  0  0  0  0
   20.9222   18.9530   23.3125 H   0  0  0  0  0  0  0  0  0  0  0  0
   21.8619   19.2961   21.8696 H   0  0  0  0  0  0  0  0  0  0  0  0
   19.9505   20.3288   21.9350 C   0  0  0  0  0  0  0  0  0  0  0  0
   20.3770   21.2033   22.4461 H   0  0  0  0  0  0  0  0  0  0  0  0
   18.9515   20.1824   22.3676 H   0  0  0  0  0  0  0  0  0  0  0  0
   19.8240   20.6412   20.4263 C   0  0  0  0  0  0  0  0  0  0  0  0
   20.8111   20.7929   19.9706 H   0  0  0  0  0  0  0  0  0  0  0  0
   19.2392   21.5570   20.2705 H   0  0  0  0  0  0  0  0  0  0  0  0
   19.3187   19.8302   19.8869 H   0  0  0  0  0  0  0  0  0  0  0  0
  1  2  1  0  0  0  0
  1  3  1  0  0  0  0
  1  4  1  0  0  0  0
  1  5  1  0  0  0  0
  5  6  1  0  0  0  0
  5  7  1  0  0  0  0
  5  8  1  0  0  0  0
  8  9  1  0  0  0  0
  8 10  1  0  0  0  0
  8 11  1  0  0  0  0
 11 12  1  0  0  0  0
 11 13  1  0  0  0  0
 11 14  1  0  0  0  0
 14 15  1  0  0  0  0
 14 16  1  0  0  0  0
 14 17  1  0  0  0  0
M  END
> <VConfSearch Rank>
833

> <Conf_Id>
1

> <Delta U+W>
0.685

> <U+W>
-15.179

> <U>
45.697

> <W>
-60.876

> <W(PB)>
-62.586

> <W(SA)>
1.710

> <Valence>
1.263

> <Coulomb>
44.179

> <VdW>
0.255

> <VdW6>
-3.552

> <VdW12>
3.807

> <Bond>
0.125

> <Angle>
0.616

> <Pdih>
0.521

> <Idih>
0.000

> <Tether>
0.000

$$$$
VeraChem MOL file


 17 16  0  0  0  0  0  0  0  0999 V2000     
   20.8633   18.9327   19.8509 N   0  3  0  0  0  0  0  0  0  0  0  0
   20.2121   18.7335   19.0856 H   0  0  0  0  0  0  0  0  0  0  0  0
   21.0393   18.0485   20.3364 H   0  0  0  0  0  0  0  0  0  0  0  0
   21.7486   19.2195   19.4213 H   0  0  0  0  0  0  0  0  0  0  0  0
   20.3234   19.9925   20.7918 C   0  0  0  0  0  0  0  0  0  0  0  0
   20.1957   20.9140   20.2172 H   0  0  0  0  0  0  0  0  0  0  0  0
   21.0758   20.1768   21.5630 H   0  0  0  0  0  0  0  0  0  0  0  0
   18.9824   19.6132   21.4533 C   0  0  0  0  0  0  0  0  0  0  0  0
   18.6390   20.4602   22.0620 H   0  0  0  0  0  0  0  0  0  0  0  0
   18.2233   19.4701   20.6729 H   0  0  0  0  0  0  0  0  0  0  0  0
   19.0537   18.3449   22.3398 C   0  0  0  0  0  0  0  0  0  0  0  0
   19.3070   17.4694   21.7266 H   0  0  0  0  0  0  0  0  0  0  0  0
   18.0552   18.1461   22.7540 H   0  0  0  0  0  0  0  0  0  0  0  0
   20.0631   18.4753   23.5033 C   0  0  0  0  0  0  0  0  0  0  0  0
   20.0329   17.5825   24.1413 H   0  0  0  0  0  0  0  0  0  0  0  0
   19.8300   19.3442   24.1325 H   0  0  0  0  0  0  0  0  0  0  0  0
   21.0912   18.5846   23.1358 H   0  0  0  0  0  0  0  0  0  0  0  0
  1  2  1  0  0  0  0
  1  3  1  0  0  0  0
  1  4  1  0  0  0  0
  1  5  1  0  0  0  0
  5  6  1  0  0  0  0
  5  7  1  0  0  0  0
  5  8  1  0  0  0  0
  8  9  1  0  0  0  0
  8 10  1  0  0  0  0
  8 11  1  0  0  0  0
 11 12  1  0  0  0  0
 11 13  1  0  0  0  0
 11 14  1  0  0  0  0
 14 15  1  0  0  0  0
 14 16  1  0  0  0  0
 14 17  1  0  0  0  0
M  END
> <VConfSearch Rank>
834

> <Conf_Id>
43

> <Delta U+W>
0.642

> <U+W>
-15.222

> <U>
45.697

> <W>
-60.919

> <W(PB)>
-62.631

> <W(SA)>
1.712

> <Valence>
1.262

> <Coulomb>
44.179

> <VdW>
0.255

> <VdW6>
-3.552

> <VdW12>
3.807

> <Bond>
0.125

> <Angle>
0.616

> <Pdih>
0.521

> <Idih>
0.000

> <Tether>
0.000

$$$$
VeraChem MOL file


 17 16  0  0  0  0  0  0  0  0999 V2000     
   18.5980   17.2124   20.4512 N   0  3  0  0  0  0  0  0  0  0  0  0
   19.3138   16.4803   20.4866 H   0  0  0  0  0  0  0  0  0  0  0  0
   18.6155   17.6047   19.5049 H   0  0  0  0  0  0  0  0  0  0  0  0
   17.6917   16.7462   20.5619 H   0  0  0  0  0  0  0  0  0  0  0  0
   18.8186   18.2741   21.5103 C   0  0  0  0  0  0  0  0  0  0  0  0
   18.7563   17.7920   22.4897 H   0  0  0  0  0  0  0  0  0  0  0  0
   18.0054   19.0011   21.4341 H   0  0  0  0  0  0  0  0  0  0  0  0
   20.1719   18.9953   21.3737 C   0  0  0  0  0  0  0  0  0  0  0  0
   20.9855   18.2602   21.4352 H   0  0  0  0  0  0  0  0  0  0  0  0
   20.2371   19.4652   20.3833 H   0  0  0  0  0  0  0  0  0  0  0  0
   20.3563   20.0671   22.4704 C   0  0  0  0  0  0  0  0  0  0  0  0
   20.2879   19.5978   23.4621 H   0  0  0  0  0  0  0  0  0  0  0  0
   19.5405   20.8014   22.4114 H   0  0  0  0  0  0  0  0  0  0  0  0
   21.7118   20.7948   22.3398 C   0  0  0  0  0  0  0  0  0  0  0  0
   21.8233   21.5514   23.1273 H   0  0  0  0  0  0  0  0  0  0  0  0
   21.7957   21.3034   21.3705 H   0  0  0  0  0  0  0  0  0  0  0  0
   22.5490   20.0903   22.4294 H   0  0  0  0  0  0  0  0  0  0  0  0
  1  2  1  0  0  0  0
  1  3  1  0  0  0  0
  1  4  1  0  0  0  0
  1  5  1  0  0  0  0
  5  6  1  0  0  0  0
  5  7  1  0  0  0  0
  5  8  1  0  0  0  0
  8  9  1  0  0  0  0
  8 10  1  0  0  0  0
  8 11  1  0  0  0  0
 11 12  1  0  0  0  0
 11 13  1  0  0  0  0
 11 14  1  0  0  0  0
 14 15  1  0  0  0  0
 14 16  1  0  0  0  0
 14 17  1  0  0  0  0
M  END
> <VConfSearch Rank>
835

> <Conf_Id>
7

> <Delta U+W>
0.000

> <U+W>
-15.865

> <U>
44.664

> <W>
-60.529

> <W(PB)>
-62.309

> <W(SA)>
1.780

> <Valence>
0.872

> <Coulomb>
43.648

> <VdW>
0.144

> <VdW6>
-2.370

> <VdW12>
2.515

> <Bond>
0.080

> <Angle>
0.376

> <Pdih>
0.416

> <Idih>
0.000

> <Tether>
0.000

$$$$
VeraChem MOL file


 17 16  0  0  0  0  0  0  0  0999 V2000     
   19.8051   21.5070   21.6087 N   0  3  0  0  0  0  0  0  0  0  0  0
   18.8732   21.7896   21.9272 H   0  0  0  0  0  0  0  0  0  0  0  0
   19.8302   21.6434   20.5936 H   0  0  0  0  0  0  0  0  0  0  0  0
   20.4711   22.1726   22.0139 H   0  0  0  0  0  0  0  0  0  0  0  0
   20.1289   20.0782   21.9976 C   0  0  0  0  0  0  0  0  0  0  0  0
   20.1137   20.0133   23.0889 H   0  0  0  0  0  0  0  0  0  0  0  0
   21.1434   19.8587   21.6550 H   0  0  0  0  0  0  0  0  0  0  0  0
   19.1462   19.0504   21.4044 C   0  0  0  0  0  0  0  0  0  0  0  0
   18.1258   19.3034   21.7218 H   0  0  0  0  0  0  0  0  0  0  0  0
   19.1602   19.1168   20.3083 H   0  0  0  0  0  0  0  0  0  0  0  0
   19.4640   17.6009   21.8402 C   0  0  0  0  0  0  0  0  0  0  0  0
   18.6835   16.9320   21.4511 H   0  0  0  0  0  0  0  0  0  0  0  0
   19.4176   17.5250   22.9358 H   0  0  0  0  0  0  0  0  0  0  0  0
   20.8429   17.1092   21.3436 C   0  0  0  0  0  0  0  0  0  0  0  0
   20.9177   17.1804   20.2507 H   0  0  0  0  0  0  0  0  0  0  0  0
   21.0003   16.0591   21.6221 H   0  0  0  0  0  0  0  0  0  0  0  0
   21.6616   17.6937   21.7820 H   0  0  0  0  0  0  0  0  0  0  0  0
  1  2  1  0  0  0  0
  1  3  1  0  0  0  0
  1  4  1  0  0  0  0
  1  5  1  0  0  0  0
  5  6  1  0  0  0  0
  5  7  1  0  0  0  0
  5  8  1  0  0  0  0
  8  9  1  0  0  0  0
  8 10  1  0  0  0  0
  8 11  1  0  0  0  0
 11 12  1  0  0  0  0
 11 13  1  0  0  0  0
 11 14  1  0  0  0  0
 14 15  1  0  0  0  0
 14 16  1  0  0  0  0
 14 17  1  0  0  0  0
M  END
> <VConfSearch Rank>
836

> <Conf_Id>
36

> <Delta U+W>
0.275

> <U+W>
-15.590

> <U>
45.174

> <W>
-60.765

> <W(PB)>
-62.518

> <W(SA)>
1.754

> <Valence>
1.161

> <Coulomb>
43.789

> <VdW>
0.224

> <VdW6>
-2.897

> <VdW12>
3.121

> <Bond>
0.100

> <Angle>
0.500

> <Pdih>
0.561

> <Idih>
0.000

> <Tether>
0.000

$$$$
VeraChem MOL file


 17 16  0  0  0  0  0  0  0  0999 V2000     
   21.1172   17.6955   22.2313 N   0  3  0  0  0  0  0  0  0  0  0  0
   20.1599   17.3367   22.1908 H   0  0  0  0  0  0  0  0  0  0  0  0
   21.3070   17.9378   23.2084 H   0  0  0  0  0  0  0  0  0  0  0  0
   21.7417   16.9189   21.9910 H   0  0  0  0  0  0  0  0  0  0  0  0
   21.3122   18.8828   21.3081 C   0  0  0  0  0  0  0  0  0  0  0  0
   21.1638   18.5502   20.2772 H   0  0  0  0  0  0  0  0  0  0  0  0
   22.3525   19.2024   21.4135 H   0  0  0  0  0  0  0  0  0  0  0  0
   20.3856   20.0796   21.6093 C   0  0  0  0  0  0  0  0  0  0  0  0
   20.3433   20.2587   22.6919 H   0  0  0  0  0  0  0  0  0  0  0  0
   20.8449   20.9767   21.1734 H   0  0  0  0  0  0  0  0  0  0  0  0
   18.9546   19.9467   21.0286 C   0  0  0  0  0  0  0  0  0  0  0  0
   19.0081   19.8312   19.9368 H   0  0  0  0  0  0  0  0  0  0  0  0
   18.4193   20.8895   21.2084 H   0  0  0  0  0  0  0  0  0  0  0  0
   18.1263   18.7881   21.6290 C   0  0  0  0  0  0  0  0  0  0  0  0
   18.5031   17.8122   21.3015 H   0  0  0  0  0  0  0  0  0  0  0  0
   17.0813   18.8570   21.2998 H   0  0  0  0  0  0  0  0  0  0  0  0
   18.1324   18.8207   22.7263 H   0  0  0  0  0  0  0  0  0  0  0  0
  1  2  1  0  0  0  0
  1  3  1  0  0  0  0
  1  4  1  0  0  0  0
  1  5  1  0  0  0  0
  5  6  1  0  0  0  0
  5  7  1  0  0  0  0
  5  8  1  0  0  0  0
  8  9  1  0  0  0  0
  8 10  1  0  0  0  0
  8 11  1  0  0  0  0
 11 12  1  0  0  0  0
 11 13  1  0  0  0  0
 11 14  1  0  0  0  0
 14 15  1  0  0  0  0
 14 16  1  0  0  0  0
 14 17  1  0  0  0  0
M  END
> <VConfSearch Rank>
837

> <Conf_Id>
19

> <Delta U+W>
2.662

> <U+W>
-13.203

> <U>
47.423

> <W>
-60.626

> <W(PB)>
-62.328

> <W(SA)>
1.702

> <Valence>
2.414

> <Coulomb>
44.831

> <VdW>
0.178

> <VdW6>
-3.743

> <VdW12>
3.921

> <Bond>
0.138

> <Angle>
0.941

> <Pdih>
1.335

> <Idih>
0.000

> <Tether>
0.000

$$$$
VeraChem MOL file


 17 16  0  0  0  0  0  0  0  0999 V2000     
   19.9726   18.2849   19.9142 N   0  3  0  0  0  0  0  0  0  0  0  0
   19.6949   17.4967   19.3204 H   0  0  0  0  0  0  0  0  0  0  0  0
   20.6950   18.8014   19.4035 H   0  0  0  0  0  0  0  0  0  0  0  0
   19.1610   18.9027   19.9948 H   0  0  0  0  0  0  0  0  0  0  0  0
   20.4643   17.8224   21.2723 C   0  0  0  0  0  0  0  0  0  0  0  0
   21.3269   17.1739   21.0962 H   0  0  0  0  0  0  0  0  0  0  0  0
   19.6799   17.2215   21.7403 H   0  0  0  0  0  0  0  0  0  0  0  0
   20.8808   18.9671   22.2198 C   0  0  0  0  0  0  0  0  0  0  0  0
   21.5519   18.5453   22.9797 H   0  0  0  0  0  0  0  0  0  0  0  0
   21.4753   19.7103   21.6722 H   0  0  0  0  0  0  0  0  0  0  0  0
   19.7016   19.6548   22.9542 C   0  0  0  0  0  0  0  0  0  0  0  0
   20.1152   20.3746   23.6745 H   0  0  0  0  0  0  0  0  0  0  0  0
   19.1526   18.9113   23.5489 H   0  0  0  0  0  0  0  0  0  0  0  0
   18.7169   20.3995   22.0244 C   0  0  0  0  0  0  0  0  0  0  0  0
   19.2465   21.0836   21.3487 H   0  0  0  0  0  0  0  0  0  0  0  0
   18.0118   20.9968   22.6171 H   0  0  0  0  0  0  0  0  0  0  0  0
   18.1219   19.7002   21.4255 H   0  0  0  0  0  0  0  0  0  0  0  0
  1  2  1  0  0  0  0
  1  3  1  0  0  0  0
  1  4  1  0  0  0  0
  1  5  1  0  0  0  0
  5  6  1  0  0  0  0
  5  7  1  0  0  0  0
  5  8  1  0  0  0  0
  8  9  1  0  0  0  0
  8 10  1  0  0  0  0
  8 11  1  0  0  0  0
 11 12  1  0  0  0  0
 11 13  1  0  0  0  0
 11 14  1  0  0  0  0
 14 15  1  0  0  0  0
 14 16  1  0  0  0  0
 14 17  1  0  0  0  0
M  END
> <VConfSearch Rank>
838

> <Conf_Id>
44

> <Delta U+W>
2.712

> <U+W>
-13.153

> <U>
47.423

> <W>
-60.576

> <W(PB)>
-62.262

> <W(SA)>
1.687

> <Valence>
2.414

> <Coulomb>
44.831

> <VdW>
0.178

> <VdW6>
-3.743

> <VdW12>
3.922

> <Bond>
0.138

> <Angle>
0.941

> <Pdih>
1.335

> <Idih>
0.000

> <Tether>
0.000

$$$$
VeraChem MOL file


 17 16  0  0  0  0  0  0  0  0999 V2000     
   19.1255   19.6345   23.3201 N   0  3  0  0  0  0  0  0  0  0  0  0
   18.5833   20.0737   22.5707 H   0  0  0  0  0  0  0  0  0  0  0  0
   19.6875   20.3703   23.7585 H   0  0  0  0  0  0  0  0  0  0  0  0
   18.4550   19.3122   24.0252 H   0  0  0  0  0  0  0  0  0  0  0  0
   19.9862   18.4995   22.7998 C   0  0  0  0  0  0  0  0  0  0  0  0
   19.3254   17.7400   22.3741 H   0  0  0  0  0  0  0  0  0  0  0  0
   20.5045   18.0559   23.6543 H   0  0  0  0  0  0  0  0  0  0  0  0
   21.0231   18.9374   21.7448 C   0  0  0  0  0  0  0  0  0  0  0  0
   21.7070   19.6697   22.1939 H   0  0  0  0  0  0  0  0  0  0  0  0
   21.6390   18.0689   21.4760 H   0  0  0  0  0  0  0  0  0  0  0  0
   20.3997   19.5369   20.4596 C   0  0  0  0  0  0  0  0  0  0  0  0
   21.2097   19.8312   19.7776 H   0  0  0  0  0  0  0  0  0  0  0  0
   19.8551   20.4602   20.6994 H   0  0  0  0  0  0  0  0  0  0  0  0
   19.4591   18.5528   19.7270 C   0  0  0  0  0  0  0  0  0  0  0  0
   19.9817   17.6209   19.4753 H   0  0  0  0  0  0  0  0  0  0  0  0
   19.0931   18.9946   18.7911 H   0  0  0  0  0  0  0  0  0  0  0  0
   18.5835   18.3002   20.3382 H   0  0  0  0  0  0  0  0  0  0  0  0
  1  2  1  0  0  0  0
  1  3  1  0  0  0  0
  1  4  1  0  0  0  0
  1  5  1  0  0  0  0
  5  6  1  0  0  0  0
  5  7  1  0  0  0  0
  5  8  1  0  0  0  0
  8  9  1  0  0  0  0
  8 10  1  0  0  0  0
  8 11  1  0  0  0  0
 11 12  1  0  0  0  0
 11 13  1  0  0  0  0
 11 14  1  0  0  0  0
 14 15  1  0  0  0  0
 14 16  1  0  0  0  0
 14 17  1  0  0  0  0
M  END
> <VConfSearch Rank>
839

> <Conf_Id>
1

> <Delta U+W>
0.685

> <U+W>
-15.179

> <U>
45.697

> <W>
-60.876

> <W(PB)>
-62.586

> <W(SA)>
1.710

> <Valence>
1.263

> <Coulomb>
44.179

> <VdW>
0.255

> <VdW6>
-3.552

> <VdW12>
3.807

> <Bond>
0.125

> <Angle>
0.616

> <Pdih>
0.521

> <Idih>
0.000

> <Tether>
0.000

$$$$
VeraChem MOL file


 17 16  0  0  0  0  0  0  0  0999 V2000     
   21.4373   18.0166   20.8033 N   0  3  0  0  0  0  0  0  0  0  0  0
   22.1256   18.6429   20.3750 H   0  0  0  0  0  0  0  0  0  0  0  0
   20.6498   17.9425   20.1532 H   0  0  0  0  0  0  0  0  0  0  0  0
   21.8707   17.0892   20.8554 H   0  0  0  0  0  0  0  0  0  0  0  0
   20.9952   18.5101   22.1674 C   0  0  0  0  0  0  0  0  0  0  0  0
   21.8751   18.5284   22.8162 H   0  0  0  0  0  0  0  0  0  0  0  0
   20.2880   17.7847   22.5780 H   0  0  0  0  0  0  0  0  0  0  0  0
   20.3489   19.9107   22.1437 C   0  0  0  0  0  0  0  0  0  0  0  0
   20.1215   20.2101   23.1754 H   0  0  0  0  0  0  0  0  0  0  0  0
   21.0802   20.6387   21.7683 H   0  0  0  0  0  0  0  0  0  0  0  0
   19.0572   19.9942   21.2927 C   0  0  0  0  0  0  0  0  0  0  0  0
   19.2856   19.7865   20.2384 H   0  0  0  0  0  0  0  0  0  0  0  0
   18.6794   21.0257   21.3234 H   0  0  0  0  0  0  0  0  0  0  0  0
   17.9462   19.0376   21.7829 C   0  0  0  0  0  0  0  0  0  0  0  0
   17.0305   19.1771   21.1940 H   0  0  0  0  0  0  0  0  0  0  0  0
   17.6991   19.2265   22.8357 H   0  0  0  0  0  0  0  0  0  0  0  0
   18.2458   17.9866   21.6848 H   0  0  0  0  0  0  0  0  0  0  0  0
  1  2  1  0  0  0  0
  1  3  1  0  0  0  0
  1  4  1  0  0  0  0
  1  5  1  0  0  0  0
  5  6  1  0  0  0  0
  5  7  1  0  0  0  0
  5  8  1  0  0  0  0
  8  9  1  0  0  0  0
  8 10  1  0  0  0  0
  8 11  1  0  0  0  0
 11 12  1  0  0  0  0
 11 13  1  0  0  0  0
 11 14  1  0  0  0  0
 14 15  1  0  0  0  0
 14 16  1  0  0  0  0
 14 17  1  0  0  0  0
M  END
> <VConfSearch Rank>
840

> <Conf_Id>
43

> <Delta U+W>
0.642

> <U+W>
-15.222

> <U>
45.697

> <W>
-60.919

> <W(PB)>
-62.631

> <W(SA)>
1.712

> <Valence>
1.262

> <Coulomb>
44.179

> <VdW>
0.255

> <VdW6>
-3.552

> <VdW12>
3.807

> <Bond>
0.125

> <Angle>
0.616

> <Pdih>
0.521

> <Idih>
0.000

> <Tether>
0.000

$$$$
VeraChem MOL file


 17 16  0  0  0  0  0  0  0  0999 V2000     
   18.3088   17.6568   20.2234 N   0  3  0  0  0  0  0  0  0  0  0  0
   18.7369   17.8133   19.3059 H   0  0  0  0  0  0  0  0  0  0  0  0
   17.5056   18.2891   20.2924 H   0  0  0  0  0  0  0  0  0  0  0  0
   17.9348   16.7024   20.2169 H   0  0  0  0  0  0  0  0  0  0  0  0
   19.2961   17.8674   21.3541 C   0  0  0  0  0  0  0  0  0  0  0  0
   20.1060   17.1427   21.2344 H   0  0  0  0  0  0  0  0  0  0  0  0
   18.7820   17.6543   22.2952 H   0  0  0  0  0  0  0  0  0  0  0  0
   19.8783   19.2921   21.3936 C   0  0  0  0  0  0  0  0  0  0  0  0
   20.3803   19.5082   20.4411 H   0  0  0  0  0  0  0  0  0  0  0  0
   19.0609   20.0180   21.4985 H   0  0  0  0  0  0  0  0  0  0  0  0
   20.8780   19.4639   22.5584 C   0  0  0  0  0  0  0  0  0  0  0  0
   21.6947   18.7353   22.4558 H   0  0  0  0  0  0  0  0  0  0  0  0
   20.3769   19.2445   23.5118 H   0  0  0  0  0  0  0  0  0  0  0  0
   21.4662   20.8907   22.6044 C   0  0  0  0  0  0  0  0  0  0  0  0
   22.1734   20.9920   23.4379 H   0  0  0  0  0  0  0  0  0  0  0  0
   20.6757   21.6400   22.7412 H   0  0  0  0  0  0  0  0  0  0  0  0
   22.0038   21.1268   21.6768 H   0  0  0  0  0  0  0  0  0  0  0  0
  1  2  1  0  0  0  0
  1  3  1  0  0  0  0
  1  4  1  0  0  0  0
  1  5  1  0  0  0  0
  5  6  1  0  0  0  0
  5  7  1  0  0  0  0
  5  8  1  0  0  0  0
  8  9  1  0  0  0  0
  8 10  1  0  0  0  0
  8 11  1  0  0  0  0
 11 12  1  0  0  0  0
 11 13  1  0  0  0  0
 11 14  1  0  0  0  0
 14 15  1  0  0  0  0
 14 16  1  0  0  0  0
 14 17  1  0  0  0  0
M  END
> <VConfSearch Rank>
841

> <Conf_Id>
7

> <Delta U+W>
0.000

> <U+W>
-15.865

> <U>
44.664

> <W>
-60.529

> <W(PB)>
-62.309

> <W(SA)>
1.780

> <Valence>
0.872

> <Coulomb>
43.648

> <VdW>
0.144

> <VdW6>
-2.370

> <VdW12>
2.515

> <Bond>
0.080

> <Angle>
0.376

> <Pdih>
0.416

> <Idih>
0.000

> <Tether>
0.000

$$$$
VeraChem MOL file


 17 16  0  0  0  0  0  0  0  0999 V2000     
   19.6292   20.9628   20.1191 N   0  3  0  0  0  0  0  0  0  0  0  0
   18.7787   21.4671   20.3876 H   0  0  0  0  0  0  0  0  0  0  0  0
   19.4075   20.4282   19.2737 H   0  0  0  0  0  0  0  0  0  0  0  0
   20.3204   21.6702   19.8498 H   0  0  0  0  0  0  0  0  0  0  0  0
   20.1385   20.0734   21.2358 C   0  0  0  0  0  0  0  0  0  0  0  0
   20.3823   20.7102   22.0905 H   0  0  0  0  0  0  0  0  0  0  0  0
   21.0589   19.5951   20.8909 H   0  0  0  0  0  0  0  0  0  0  0  0
   19.1229   18.9972   21.6654 C   0  0  0  0  0  0  0  0  0  0  0  0
   18.1886   19.4861   21.9718 H   0  0  0  0  0  0  0  0  0  0  0  0
   18.8768   18.3587   20.8065 H   0  0  0  0  0  0  0  0  0  0  0  0
   19.6389   18.1219   22.8314 C   0  0  0  0  0  0  0  0  0  0  0  0
   18.8406   17.4326   23.1406 H   0  0  0  0  0  0  0  0  0  0  0  0
   19.8542   18.7558   23.7032 H   0  0  0  0  0  0  0  0  0  0  0  0
   20.8968   17.3030   22.4615 C   0  0  0  0  0  0  0  0  0  0  0  0
   20.7100   16.6646   21.5883 H   0  0  0  0  0  0  0  0  0  0  0  0
   21.1913   16.6522   23.2951 H   0  0  0  0  0  0  0  0  0  0  0  0
   21.7498   17.9546   22.2336 H   0  0  0  0  0  0  0  0  0  0  0  0
  1  2  1  0  0  0  0
  1  3  1  0  0  0  0
  1  4  1  0  0  0  0
  1  5  1  0  0  0  0
  5  6  1  0  0  0  0
  5  7  1  0  0  0  0
  5  8  1  0  0  0  0
  8  9  1  0  0  0  0
  8 10  1  0  0  0  0
  8 11  1  0  0  0  0
 11 12  1  0  0  0  0
 11 13  1  0  0  0  0
 11 14  1  0  0  0  0
 14 15  1  0  0  0  0
 14 16  1  0  0  0  0
 14 17  1  0  0  0  0
M  END
> <VConfSearch Rank>
842

> <Conf_Id>
36

> <Delta U+W>
0.275

> <U+W>
-15.590

> <U>
45.174

> <W>
-60.765

> <W(PB)>
-62.518

> <W(SA)>
1.754

> <Valence>
1.161

> <Coulomb>
43.789

> <VdW>
0.224

> <VdW6>
-2.897

> <VdW12>
3.121

> <Bond>
0.100

> <Angle>
0.500

> <Pdih>
0.561

> <Idih>
0.000

> <Tether>
0.000

$$$$
VeraChem MOL file


 17 16  0  0  0  0  0  0  0  0999 V2000     
   19.2187   18.7573   19.9032 N   0  3  0  0  0  0  0  0  0  0  0  0
   18.6472   19.3927   20.4659 H   0  0  0  0  0  0  0  0  0  0  0  0
   18.7539   17.8444   19.9141 H   0  0  0  0  0  0  0  0  0  0  0  0
   19.1853   19.0963   18.9364 H   0  0  0  0  0  0  0  0  0  0  0  0
   20.6411   18.6716   20.4222 C   0  0  0  0  0  0  0  0  0  0  0  0
   21.1075   19.6555   20.3236 H   0  0  0  0  0  0  0  0  0  0  0  0
   21.1779   17.9765   19.7708 H   0  0  0  0  0  0  0  0  0  0  0  0
   20.7557   18.1832   21.8816 C   0  0  0  0  0  0  0  0  0  0  0  0
   20.0856   17.3289   22.0455 H   0  0  0  0  0  0  0  0  0  0  0  0
   21.7741   17.7993   22.0273 H   0  0  0  0  0  0  0  0  0  0  0  0
   20.5025   19.2793   22.9480 C   0  0  0  0  0  0  0  0  0  0  0  0
   21.2210   20.0999   22.8123 H   0  0  0  0  0  0  0  0  0  0  0  0
   20.7121   18.8529   23.9390 H   0  0  0  0  0  0  0  0  0  0  0  0
   19.0654   19.8482   22.9509 C   0  0  0  0  0  0  0  0  0  0  0  0
   18.8753   20.4657   22.0654 H   0  0  0  0  0  0  0  0  0  0  0  0
   18.9114   20.4885   23.8293 H   0  0  0  0  0  0  0  0  0  0  0  0
   18.3186   19.0445   22.9899 H   0  0  0  0  0  0  0  0  0  0  0  0
  1  2  1  0  0  0  0
  1  3  1  0  0  0  0
  1  4  1  0  0  0  0
  1  5  1  0  0  0  0
  5  6  1  0  0  0  0
  5  7  1  0  0  0  0
  5  8  1  0  0  0  0
  8  9  1  0  0  0  0
  8 10  1  0  0  0  0
  8 11  1  0  0  0  0
 11 12  1  0  0  0  0
 11 13  1  0  0  0  0
 11 14  1  0  0  0  0
 14 15  1  0  0  0  0
 14 16  1  0  0  0  0
 14 17  1  0  0  0  0
M  END
> <VConfSearch Rank>
843

> <Conf_Id>
19

> <Delta U+W>
2.662

> <U+W>
-13.203

> <U>
47.423

> <W>
-60.626

> <W(PB)>
-62.328

> <W(SA)>
1.702

> <Valence>
2.414

> <Coulomb>
44.831

> <VdW>
0.178

> <VdW6>
-3.743

> <VdW12>
3.921

> <Bond>
0.138

> <Angle>
0.941

> <Pdih>
1.335

> <Idih>
0.000

> <Tether>
0.000

$$$$
VeraChem MOL file


 17 16  0  0  0  0  0  0  0  0999 V2000     
   20.3536   20.0173   23.1229 N   0  3  0  0  0  0  0  0  0  0  0  0
   20.9974   20.0952   23.9168 H   0  0  0  0  0  0  0  0  0  0  0  0
   19.5794   20.6632   23.3037 H   0  0  0  0  0  0  0  0  0  0  0  0
   20.8487   20.3645   22.2975 H   0  0  0  0  0  0  0  0  0  0  0  0
   19.8666   18.5941   22.9291 C   0  0  0  0  0  0  0  0  0  0  0  0
   19.3514   18.3044   23.8489 H   0  0  0  0  0  0  0  0  0  0  0  0
   20.7359   17.9420   22.8090 H   0  0  0  0  0  0  0  0  0  0  0  0
   18.9062   18.4093   21.7353 C   0  0  0  0  0  0  0  0  0  0  0  0
   18.3337   17.4878   21.9057 H   0  0  0  0  0  0  0  0  0  0  0  0
   18.1689   19.2228   21.7170 H   0  0  0  0  0  0  0  0  0  0  0  0
   19.6080   18.2866   20.3587 C   0  0  0  0  0  0  0  0  0  0  0  0
   18.8462   18.0542   19.6014 H   0  0  0  0  0  0  0  0  0  0  0  0
   20.2965   17.4300   20.3699 H   0  0  0  0  0  0  0  0  0  0  0  0
   20.3716   19.5552   19.9154 C   0  0  0  0  0  0  0  0  0  0  0  0
   19.7358   20.4476   19.9842 H   0  0  0  0  0  0  0  0  0  0  0  0
   20.6970   19.4581   18.8715 H   0  0  0  0  0  0  0  0  0  0  0  0
   21.2722   19.7145   20.5197 H   0  0  0  0  0  0  0  0  0  0  0  0
  1  2  1  0  0  0  0
  1  3  1  0  0  0  0
  1  4  1  0  0  0  0
  1  5  1  0  0  0  0
  5  6  1  0  0  0  0
  5  7  1  0  0  0  0
  5  8  1  0  0  0  0
  8  9  1  0  0  0  0
  8 10  1  0  0  0  0
  8 11  1  0  0  0  0
 11 12  1  0  0  0  0
 11 13  1  0  0  0  0
 11 14  1  0  0  0  0
 14 15  1  0  0  0  0
 14 16  1  0  0  0  0
 14 17  1  0  0  0  0
M  END
> <VConfSearch Rank>
844

> <Conf_Id>
44

> <Delta U+W>
2.712

> <U+W>
-13.153

> <U>
47.423

> <W>
-60.576

> <W(PB)>
-62.262

> <W(SA)>
1.687

> <Valence>
2.414

> <Coulomb>
44.831

> <VdW>
0.178

> <VdW6>
-3.743

> <VdW12>
3.922

> <Bond>
0.138

> <Angle>
0.941

> <Pdih>
1.335

> <Idih>
0.000

> <Tether>
0.000

$$$$
VeraChem MOL file


 17 16  0  0  0  0  0  0  0  0999 V2000     
   19.0100   19.1831   23.3596 N   0  3  0  0  0  0  0  0  0  0  0  0
   19.7883   18.5280   23.4755 H   0  0  0  0  0  0  0  0  0  0  0  0
   18.1457   18.6337   23.3828 H   0  0  0  0  0  0  0  0  0  0  0  0
   19.0012   19.7869   24.1878 H   0  0  0  0  0  0  0  0  0  0  0  0
   19.1365   19.9848   22.0785 C   0  0  0  0  0  0  0  0  0  0  0  0
   20.0601   20.5669   22.1321 H   0  0  0  0  0  0  0  0  0  0  0  0
   18.2976   20.6851   22.0397 H   0  0  0  0  0  0  0  0  0  0  0  0
   19.1397   19.1205   20.8007 C   0  0  0  0  0  0  0  0  0  0  0  0
   18.1913   18.5709   20.7349 H   0  0  0  0  0  0  0  0  0  0  0  0
   19.1689   19.7852   19.9271 H   0  0  0  0  0  0  0  0  0  0  0  0
   20.3200   18.1205   20.7195 C   0  0  0  0  0  0  0  0  0  0  0  0
   20.2308   17.5429   19.7887 H   0  0  0  0  0  0  0  0  0  0  0  0
   20.2528   17.3900   21.5370 H   0  0  0  0  0  0  0  0  0  0  0  0
   21.7024   18.8117   20.7510 C   0  0  0  0  0  0  0  0  0  0  0  0
   21.7944   19.5471   19.9413 H   0  0  0  0  0  0  0  0  0  0  0  0
   22.5049   18.0734   20.6254 H   0  0  0  0  0  0  0  0  0  0  0  0
   21.8741   19.3281   21.7038 H   0  0  0  0  0  0  0  0  0  0  0  0
  1  2  1  0  0  0  0
  1  3  1  0  0  0  0
  1  4  1  0  0  0  0
  1  5  1  0  0  0  0
  5  6  1  0  0  0  0
  5  7  1  0  0  0  0
  5  8  1  0  0  0  0
  8  9  1  0  0  0  0
  8 10  1  0  0  0  0
  8 11  1  0  0  0  0
 11 12  1  0  0  0  0
 11 13  1  0  0  0  0
 11 14  1  0  0  0  0
 14 15  1  0  0  0  0
 14 16  1  0  0  0  0
 14 17  1  0  0  0  0
M  END
> <VConfSearch Rank>
845

> <Conf_Id>
1

> <Delta U+W>
0.685

> <U+W>
-15.179

> <U>
45.697

> <W>
-60.876

> <W(PB)>
-62.586

> <W(SA)>
1.710

> <Valence>
1.263

> <Coulomb>
44.179

> <VdW>
0.255

> <VdW6>
-3.552

> <VdW12>
3.807

> <Bond>
0.125

> <Angle>
0.616

> <Pdih>
0.521

> <Idih>
0.000

> <Tether>
0.000

$$$$
VeraChem MOL file


 17 16  0  0  0  0  0  0  0  0999 V2000     
   18.8539   20.6481   21.1772 N   0  3  0  0  0  0  0  0  0  0  0  0
   19.4502   21.4711   21.0486 H   0  0  0  0  0  0  0  0  0  0  0  0
   18.7725   20.4877   22.1852 H   0  0  0  0  0  0  0  0  0  0  0  0
   17.9203   20.9012   20.8381 H   0  0  0  0  0  0  0  0  0  0  0  0
   19.4048   19.4322   20.4574 C   0  0  0  0  0  0  0  0  0  0  0  0
   19.4285   19.6605   19.3884 H   0  0  0  0  0  0  0  0  0  0  0  0
   18.7092   18.6030   20.6105 H   0  0  0  0  0  0  0  0  0  0  0  0
   20.8166   19.0196   20.9229 C   0  0  0  0  0  0  0  0  0  0  0  0
   21.1574   18.1771   20.3066 H   0  0  0  0  0  0  0  0  0  0  0  0
   21.5156   19.8436   20.7276 H   0  0  0  0  0  0  0  0  0  0  0  0
   20.8958   18.6218   22.4179 C   0  0  0  0  0  0  0  0  0  0  0  0
   20.6459   19.4835   23.0517 H   0  0  0  0  0  0  0  0  0  0  0  0
   21.9353   18.3592   22.6595 H   0  0  0  0  0  0  0  0  0  0  0  0
   19.9803   17.4289   22.7764 C   0  0  0  0  0  0  0  0  0  0  0  0
   20.1172   17.1404   23.8266 H   0  0  0  0  0  0  0  0  0  0  0  0
   20.2118   16.5534   22.1560 H   0  0  0  0  0  0  0  0  0  0  0  0
   18.9205   17.6768   22.6370 H   0  0  0  0  0  0  0  0  0  0  0  0
  1  2  1  0  0  0  0
  1  3  1  0  0  0  0
  1  4  1  0  0  0  0
  1  5  1  0  0  0  0
  5  6  1  0  0  0  0
  5  7  1  0  0  0  0
  5  8  1  0  0  0  0
  8  9  1  0  0  0  0
  8 10  1  0  0  0  0
  8 11  1  0  0  0  0
 11 12  1  0  0  0  0
 11 13  1  0  0  0  0
 11 14  1  0  0  0  0
 14 15  1  0  0  0  0
 14 16  1  0  0  0  0
 14 17  1  0  0  0  0
M  END
> <VConfSearch Rank>
846

> <Conf_Id>
43

> <Delta U+W>
0.642

> <U+W>
-15.222

> <U>
45.697

> <W>
-60.919

> <W(PB)>
-62.631

> <W(SA)>
1.712

> <Valence>
1.262

> <Coulomb>
44.179

> <VdW>
0.255

> <VdW6>
-3.552

> <VdW12>
3.807

> <Bond>
0.125

> <Angle>
0.616

> <Pdih>
0.521

> <Idih>
0.000

> <Tether>
0.000

$$$$
VeraChem MOL file


 17 16  0  0  0  0  0  0  0  0999 V2000     
   21.3433   20.9937   22.5665 N   0  3  0  0  0  0  0  0  0  0  0  0
   21.3061   20.7063   23.5492 H   0  0  0  0  0  0  0  0  0  0  0  0
   20.6447   21.7329   22.4427 H   0  0  0  0  0  0  0  0  0  0  0  0
   22.2611   21.4257   22.4187 H   0  0  0  0  0  0  0  0  0  0  0  0
   21.1106   19.8289   21.6249 C   0  0  0  0  0  0  0  0  0  0  0  0
   21.9061   19.0972   21.7901 H   0  0  0  0  0  0  0  0  0  0  0  0
   21.1949   20.2011   20.6003 H   0  0  0  0  0  0  0  0  0  0  0  0
   19.7398   19.1558   21.8197 C   0  0  0  0  0  0  0  0  0  0  0  0
   19.6526   18.7971   22.8540 H   0  0  0  0  0  0  0  0  0  0  0  0
   18.9439   19.8971   21.6681 H   0  0  0  0  0  0  0  0  0  0  0  0
   19.5436   17.9759   20.8425 C   0  0  0  0  0  0  0  0  0  0  0  0
   20.3418   17.2350   20.9915 H   0  0  0  0  0  0  0  0  0  0  0  0
   19.6339   18.3337   19.8071 H   0  0  0  0  0  0  0  0  0  0  0  0
   18.1705   17.2957   21.0321 C   0  0  0  0  0  0  0  0  0  0  0  0
   18.0509   16.4609   20.3294 H   0  0  0  0  0  0  0  0  0  0  0  0
   17.3506   18.0040   20.8555 H   0  0  0  0  0  0  0  0  0  0  0  0
   18.0641   16.8967   22.0493 H   0  0  0  0  0  0  0  0  0  0  0  0
  1  2  1  0  0  0  0
  1  3  1  0  0  0  0
  1  4  1  0  0  0  0
  1  5  1  0  0  0  0
  5  6  1  0  0  0  0
  5  7  1  0  0  0  0
  5  8  1  0  0  0  0
  8  9  1  0  0  0  0
  8 10  1  0  0  0  0
  8 11  1  0  0  0  0
 11 12  1  0  0  0  0
 11 13  1  0  0  0  0
 11 14  1  0  0  0  0
 14 15  1  0  0  0  0
 14 16  1  0  0  0  0
 14 17  1  0  0  0  0
M  END
> <VConfSearch Rank>
847

> <Conf_Id>
7

> <Delta U+W>
0.000

> <U+W>
-15.865

> <U>
44.664

> <W>
-60.529

> <W(PB)>
-62.309

> <W(SA)>
1.780

> <Valence>
0.872

> <Coulomb>
43.648

> <VdW>
0.144

> <VdW6>
-2.370

> <VdW12>
2.515

> <Bond>
0.080

> <Angle>
0.376

> <Pdih>
0.416

> <Idih>
0.000

> <Tether>
0.000

$$$$
VeraChem MOL file


 17 16  0  0  0  0  0  0  0  0999 V2000     
   19.5452   17.7388   19.6611 N   0  3  0  0  0  0  0  0  0  0  0  0
   20.2294   16.9763   19.6507 H   0  0  0  0  0  0  0  0  0  0  0  0
   19.8445   18.4209   18.9576 H   0  0  0  0  0  0  0  0  0  0  0  0
   18.6575   17.3448   19.3330 H   0  0  0  0  0  0  0  0  0  0  0  0
   19.4111   18.3629   21.0358 C   0  0  0  0  0  0  0  0  0  0  0  0
   19.0615   17.5897   21.7253 H   0  0  0  0  0  0  0  0  0  0  0  0
   18.6464   19.1419   20.9779 H   0  0  0  0  0  0  0  0  0  0  0  0
   20.7286   18.9658   21.5596 C   0  0  0  0  0  0  0  0  0  0  0  0
   21.5003   18.1847   21.5760 H   0  0  0  0  0  0  0  0  0  0  0  0
   21.0806   19.7413   20.8663 H   0  0  0  0  0  0  0  0  0  0  0  0
   20.5881   19.5642   22.9788 C   0  0  0  0  0  0  0  0  0  0  0  0
   21.5756   19.9023   23.3230 H   0  0  0  0  0  0  0  0  0  0  0  0
   20.2679   18.7813   23.6808 H   0  0  0  0  0  0  0  0  0  0  0  0
   19.5997   20.7513   23.0389 C   0  0  0  0  0  0  0  0  0  0  0  0
   19.8940   21.5462   22.3413 H   0  0  0  0  0  0  0  0  0  0  0  0
   19.5774   21.1830   24.0480 H   0  0  0  0  0  0  0  0  0  0  0  0
   18.5777   20.4383   22.7906 H   0  0  0  0  0  0  0  0  0  0  0  0
  1  2  1  0  0  0  0
  1  3  1  0  0  0  0
  1  4  1  0  0  0  0
  1  5  1  0  0  0  0
  5  6  1  0  0  0  0
  5  7  1  0  0  0  0
  5  8  1  0  0  0  0
  8  9  1  0  0  0  0
  8 10  1  0  0  0  0
  8 11  1  0  0  0  0
 11 12  1  0  0  0  0
 11 13  1  0  0  0  0
 11 14  1  0  0  0  0
 14 15  1  0  0  0  0
 14 16  1  0  0  0  0
 14 17  1  0  0  0  0
M  END
> <VConfSearch Rank>
848

> <Conf_Id>
36

> <Delta U+W>
0.275

> <U+W>
-15.590

> <U>
45.174

> <W>
-60.765

> <W(PB)>
-62.518

> <W(SA)>
1.754

> <Valence>
1.161

> <Coulomb>
43.789

> <VdW>
0.224

> <VdW6>
-2.897

> <VdW12>
3.121

> <Bond>
0.100

> <Angle>
0.500

> <Pdih>
0.561

> <Idih>
0.000

> <Tether>
0.000

$$$$
VeraChem MOL file


 17 16  0  0  0  0  0  0  0  0999 V2000     
   19.2160   17.7792   20.3876 N   0  3  0  0  0  0  0  0  0  0  0  0
   19.0064   18.7444   20.1205 H   0  0  0  0  0  0  0  0  0  0  0  0
   18.3745   17.4001   20.8323 H   0  0  0  0  0  0  0  0  0  0  0  0
   19.3586   17.2498   19.5215 H   0  0  0  0  0  0  0  0  0  0  0  0
   20.4223   17.6985   21.3032 C   0  0  0  0  0  0  0  0  0  0  0  0
   21.2998   18.0513   20.7548 H   0  0  0  0  0  0  0  0  0  0  0  0
   20.5741   16.6418   21.5397 H   0  0  0  0  0  0  0  0  0  0  0  0
   20.2746   18.4919   22.6186 C   0  0  0  0  0  0  0  0  0  0  0  0
   19.2781   18.3244   23.0484 H   0  0  0  0  0  0  0  0  0  0  0  0
   20.9884   18.0764   23.3423 H   0  0  0  0  0  0  0  0  0  0  0  0
   20.5573   20.0104   22.4885 C   0  0  0  0  0  0  0  0  0  0  0  0
   21.5800   20.1654   22.1172 H   0  0  0  0  0  0  0  0  0  0  0  0
   20.5282   20.4551   23.4932 H   0  0  0  0  0  0  0  0  0  0  0  0
   19.5604   20.7709   21.5848 C   0  0  0  0  0  0  0  0  0  0  0  0
   19.6957   20.5108   20.5285 H   0  0  0  0  0  0  0  0  0  0  0  0
   19.7171   21.8539   21.6725 H   0  0  0  0  0  0  0  0  0  0  0  0
   18.5218   20.5605   21.8716 H   0  0  0  0  0  0  0  0  0  0  0  0
  1  2  1  0  0  0  0
  1  3  1  0  0  0  0
  1  4  1  0  0  0  0
  1  5  1  0  0  0  0
  5  6  1  0  0  0  0
  5  7  1  0  0  0  0
  5  8  1  0  0  0  0
  8  9  1  0  0  0  0
  8 10  1  0  0  0  0
  8 11  1  0  0  0  0
 11 12  1  0  0  0  0
 11 13  1  0  0  0  0
 11 14  1  0  0  0  0
 14 15  1  0  0  0  0
 14 16  1  0  0  0  0
 14 17  1  0  0  0  0
M  END
> <VConfSearch Rank>
849

> <Conf_Id>
19

> <Delta U+W>
2.662

> <U+W>
-13.203

> <U>
47.423

> <W>
-60.626

> <W(PB)>
-62.328

> <W(SA)>
1.702

> <Valence>
2.414

> <Coulomb>
44.831

> <VdW>
0.178

> <VdW6>
-3.743

> <VdW12>
3.921

> <Bond>
0.138

> <Angle>
0.941

> <Pdih>
1.335

> <Idih>
0.000

> <Tether>
0.000

$$$$
VeraChem MOL file


 17 16  0  0  0  0  0  0  0  0999 V2000     
   21.2375   19.3656   20.3670 N   0  3  0  0  0  0  0  0  0  0  0  0
   22.1768   19.7433   20.2062 H   0  0  0  0  0  0  0  0  0  0  0  0
   20.8283   19.1847   19.4454 H   0  0  0  0  0  0  0  0  0  0  0  0
   21.3513   18.4597   20.8288 H   0  0  0  0  0  0  0  0  0  0  0  0
   20.3820   20.3115   21.1876 C   0  0  0  0  0  0  0  0  0  0  0  0
   20.3101   21.2467   20.6257 H   0  0  0  0  0  0  0  0  0  0  0  0
   20.8988   20.5212   22.1279 H   0  0  0  0  0  0  0  0  0  0  0  0
   18.9593   19.7893   21.4788 C   0  0  0  0  0  0  0  0  0  0  0  0
   18.3280   20.6546   21.7208 H   0  0  0  0  0  0  0  0  0  0  0  0
   18.5285   19.3468   20.5708 H   0  0  0  0  0  0  0  0  0  0  0  0
   18.8708   18.7896   22.6601 C   0  0  0  0  0  0  0  0  0  0  0  0
   17.8107   18.5667   22.8460 H   0  0  0  0  0  0  0  0  0  0  0  0
   19.2462   19.2662   23.5765 H   0  0  0  0  0  0  0  0  0  0  0  0
   19.6203   17.4580   22.4279 C   0  0  0  0  0  0  0  0  0  0  0  0
   19.3361   17.0023   21.4704 H   0  0  0  0  0  0  0  0  0  0  0  0
   19.3773   16.7409   23.2229 H   0  0  0  0  0  0  0  0  0  0  0  0
   20.7072   17.6000   22.4439 H   0  0  0  0  0  0  0  0  0  0  0  0
  1  2  1  0  0  0  0
  1  3  1  0  0  0  0
  1  4  1  0  0  0  0
  1  5  1  0  0  0  0
  5  6  1  0  0  0  0
  5  7  1  0  0  0  0
  5  8  1  0  0  0  0
  8  9  1  0  0  0  0
  8 10  1  0  0  0  0
  8 11  1  0  0  0  0
 11 12  1  0  0  0  0
 11 13  1  0  0  0  0
 11 14  1  0  0  0  0
 14 15  1  0  0  0  0
 14 16  1  0  0  0  0
 14 17  1  0  0  0  0
M  END
> <VConfSearch Rank>
850

> <Conf_Id>
44

> <Delta U+W>
2.712

> <U+W>
-13.153

> <U>
47.423

> <W>
-60.576

> <W(PB)>
-62.262

> <W(SA)>
1.687

> <Valence>
2.414

> <Coulomb>
44.831

> <VdW>
0.178

> <VdW6>
-3.743

> <VdW12>
3.922

> <Bond>
0.138

> <Angle>
0.941

> <Pdih>
1.335

> <Idih>
0.000

> <Tether>
0.000

$$$$
VeraChem MOL file


 17 16  0  0  0  0  0  0  0  0999 V2000     
   20.1098   19.2906   23.5602 N   0  3  0  0  0  0  0  0  0  0  0  0
   19.1436   19.5286   23.3189 H   0  0  0  0  0  0  0  0  0  0  0  0
   20.5914   20.1672   23.7817 H   0  0  0  0  0  0  0  0  0  0  0  0
   20.0757   18.7428   24.4259 H   0  0  0  0  0  0  0  0  0  0  0  0
   20.7983   18.5339   22.4407 C   0  0  0  0  0  0  0  0  0  0  0  0
   20.2536   17.6006   22.2766 H   0  0  0  0  0  0  0  0  0  0  0  0
   21.8065   18.2814   22.7804 H   0  0  0  0  0  0  0  0  0  0  0  0
   20.8878   19.3235   21.1185 C   0  0  0  0  0  0  0  0  0  0  0  0
   21.4712   20.2389   21.2841 H   0  0  0  0  0  0  0  0  0  0  0  0
   21.4545   18.7274   20.3910 H   0  0  0  0  0  0  0  0  0  0  0  0
   19.5115   19.6938   20.5115 C   0  0  0  0  0  0  0  0  0  0  0  0
   19.6748   20.2633   19.5858 H   0  0  0  0  0  0  0  0  0  0  0  0
   18.9686   20.3666   21.1892 H   0  0  0  0  0  0  0  0  0  0  0  0
   18.6378   18.4588   20.1938 C   0  0  0  0  0  0  0  0  0  0  0  0
   19.1591   17.7704   19.5160 H   0  0  0  0  0  0  0  0  0  0  0  0
   17.7025   18.7637   19.7067 H   0  0  0  0  0  0  0  0  0  0  0  0
   18.3719   17.9071   21.1043 H   0  0  0  0  0  0  0  0  0  0  0  0
  1  2  1  0  0  0  0
  1  3  1  0  0  0  0
  1  4  1  0  0  0  0
  1  5  1  0  0  0  0
  5  6  1  0  0  0  0
  5  7  1  0  0  0  0
  5  8  1  0  0  0  0
  8  9  1  0  0  0  0
  8 10  1  0  0  0  0
  8 11  1  0  0  0  0
 11 12  1  0  0  0  0
 11 13  1  0  0  0  0
 11 14  1  0  0  0  0
 14 15  1  0  0  0  0
 14 16  1  0  0  0  0
 14 17  1  0  0  0  0
M  END
> <VConfSearch Rank>
851

> <Conf_Id>
1

> <Delta U+W>
0.685

> <U+W>
-15.179

> <U>
45.697

> <W>
-60.876

> <W(PB)>
-62.586

> <W(SA)>
1.710

> <Valence>
1.263

> <Coulomb>
44.179

> <VdW>
0.255

> <VdW6>
-3.552

> <VdW12>
3.807

> <Bond>
0.125

> <Angle>
0.616

> <Pdih>
0.521

> <Idih>
0.000

> <Tether>
0.000

$$$$
VeraChem MOL file


 17 16  0  0  0  0  0  0  0  0999 V2000     
   18.0543   18.3739   21.7139 N   0  3  0  0  0  0  0  0  0  0  0  0
   17.9933   17.3729   21.5048 H   0  0  0  0  0  0  0  0  0  0  0  0
   18.1470   18.8647   20.8200 H   0  0  0  0  0  0  0  0  0  0  0  0
   17.1521   18.6497   22.1146 H   0  0  0  0  0  0  0  0  0  0  0  0
   19.2063   18.6873   22.6491 C   0  0  0  0  0  0  0  0  0  0  0  0
   19.0228   18.1628   23.5908 H   0  0  0  0  0  0  0  0  0  0  0  0
   19.1954   19.7612   22.8529 H   0  0  0  0  0  0  0  0  0  0  0  0
   20.5867   18.2766   22.0962 C   0  0  0  0  0  0  0  0  0  0  0  0
   21.3467   18.4809   22.8620 H   0  0  0  0  0  0  0  0  0  0  0  0
   20.6011   17.1908   21.9333 H   0  0  0  0  0  0  0  0  0  0  0  0
   20.9798   18.9987   20.7833 C   0  0  0  0  0  0  0  0  0  0  0  0
   20.2792   18.7309   19.9807 H   0  0  0  0  0  0  0  0  0  0  0  0
   21.9648   18.6338   20.4602 H   0  0  0  0  0  0  0  0  0  0  0  0
   21.0379   20.5363   20.9320 C   0  0  0  0  0  0  0  0  0  0  0  0
   21.3828   21.0006   19.9990 H   0  0  0  0  0  0  0  0  0  0  0  0
   21.7336   20.8297   21.7289 H   0  0  0  0  0  0  0  0  0  0  0  0
   20.0520   20.9571   21.1661 H   0  0  0  0  0  0  0  0  0  0  0  0
  1  2  1  0  0  0  0
  1  3  1  0  0  0  0
  1  4  1  0  0  0  0
  1  5  1  0  0  0  0
  5  6  1  0  0  0  0
  5  7  1  0  0  0  0
  5  8  1  0  0  0  0
  8  9  1  0  0  0  0
  8 10  1  0  0  0  0
  8 11  1  0  0  0  0
 11 12  1  0  0  0  0
 11 13  1  0  0  0  0
 11 14  1  0  0  0  0
 14 15  1  0  0  0  0
 14 16  1  0  0  0  0
 14 17  1  0  0  0  0
M  END
> <VConfSearch Rank>
852

> <Conf_Id>
43

> <Delta U+W>
0.642

> <U+W>
-15.222

> <U>
45.697

> <W>
-60.919

> <W(PB)>
-62.631

> <W(SA)>
1.712

> <Valence>
1.262

> <Coulomb>
44.179

> <VdW>
0.255

> <VdW6>
-3.552

> <VdW12>
3.807

> <Bond>
0.125

> <Angle>
0.616

> <Pdih>
0.521

> <Idih>
0.000

> <Tether>
0.000

$$$$
VeraChem MOL file


 17 16  0  0  0  0  0  0  0  0999 V2000     
   21.7538   20.2267   23.0161 N   0  3  0  0  0  0  0  0  0  0  0  0
   21.1303   20.6124   23.7317 H   0  0  0  0  0  0  0  0  0  0  0  0
   21.9660   20.9856   22.3614 H   0  0  0  0  0  0  0  0  0  0  0  0
   22.6325   19.9872   23.4867 H   0  0  0  0  0  0  0  0  0  0  0  0
   21.1438   19.0278   22.3175 C   0  0  0  0  0  0  0  0  0  0  0  0
   20.9736   18.2506   23.0675 H   0  0  0  0  0  0  0  0  0  0  0  0
   21.8723   18.6519   21.5940 H   0  0  0  0  0  0  0  0  0  0  0  0
   19.8212   19.3523   21.5993 C   0  0  0  0  0  0  0  0  0  0  0  0
   19.0973   19.7440   22.3262 H   0  0  0  0  0  0  0  0  0  0  0  0
   19.9929   20.1438   20.8577 H   0  0  0  0  0  0  0  0  0  0  0  0
   19.2342   18.1055   20.9018 C   0  0  0  0  0  0  0  0  0  0  0  0
   19.0652   17.3117   21.6432 H   0  0  0  0  0  0  0  0  0  0  0  0
   19.9597   17.7110   20.1763 H   0  0  0  0  0  0  0  0  0  0  0  0
   17.9073   18.4234   20.1792 C   0  0  0  0  0  0  0  0  0  0  0  0
   17.5070   17.5255   19.6907 H   0  0  0  0  0  0  0  0  0  0  0  0
   18.0514   19.1903   19.4070 H   0  0  0  0  0  0  0  0  0  0  0  0
   17.1499   18.7878   20.8854 H   0  0  0  0  0  0  0  0  0  0  0  0
  1  2  1  0  0  0  0
  1  3  1  0  0  0  0
  1  4  1  0  0  0  0
  1  5  1  0  0  0  0
  5  6  1  0  0  0  0
  5  7  1  0  0  0  0
  5  8  1  0  0  0  0
  8  9  1  0  0  0  0
  8 10  1  0  0  0  0
  8 11  1  0  0  0  0
 11 12  1  0  0  0  0
 11 13  1  0  0  0  0
 11 14  1  0  0  0  0
 14 15  1  0  0  0  0
 14 16  1  0  0  0  0
 14 17  1  0  0  0  0
M  END
> <VConfSearch Rank>
853

> <Conf_Id>
7

> <Delta U+W>
0.000

> <U+W>
-15.865

> <U>
44.664

> <W>
-60.529

> <W(PB)>
-62.309

> <W(SA)>
1.780

> <Valence>
0.872

> <Coulomb>
43.648

> <VdW>
0.144

> <VdW6>
-2.370

> <VdW12>
2.515

> <Bond>
0.080

> <Angle>
0.376

> <Pdih>
0.416

> <Idih>
0.000

> <Tether>
0.000

$$$$
VeraChem MOL file


 17 16  0  0  0  0  0  0  0  0999 V2000     
   19.6598   19.2813   19.2284 N   0  3  0  0  0  0  0  0  0  0  0  0
   20.2854   18.6088   18.7746 H   0  0  0  0  0  0  0  0  0  0  0  0
   20.0796   20.2086   19.1119 H   0  0  0  0  0  0  0  0  0  0  0  0
   18.7862   19.2819   18.6920 H   0  0  0  0  0  0  0  0  0  0  0  0
   19.4253   18.9437   20.6873 C   0  0  0  0  0  0  0  0  0  0  0  0
   18.9506   17.9599   20.7344 H   0  0  0  0  0  0  0  0  0  0  0  0
   18.7283   19.6806   21.0947 H   0  0  0  0  0  0  0  0  0  0  0  0
   20.7193   18.9344   21.5235 C   0  0  0  0  0  0  0  0  0  0  0  0
   21.4276   18.2204   21.0825 H   0  0  0  0  0  0  0  0  0  0  0  0
   21.1969   19.9220   21.4749 H   0  0  0  0  0  0  0  0  0  0  0  0
   20.4719   18.5503   23.0011 C   0  0  0  0  0  0  0  0  0  0  0  0
   21.4388   18.4840   23.5194 H   0  0  0  0  0  0  0  0  0  0  0  0
   20.0243   17.5477   23.0532 H   0  0  0  0  0  0  0  0  0  0  0  0
   19.5693   19.5610   23.7452 C   0  0  0  0  0  0  0  0  0  0  0  0
   19.9915   20.5735   23.7030 H   0  0  0  0  0  0  0  0  0  0  0  0
   19.4708   19.2833   24.8027 H   0  0  0  0  0  0  0  0  0  0  0  0
   18.5598   19.5924   23.3162 H   0  0  0  0  0  0  0  0  0  0  0  0
  1  2  1  0  0  0  0
  1  3  1  0  0  0  0
  1  4  1  0  0  0  0
  1  5  1  0  0  0  0
  5  6  1  0  0  0  0
  5  7  1  0  0  0  0
  5  8  1  0  0  0  0
  8  9  1  0  0  0  0
  8 10  1  0  0  0  0
  8 11  1  0  0  0  0
 11 12  1  0  0  0  0
 11 13  1  0  0  0  0
 11 14  1  0  0  0  0
 14 15  1  0  0  0  0
 14 16  1  0  0  0  0
 14 17  1  0  0  0  0
M  END
> <VConfSearch Rank>
854

> <Conf_Id>
36

> <Delta U+W>
0.275

> <U+W>
-15.590

> <U>
45.174

> <W>
-60.765

> <W(PB)>
-62.518

> <W(SA)>
1.754

> <Valence>
1.161

> <Coulomb>
43.789

> <VdW>
0.224

> <VdW6>
-2.897

> <VdW12>
3.121

> <Bond>
0.100

> <Angle>
0.500

> <Pdih>
0.561

> <Idih>
0.000

> <Tether>
0.000

$$$$
VeraChem MOL file


 17 16  0  0  0  0  0  0  0  0999 V2000     
   20.4464   20.7075   21.1138 N   0  3  0  0  0  0  0  0  0  0  0  0
   19.4398   20.5694   20.9936 H   0  0  0  0  0  0  0  0  0  0  0  0
   20.8747   20.6241   20.1869 H   0  0  0  0  0  0  0  0  0  0  0  0
   20.5845   21.6764   21.4188 H   0  0  0  0  0  0  0  0  0  0  0  0
   21.0364   19.7165   22.0985 C   0  0  0  0  0  0  0  0  0  0  0  0
   20.5933   19.8967   23.0815 H   0  0  0  0  0  0  0  0  0  0  0  0
   22.1065   19.9310   22.1658 H   0  0  0  0  0  0  0  0  0  0  0  0
   20.8442   18.2374   21.7021 C   0  0  0  0  0  0  0  0  0  0  0  0
   21.0573   18.1043   20.6332 H   0  0  0  0  0  0  0  0  0  0  0  0
   21.6006   17.6467   22.2358 H   0  0  0  0  0  0  0  0  0  0  0  0
   19.4510   17.6543   22.0509 C   0  0  0  0  0  0  0  0  0  0  0  0
   19.2764   17.7363   23.1330 H   0  0  0  0  0  0  0  0  0  0  0  0
   19.4597   16.5787   21.8253 H   0  0  0  0  0  0  0  0  0  0  0  0
   18.2758   18.3076   21.2886 C   0  0  0  0  0  0  0  0  0  0  0  0
   18.0914   19.3313   21.6345 H   0  0  0  0  0  0  0  0  0  0  0  0
   17.3513   17.7396   21.4557 H   0  0  0  0  0  0  0  0  0  0  0  0
   18.4638   18.3269   20.2072 H   0  0  0  0  0  0  0  0  0  0  0  0
  1  2  1  0  0  0  0
  1  3  1  0  0  0  0
  1  4  1  0  0  0  0
  1  5  1  0  0  0  0
  5  6  1  0  0  0  0
  5  7  1  0  0  0  0
  5  8  1  0  0  0  0
  8  9  1  0  0  0  0
  8 10  1  0  0  0  0
  8 11  1  0  0  0  0
 11 12  1  0  0  0  0
 11 13  1  0  0  0  0
 11 14  1  0  0  0  0
 14 15  1  0  0  0  0
 14 16  1  0  0  0  0
 14 17  1  0  0  0  0
M  END
> <VConfSearch Rank>
855

> <Conf_Id>
19

> <Delta U+W>
2.662

> <U+W>
-13.203

> <U>
47.423

> <W>
-60.626

> <W(PB)>
-62.328

> <W(SA)>
1.702

> <Valence>
2.414

> <Coulomb>
44.831

> <VdW>
0.178

> <VdW6>
-3.743

> <VdW12>
3.921

> <Bond>
0.138

> <Angle>
0.941

> <Pdih>
1.335

> <Idih>
0.000

> <Tether>
0.000

$$$$
VeraChem MOL file


 17 16  0  0  0  0  0  0  0  0999 V2000     
   21.4386   19.2263   22.6006 N   0  3  0  0  0  0  0  0  0  0  0  0
   21.9731   18.8949   23.4101 H   0  0  0  0  0  0  0  0  0  0  0  0
   21.8971   20.0814   22.2718 H   0  0  0  0  0  0  0  0  0  0  0  0
   21.5434   18.5257   21.8623 H   0  0  0  0  0  0  0  0  0  0  0  0
   19.9814   19.4654   22.9461 C   0  0  0  0  0  0  0  0  0  0  0  0
   19.9598   20.2223   23.7348 H   0  0  0  0  0  0  0  0  0  0  0  0
   19.5641   18.5407   23.3538 H   0  0  0  0  0  0  0  0  0  0  0  0
   19.1195   19.9494   21.7609 C   0  0  0  0  0  0  0  0  0  0  0  0
   18.2299   20.4433   22.1736 H   0  0  0  0  0  0  0  0  0  0  0  0
   19.6579   20.7217   21.1958 H   0  0  0  0  0  0  0  0  0  0  0  0
   18.6410   18.8215   20.8113 C   0  0  0  0  0  0  0  0  0  0  0  0
   17.9552   19.2592   20.0723 H   0  0  0  0  0  0  0  0  0  0  0  0
   18.0498   18.0879   21.3773 H   0  0  0  0  0  0  0  0  0  0  0  0
   19.7784   18.0952   20.0577 C   0  0  0  0  0  0  0  0  0  0  0  0
   20.4452   18.8098   19.5579 H   0  0  0  0  0  0  0  0  0  0  0  0
   19.3621   17.4333   19.2872 H   0  0  0  0  0  0  0  0  0  0  0  0
   20.3726   17.4688   20.7331 H   0  0  0  0  0  0  0  0  0  0  0  0
  1  2  1  0  0  0  0
  1  3  1  0  0  0  0
  1  4  1  0  0  0  0
  1  5  1  0  0  0  0
  5  6  1  0  0  0  0
  5  7  1  0  0  0  0
  5  8  1  0  0  0  0
  8  9  1  0  0  0  0
  8 10  1  0  0  0  0
  8 11  1  0  0  0  0
 11 12  1  0  0  0  0
 11 13  1  0  0  0  0
 11 14  1  0  0  0  0
 14 15  1  0  0  0  0
 14 16  1  0  0  0  0
 14 17  1  0  0  0  0
M  END
> <VConfSearch Rank>
856

> <Conf_Id>
44

> <Delta U+W>
2.712

> <U+W>
-13.153

> <U>
47.423

> <W>
-60.576

> <W(PB)>
-62.262

> <W(SA)>
1.687

> <Valence>
2.414

> <Coulomb>
44.831

> <VdW>
0.178

> <VdW6>
-3.743

> <VdW12>
3.922

> <Bond>
0.138

> <Angle>
0.941

> <Pdih>
1.335

> <Idih>
0.000

> <Tether>
0.000

$$$$
VeraChem MOL file


 17 16  0  0  0  0  0  0  0  0999 V2000     
   20.4231   19.3825   23.4895 N   0  3  0  0  0  0  0  0  0  0  0  0
   19.4372   19.1061   23.4865 H   0  0  0  0  0  0  0  0  0  0  0  0
   20.4557   20.3858   23.6935 H   0  0  0  0  0  0  0  0  0  0  0  0
   20.8658   18.9034   24.2802 H   0  0  0  0  0  0  0  0  0  0  0  0
   21.1038   19.0499   22.1757 C   0  0  0  0  0  0  0  0  0  0  0  0
   21.0591   17.9668   22.0349 H   0  0  0  0  0  0  0  0  0  0  0  0
   22.1554   19.3361   22.2638 H   0  0  0  0  0  0  0  0  0  0  0  0
   20.4819   19.7593   20.9551 C   0  0  0  0  0  0  0  0  0  0  0  0
   20.5681   20.8459   21.0872 H   0  0  0  0  0  0  0  0  0  0  0  0
   21.0753   19.5116   20.0649 H   0  0  0  0  0  0  0  0  0  0  0  0
   18.9999   19.3886   20.6984 C   0  0  0  0  0  0  0  0  0  0  0  0
   18.6412   19.9496   19.8241 H   0  0  0  0  0  0  0  0  0  0  0  0
   18.3776   19.7139   21.5432 H   0  0  0  0  0  0  0  0  0  0  0  0
   18.7883   17.8780   20.4471 C   0  0  0  0  0  0  0  0  0  0  0  0
   19.4000   17.5286   19.6053 H   0  0  0  0  0  0  0  0  0  0  0  0
   17.7376   17.6713   20.2058 H   0  0  0  0  0  0  0  0  0  0  0  0
   19.0485   17.2813   21.3304 H   0  0  0  0  0  0  0  0  0  0  0  0
  1  2  1  0  0  0  0
  1  3  1  0  0  0  0
  1  4  1  0  0  0  0
  1  5  1  0  0  0  0
  5  6  1  0  0  0  0
  5  7  1  0  0  0  0
  5  8  1  0  0  0  0
  8  9  1  0  0  0  0
  8 10  1  0  0  0  0
  8 11  1  0  0  0  0
 11 12  1  0  0  0  0
 11 13  1  0  0  0  0
 11 14  1  0  0  0  0
 14 15  1  0  0  0  0
 14 16  1  0  0  0  0
 14 17  1  0  0  0  0
M  END
> <VConfSearch Rank>
857

> <Conf_Id>
1

> <Delta U+W>
0.685

> <U+W>
-15.179

> <U>
45.697

> <W>
-60.876

> <W(PB)>
-62.586

> <W(SA)>
1.710

> <Valence>
1.263

> <Coulomb>
44.179

> <VdW>
0.255

> <VdW6>
-3.552

> <VdW12>
3.807

> <Bond>
0.125

> <Angle>
0.616

> <Pdih>
0.521

> <Idih>
0.000

> <Tether>
0.000

$$$$
VeraChem MOL file


 17 16  0  0  0  0  0  0  0  0999 V2000     
   21.4744   18.8413   20.3700 N   0  3  0  0  0  0  0  0  0  0  0  0
   21.3139   19.3316   19.4850 H   0  0  0  0  0  0  0  0  0  0  0  0
   20.9491   17.9633   20.3292 H   0  0  0  0  0  0  0  0  0  0  0  0
   22.4688   18.5940   20.3971 H   0  0  0  0  0  0  0  0  0  0  0  0
   21.0697   19.6831   21.5647 C   0  0  0  0  0  0  0  0  0  0  0  0
   21.6934   20.5812   21.5658 H   0  0  0  0  0  0  0  0  0  0  0  0
   21.2937   19.1154   22.4715 H   0  0  0  0  0  0  0  0  0  0  0  0
   19.5828   20.0940   21.5620 C   0  0  0  0  0  0  0  0  0  0  0  0
   19.3980   20.7498   22.4232 H   0  0  0  0  0  0  0  0  0  0  0  0
   19.3773   20.6980   20.6683 H   0  0  0  0  0  0  0  0  0  0  0  0
   18.5988   18.8987   21.6119 C   0  0  0  0  0  0  0  0  0  0  0  0
   18.7079   18.2819   20.7095 H   0  0  0  0  0  0  0  0  0  0  0  0
   17.5704   19.2859   21.5918 H   0  0  0  0  0  0  0  0  0  0  0  0
   18.7792   18.0179   22.8695 C   0  0  0  0  0  0  0  0  0  0  0  0
   18.0211   17.2245   22.8958 H   0  0  0  0  0  0  0  0  0  0  0  0
   18.6733   18.6125   23.7861 H   0  0  0  0  0  0  0  0  0  0  0  0
   19.7642   17.5349   22.8864 H   0  0  0  0  0  0  0  0  0  0  0  0
  1  2  1  0  0  0  0
  1  3  1  0  0  0  0
  1  4  1  0  0  0  0
  1  5  1  0  0  0  0
  5  6  1  0  0  0  0
  5  7  1  0  0  0  0
  5  8  1  0  0  0  0
  8  9  1  0  0  0  0
  8 10  1  0  0  0  0
  8 11  1  0  0  0  0
 11 12  1  0  0  0  0
 11 13  1  0  0  0  0
 11 14  1  0  0  0  0
 14 15  1  0  0  0  0
 14 16  1  0  0  0  0
 14 17  1  0  0  0  0
M  END
> <VConfSearch Rank>
858

> <Conf_Id>
43

> <Delta U+W>
0.642

> <U+W>
-15.222

> <U>
45.697

> <W>
-60.919

> <W(PB)>
-62.631

> <W(SA)>
1.712

> <Valence>
1.262

> <Coulomb>
44.179

> <VdW>
0.255

> <VdW6>
-3.552

> <VdW12>
3.807

> <Bond>
0.125

> <Angle>
0.616

> <Pdih>
0.521

> <Idih>
0.000

> <Tether>
0.000

$$$$
VeraChem MOL file


 17 16  0  0  0  0  0  0  0  0999 V2000     
   22.3034   19.2519   20.5812 N   0  3  0  0  0  0  0  0  0  0  0  0
   22.0279   19.1645   19.5983 H   0  0  0  0  0  0  0  0  0  0  0  0
   22.6523   18.3355   20.8784 H   0  0  0  0  0  0  0  0  0  0  0  0
   23.1007   19.8957   20.6092 H   0  0  0  0  0  0  0  0  0  0  0  0
   21.1594   19.7334   21.4511 C   0  0  0  0  0  0  0  0  0  0  0  0
   20.8605   20.7241   21.0978 H   0  0  0  0  0  0  0  0  0  0  0  0
   21.5320   19.8327   22.4743 H   0  0  0  0  0  0  0  0  0  0  0  0
   19.9438   18.7889   21.4325 C   0  0  0  0  0  0  0  0  0  0  0  0
   19.5820   18.6794   20.4014 H   0  0  0  0  0  0  0  0  0  0  0  0
   20.2511   17.7912   21.7732 H   0  0  0  0  0  0  0  0  0  0  0  0
   18.8027   19.3158   22.3301 C   0  0  0  0  0  0  0  0  0  0  0  0
   18.4969   20.3159   21.9915 H   0  0  0  0  0  0  0  0  0  0  0  0
   19.1651   19.4286   23.3617 H   0  0  0  0  0  0  0  0  0  0  0  0
   17.5797   18.3734   22.3164 C   0  0  0  0  0  0  0  0  0  0  0  0
   16.7810   18.7651   22.9595 H   0  0  0  0  0  0  0  0  0  0  0  0
   17.8468   17.3737   22.6830 H   0  0  0  0  0  0  0  0  0  0  0  0
   17.1733   18.2679   21.3020 H   0  0  0  0  0  0  0  0  0  0  0  0
  1  2  1  0  0  0  0
  1  3  1  0  0  0  0
  1  4  1  0  0  0  0
  1  5  1  0  0  0  0
  5  6  1  0  0  0  0
  5  7  1  0  0  0  0
  5  8  1  0  0  0  0
  8  9  1  0  0  0  0
  8 10  1  0  0  0  0
  8 11  1  0  0  0  0
 11 12  1  0  0  0  0
 11 13  1  0  0  0  0
 11 14  1  0  0  0  0
 14 15  1  0  0  0  0
 14 16  1  0  0  0  0
 14 17  1  0  0  0  0
M  END
> <VConfSearch Rank>
859

> <Conf_Id>
7

> <Delta U+W>
0.000

> <U+W>
-15.865

> <U>
44.664

> <W>
-60.529

> <W(PB)>
-62.309

> <W(SA)>
1.780

> <Valence>
0.872

> <Coulomb>
43.648

> <VdW>
0.144

> <VdW6>
-2.370

> <VdW12>
2.515

> <Bond>
0.080

> <Angle>
0.376

> <Pdih>
0.416

> <Idih>
0.000

> <Tether>
0.000

$$$$
VeraChem MOL file


 17 16  0  0  0  0  0  0  0  0999 V2000     
   22.2467   19.3274   20.9877 N   0  3  0  0  0  0  0  0  0  0  0  0
   22.2936   19.5593   19.9909 H   0  0  0  0  0  0  0  0  0  0  0  0
   22.5159   18.3432   21.0805 H   0  0  0  0  0  0  0  0  0  0  0  0
   22.9739   19.8789   21.4546 H   0  0  0  0  0  0  0  0  0  0  0  0
   20.8735   19.5976   21.5696 C   0  0  0  0  0  0  0  0  0  0  0  0
   20.6659   20.6658   21.4639 H   0  0  0  0  0  0  0  0  0  0  0  0
   20.9076   19.3587   22.6357 H   0  0  0  0  0  0  0  0  0  0  0  0
   19.7557   18.7836   20.8900 C   0  0  0  0  0  0  0  0  0  0  0  0
   19.7562   19.0006   19.8136 H   0  0  0  0  0  0  0  0  0  0  0  0
   19.9651   17.7107   20.9947 H   0  0  0  0  0  0  0  0  0  0  0  0
   18.3550   19.0972   21.4660 C   0  0  0  0  0  0  0  0  0  0  0  0
   17.5997   18.5474   20.8870 H   0  0  0  0  0  0  0  0  0  0  0  0
   18.1300   20.1647   21.3319 H   0  0  0  0  0  0  0  0  0  0  0  0
   18.2176   18.7212   22.9592 C   0  0  0  0  0  0  0  0  0  0  0  0
   18.4435   17.6593   23.1216 H   0  0  0  0  0  0  0  0  0  0  0  0
   17.1932   18.9029   23.3092 H   0  0  0  0  0  0  0  0  0  0  0  0
   18.8922   19.3153   23.5886 H   0  0  0  0  0  0  0  0  0  0  0  0
  1  2  1  0  0  0  0
  1  3  1  0  0  0  0
  1  4  1  0  0  0  0
  1  5  1  0  0  0  0
  5  6  1  0  0  0  0
  5  7  1  0  0  0  0
  5  8  1  0  0  0  0
  8  9  1  0  0  0  0
  8 10  1  0  0  0  0
  8 11  1  0  0  0  0
 11 12  1  0  0  0  0
 11 13  1  0  0  0  0
 11 14  1  0  0  0  0
 14 15  1  0  0  0  0
 14 16  1  0  0  0  0
 14 17  1  0  0  0  0
M  END
> <VConfSearch Rank>
860

> <Conf_Id>
36

> <Delta U+W>
0.275

> <U+W>
-15.590

> <U>
45.174

> <W>
-60.765

> <W(PB)>
-62.518

> <W(SA)>
1.754

> <Valence>
1.161

> <Coulomb>
43.789

> <VdW>
0.224

> <VdW6>
-2.897

> <VdW12>
3.121

> <Bond>
0.100

> <Angle>
0.500

> <Pdih>
0.561

> <Idih>
0.000

> <Tether>
0.000

$$$$
VeraChem MOL file


 17 16  0  0  0  0  0  0  0  0999 V2000     
   18.9028   19.1660   23.1347 N   0  3  0  0  0  0  0  0  0  0  0  0
   18.6402   19.8562   22.4265 H   0  0  0  0  0  0  0  0  0  0  0  0
   19.4928   19.6472   23.8202 H   0  0  0  0  0  0  0  0  0  0  0  0
   18.0441   18.8912   23.6224 H   0  0  0  0  0  0  0  0  0  0  0  0
   19.6099   17.9726   22.5216 C   0  0  0  0  0  0  0  0  0  0  0  0
   18.9127   17.4606   21.8531 H   0  0  0  0  0  0  0  0  0  0  0  0
   19.8551   17.2908   23.3405 H   0  0  0  0  0  0  0  0  0  0  0  0
   20.9032   18.3254   21.7570 C   0  0  0  0  0  0  0  0  0  0  0  0
   21.4965   19.0462   22.3350 H   0  0  0  0  0  0  0  0  0  0  0  0
   21.5137   17.4149   21.6936 H   0  0  0  0  0  0  0  0  0  0  0  0
   20.6753   18.8477   20.3154 C   0  0  0  0  0  0  0  0  0  0  0  0
   20.1357   18.0907   19.7291 H   0  0  0  0  0  0  0  0  0  0  0  0
   21.6550   18.9655   19.8312 H   0  0  0  0  0  0  0  0  0  0  0  0
   19.9217   20.1947   20.2354 C   0  0  0  0  0  0  0  0  0  0  0  0
   18.8673   20.0830   20.5137 H   0  0  0  0  0  0  0  0  0  0  0  0
   19.9445   20.5831   19.2089 H   0  0  0  0  0  0  0  0  0  0  0  0
   20.3826   20.9487   20.8869 H   0  0  0  0  0  0  0  0  0  0  0  0
  1  2  1  0  0  0  0
  1  3  1  0  0  0  0
  1  4  1  0  0  0  0
  1  5  1  0  0  0  0
  5  6  1  0  0  0  0
  5  7  1  0  0  0  0
  5  8  1  0  0  0  0
  8  9  1  0  0  0  0
  8 10  1  0  0  0  0
  8 11  1  0  0  0  0
 11 12  1  0  0  0  0
 11 13  1  0  0  0  0
 11 14  1  0  0  0  0
 14 15  1  0  0  0  0
 14 16  1  0  0  0  0
 14 17  1  0  0  0  0
M  END
> <VConfSearch Rank>
861

> <Conf_Id>
19

> <Delta U+W>
2.662

> <U+W>
-13.203

> <U>
47.423

> <W>
-60.626

> <W(PB)>
-62.328

> <W(SA)>
1.702

> <Valence>
2.414

> <Coulomb>
44.831

> <VdW>
0.178

> <VdW6>
-3.743

> <VdW12>
3.921

> <Bond>
0.138

> <Angle>
0.941

> <Pdih>
1.335

> <Idih>
0.000

> <Tether>
0.000

$$$$
VeraChem MOL file


 17 16  0  0  0  0  0  0  0  0999 V2000     
   18.9036   20.6228   21.3487 N   0  3  0  0  0  0  0  0  0  0  0  0
   18.6209   21.5263   21.7418 H   0  0  0  0  0  0  0  0  0  0  0  0
   18.3129   20.4580   20.5281 H   0  0  0  0  0  0  0  0  0  0  0  0
   19.8641   20.7272   21.0120 H   0  0  0  0  0  0  0  0  0  0  0  0
   18.7824   19.5029   22.3642 C   0  0  0  0  0  0  0  0  0  0  0  0
   17.7330   19.4587   22.6678 H   0  0  0  0  0  0  0  0  0  0  0  0
   19.3776   19.7643   23.2433 H   0  0  0  0  0  0  0  0  0  0  0  0
   19.2117   18.1180   21.8357 C   0  0  0  0  0  0  0  0  0  0  0  0
   18.7435   17.3564   22.4734 H   0  0  0  0  0  0  0  0  0  0  0  0
   18.8057   17.9582   20.8281 H   0  0  0  0  0  0  0  0  0  0  0  0
   20.7421   17.8724   21.8455 C   0  0  0  0  0  0  0  0  0  0  0  0
   20.9271   16.8292   21.5529 H   0  0  0  0  0  0  0  0  0  0  0  0
   21.1260   17.9730   22.8704 H   0  0  0  0  0  0  0  0  0  0  0  0
   21.5439   18.7976   20.9021 C   0  0  0  0  0  0  0  0  0  0  0  0
   21.1246   18.7924   19.8875 H   0  0  0  0  0  0  0  0  0  0  0  0
   22.5862   18.4599   20.8332 H   0  0  0  0  0  0  0  0  0  0  0  0
   21.5638   19.8294   21.2718 H   0  0  0  0  0  0  0  0  0  0  0  0
  1  2  1  0  0  0  0
  1  3  1  0  0  0  0
  1  4  1  0  0  0  0
  1  5  1  0  0  0  0
  5  6  1  0  0  0  0
  5  7  1  0  0  0  0
  5  8  1  0  0  0  0
  8  9  1  0  0  0  0
  8 10  1  0  0  0  0
  8 11  1  0  0  0  0
 11 12  1  0  0  0  0
 11 13  1  0  0  0  0
 11 14  1  0  0  0  0
 14 15  1  0  0  0  0
 14 16  1  0  0  0  0
 14 17  1  0  0  0  0
M  END
> <VConfSearch Rank>
862

> <Conf_Id>
44

> <Delta U+W>
2.712

> <U+W>
-13.153

> <U>
47.423

> <W>
-60.576

> <W(PB)>
-62.262

> <W(SA)>
1.687

> <Valence>
2.414

> <Coulomb>
44.831

> <VdW>
0.178

> <VdW6>
-3.743

> <VdW12>
3.922

> <Bond>
0.138

> <Angle>
0.941

> <Pdih>
1.335

> <Idih>
0.000

> <Tether>
0.000

$$$$
VeraChem MOL file


 17 16  0  0  0  0  0  0  0  0999 V2000     
   21.1295   20.4921   22.2056 N   0  3  0  0  0  0  0  0  0  0  0  0
   20.2181   20.6579   22.6419 H   0  0  0  0  0  0  0  0  0  0  0  0
   21.2528   21.2057   21.4811 H   0  0  0  0  0  0  0  0  0  0  0  0
   21.8408   20.6693   22.9220 H   0  0  0  0  0  0  0  0  0  0  0  0
   21.2350   19.0885   21.6410 C   0  0  0  0  0  0  0  0  0  0  0  0
   21.1245   18.3811   22.4669 H   0  0  0  0  0  0  0  0  0  0  0  0
   22.2404   18.9707   21.2275 H   0  0  0  0  0  0  0  0  0  0  0  0
   20.1930   18.7775   20.5467 C   0  0  0  0  0  0  0  0  0  0  0  0
   20.3384   19.4667   19.7043 H   0  0  0  0  0  0  0  0  0  0  0  0
   20.3858   17.7702   20.1542 H   0  0  0  0  0  0  0  0  0  0  0  0
   18.7246   18.8623   21.0326 C   0  0  0  0  0  0  0  0  0  0  0  0
   18.0587   18.6409   20.1868 H   0  0  0  0  0  0  0  0  0  0  0  0
   18.4885   19.8890   21.3435 H   0  0  0  0  0  0  0  0  0  0  0  0
   18.4116   17.8835   22.1876 C   0  0  0  0  0  0  0  0  0  0  0  0
   18.6388   16.8487   21.9004 H   0  0  0  0  0  0  0  0  0  0  0  0
   17.3480   17.9308   22.4547 H   0  0  0  0  0  0  0  0  0  0  0  0
   18.9900   18.1238   23.0886 H   0  0  0  0  0  0  0  0  0  0  0  0
  1  2  1  0  0  0  0
  1  3  1  0  0  0  0
  1  4  1  0  0  0  0
  1  5  1  0  0  0  0
  5  6  1  0  0  0  0
  5  7  1  0  0  0  0
  5  8  1  0  0  0  0
  8  9  1  0  0  0  0
  8 10  1  0  0  0  0
  8 11  1  0  0  0  0
 11 12  1  0  0  0  0
 11 13  1  0  0  0  0
 11 14  1  0  0  0  0
 14 15  1  0  0  0  0
 14 16  1  0  0  0  0
 14 17  1  0  0  0  0
M  END
> <VConfSearch Rank>
863

> <Conf_Id>
1

> <Delta U+W>
0.685

> <U+W>
-15.179

> <U>
45.697

> <W>
-60.876

> <W(PB)>
-62.586

> <W(SA)>
1.710

> <Valence>
1.263

> <Coulomb>
44.179

> <VdW>
0.255

> <VdW6>
-3.552

> <VdW12>
3.807

> <Bond>
0.125

> <Angle>
0.616

> <Pdih>
0.521

> <Idih>
0.000

> <Tether>
0.000

$$$$
VeraChem MOL file


 17 16  0  0  0  0  0  0  0  0999 V2000     
   19.2618   17.2245   22.0947 N   0  3  0  0  0  0  0  0  0  0  0  0
   18.3265   17.0505   21.7147 H   0  0  0  0  0  0  0  0  0  0  0  0
   19.1476   17.8234   22.9173 H   0  0  0  0  0  0  0  0  0  0  0  0
   19.6201   16.3238   22.4277 H   0  0  0  0  0  0  0  0  0  0  0  0
   20.1826   17.8523   21.0661 C   0  0  0  0  0  0  0  0  0  0  0  0
   20.2876   17.1460   20.2381 H   0  0  0  0  0  0  0  0  0  0  0  0
   21.1658   17.9829   21.5255 H   0  0  0  0  0  0  0  0  0  0  0  0
   19.6786   19.2052   20.5225 C   0  0  0  0  0  0  0  0  0  0  0  0
   20.3706   19.5502   19.7428 H   0  0  0  0  0  0  0  0  0  0  0  0
   18.7099   19.0563   20.0273 H   0  0  0  0  0  0  0  0  0  0  0  0
   19.5395   20.3061   21.6033 C   0  0  0  0  0  0  0  0  0  0  0  0
   18.7812   20.0154   22.3430 H   0  0  0  0  0  0  0  0  0  0  0  0
   19.1634   21.2230   21.1280 H   0  0  0  0  0  0  0  0  0  0  0  0
   20.8720   20.6225   22.3204 C   0  0  0  0  0  0  0  0  0  0  0  0
   20.7408   21.4506   23.0289 H   0  0  0  0  0  0  0  0  0  0  0  0
   21.6470   20.9172   21.6009 H   0  0  0  0  0  0  0  0  0  0  0  0
   21.2412   19.7581   22.8865 H   0  0  0  0  0  0  0  0  0  0  0  0
  1  2  1  0  0  0  0
  1  3  1  0  0  0  0
  1  4  1  0  0  0  0
  1  5  1  0  0  0  0
  5  6  1  0  0  0  0
  5  7  1  0  0  0  0
  5  8  1  0  0  0  0
  8  9  1  0  0  0  0
  8 10  1  0  0  0  0
  8 11  1  0  0  0  0
 11 12  1  0  0  0  0
 11 13  1  0  0  0  0
 11 14  1  0  0  0  0
 14 15  1  0  0  0  0
 14 16  1  0  0  0  0
 14 17  1  0  0  0  0
M  END
> <VConfSearch Rank>
864

> <Conf_Id>
43

> <Delta U+W>
0.642

> <U+W>
-15.222

> <U>
45.697

> <W>
-60.919

> <W(PB)>
-62.631

> <W(SA)>
1.712

> <Valence>
1.262

> <Coulomb>
44.179

> <VdW>
0.255

> <VdW6>
-3.552

> <VdW12>
3.807

> <Bond>
0.125

> <Angle>
0.616

> <Pdih>
0.521

> <Idih>
0.000

> <Tether>
0.000

$$$$
VeraChem MOL file


 17 16  0  0  0  0  0  0  0  0999 V2000     
   21.1012   19.7354   19.4064 N   0  3  0  0  0  0  0  0  0  0  0  0
   21.8634   20.2833   19.8171 H   0  0  0  0  0  0  0  0  0  0  0  0
   20.3914   20.4009   19.0857 H   0  0  0  0  0  0  0  0  0  0  0  0
   21.4806   19.2808   18.5696 H   0  0  0  0  0  0  0  0  0  0  0  0
   20.5337   18.7282   20.3866 C   0  0  0  0  0  0  0  0  0  0  0  0
   21.3343   18.0355   20.6604 H   0  0  0  0  0  0  0  0  0  0  0  0
   19.7514   18.1620   19.8739 H   0  0  0  0  0  0  0  0  0  0  0  0
   19.9546   19.3775   21.6568 C   0  0  0  0  0  0  0  0  0  0  0  0
   20.7391   19.9578   22.1606 H   0  0  0  0  0  0  0  0  0  0  0  0
   19.1616   20.0837   21.3769 H   0  0  0  0  0  0  0  0  0  0  0  0
   19.3879   18.3180   22.6272 C   0  0  0  0  0  0  0  0  0  0  0  0
   20.1805   17.6088   22.9051 H   0  0  0  0  0  0  0  0  0  0  0  0
   18.6048   17.7347   22.1224 H   0  0  0  0  0  0  0  0  0  0  0  0
   18.8052   18.9620   23.9038 C   0  0  0  0  0  0  0  0  0  0  0  0
   18.4082   18.1933   24.5795 H   0  0  0  0  0  0  0  0  0  0  0  0
   17.9861   19.6513   23.6604 H   0  0  0  0  0  0  0  0  0  0  0  0
   19.5742   19.5245   24.4492 H   0  0  0  0  0  0  0  0  0  0  0  0
  1  2  1  0  0  0  0
  1  3  1  0  0  0  0
  1  4  1  0  0  0  0
  1  5  1  0  0  0  0
  5  6  1  0  0  0  0
  5  7  1  0  0  0  0
  5  8  1  0  0  0  0
  8  9  1  0  0  0  0
  8 10  1  0  0  0  0
  8 11  1  0  0  0  0
 11 12  1  0  0  0  0
 11 13  1  0  0  0  0
 11 14  1  0  0  0  0
 14 15  1  0  0  0  0
 14 16  1  0  0  0  0
 14 17  1  0  0  0  0
M  END
> <VConfSearch Rank>
865

> <Conf_Id>
7

> <Delta U+W>
0.000

> <U+W>
-15.865

> <U>
44.664

> <W>
-60.529

> <W(PB)>
-62.309

> <W(SA)>
1.780

> <Valence>
0.872

> <Coulomb>
43.648

> <VdW>
0.144

> <VdW6>
-2.370

> <VdW12>
2.515

> <Bond>
0.080

> <Angle>
0.376

> <Pdih>
0.416

> <Idih>
0.000

> <Tether>
0.000

$$$$
VeraChem MOL file


 17 16  0  0  0  0  0  0  0  0999 V2000     
   22.1168   19.5955   22.5089 N   0  3  0  0  0  0  0  0  0  0  0  0
   22.8115   19.0362   22.0047 H   0  0  0  0  0  0  0  0  0  0  0  0
   21.9953   19.1646   23.4304 H   0  0  0  0  0  0  0  0  0  0  0  0
   22.5363   20.5176   22.6659 H   0  0  0  0  0  0  0  0  0  0  0  0
   20.8079   19.6933   21.7509 C   0  0  0  0  0  0  0  0  0  0  0  0
   21.0066   20.1872   20.7959 H   0  0  0  0  0  0  0  0  0  0  0  0
   20.1309   20.3265   22.3301 H   0  0  0  0  0  0  0  0  0  0  0  0
   20.1495   18.3235   21.4979 C   0  0  0  0  0  0  0  0  0  0  0  0
   20.8529   17.6818   20.9506 H   0  0  0  0  0  0  0  0  0  0  0  0
   19.9516   17.8267   22.4570 H   0  0  0  0  0  0  0  0  0  0  0  0
   18.8354   18.4334   20.6899 C   0  0  0  0  0  0  0  0  0  0  0  0
   18.4622   17.4220   20.4759 H   0  0  0  0  0  0  0  0  0  0  0  0
   19.0377   18.9004   19.7156 H   0  0  0  0  0  0  0  0  0  0  0  0
   17.7363   19.2304   21.4293 C   0  0  0  0  0  0  0  0  0  0  0  0
   17.5192   18.7874   22.4100 H   0  0  0  0  0  0  0  0  0  0  0  0
   16.8047   19.2310   20.8487 H   0  0  0  0  0  0  0  0  0  0  0  0
   18.0306   20.2762   21.5832 H   0  0  0  0  0  0  0  0  0  0  0  0
  1  2  1  0  0  0  0
  1  3  1  0  0  0  0
  1  4  1  0  0  0  0
  1  5  1  0  0  0  0
  5  6  1  0  0  0  0
  5  7  1  0  0  0  0
  5  8  1  0  0  0  0
  8  9  1  0  0  0  0
  8 10  1  0  0  0  0
  8 11  1  0  0  0  0
 11 12  1  0  0  0  0
 11 13  1  0  0  0  0
 11 14  1  0  0  0  0
 14 15  1  0  0  0  0
 14 16  1  0  0  0  0
 14 17  1  0  0  0  0
M  END
> <VConfSearch Rank>
866

> <Conf_Id>
36

> <Delta U+W>
0.275

> <U+W>
-15.590

> <U>
45.174

> <W>
-60.765

> <W(PB)>
-62.518

> <W(SA)>
1.754

> <Valence>
1.161

> <Coulomb>
43.789

> <VdW>
0.224

> <VdW6>
-2.897

> <VdW12>
3.121

> <Bond>
0.100

> <Angle>
0.500

> <Pdih>
0.561

> <Idih>
0.000

> <Tether>
0.000

$$$$
VeraChem MOL file


 17 16  0  0  0  0  0  0  0  0999 V2000     
   21.4182   20.0893   21.8276 N   0  3  0  0  0  0  0  0  0  0  0  0
   20.6468   20.5904   21.3796 H   0  0  0  0  0  0  0  0  0  0  0  0
   22.0791   19.8308   21.0888 H   0  0  0  0  0  0  0  0  0  0  0  0
   21.9001   20.7582   22.4369 H   0  0  0  0  0  0  0  0  0  0  0  0
   20.9296   18.8766   22.5962 C   0  0  0  0  0  0  0  0  0  0  0  0
   20.2848   19.2173   23.4108 H   0  0  0  0  0  0  0  0  0  0  0  0
   21.8100   18.4022   23.0382 H   0  0  0  0  0  0  0  0  0  0  0  0
   20.1789   17.8395   21.7346 C   0  0  0  0  0  0  0  0  0  0  0  0
   20.7128   17.6803   20.7884 H   0  0  0  0  0  0  0  0  0  0  0  0
   20.2111   16.8780   22.2641 H   0  0  0  0  0  0  0  0  0  0  0  0
   18.6922   18.1846   21.4633 C   0  0  0  0  0  0  0  0  0  0  0  0
   18.1548   18.2791   22.4174 H   0  0  0  0  0  0  0  0  0  0  0  0
   18.2307   17.3370   20.9374 H   0  0  0  0  0  0  0  0  0  0  0  0
   18.4762   19.4628   20.6216 C   0  0  0  0  0  0  0  0  0  0  0  0
   18.7298   20.3658   21.1890 H   0  0  0  0  0  0  0  0  0  0  0  0
   17.4219   19.5518   20.3287 H   0  0  0  0  0  0  0  0  0  0  0  0
   19.0763   19.4410   19.7026 H   0  0  0  0  0  0  0  0  0  0  0  0
  1  2  1  0  0  0  0
  1  3  1  0  0  0  0
  1  4  1  0  0  0  0
  1  5  1  0  0  0  0
  5  6  1  0  0  0  0
  5  7  1  0  0  0  0
  5  8  1  0  0  0  0
  8  9  1  0  0  0  0
  8 10  1  0  0  0  0
  8 11  1  0  0  0  0
 11 12  1  0  0  0  0
 11 13  1  0  0  0  0
 11 14  1  0  0  0  0
 14 15  1  0  0  0  0
 14 16  1  0  0  0  0
 14 17  1  0  0  0  0
M  END
> <VConfSearch Rank>
867

> <Conf_Id>
19

> <Delta U+W>
2.662

> <U+W>
-13.203

> <U>
47.423

> <W>
-60.626

> <W(PB)>
-62.328

> <W(SA)>
1.702

> <Valence>
2.414

> <Coulomb>
44.831

> <VdW>
0.178

> <VdW6>
-3.743

> <VdW12>
3.921

> <Bond>
0.138

> <Angle>
0.941

> <Pdih>
1.335

> <Idih>
0.000

> <Tether>
0.000

$$$$
VeraChem MOL file


 17 16  0  0  0  0  0  0  0  0999 V2000     
   20.0460   19.0005   23.4508 N   0  3  0  0  0  0  0  0  0  0  0  0
   19.7160   18.5778   24.3244 H   0  0  0  0  0  0  0  0  0  0  0  0
   20.6243   19.8053   23.7101 H   0  0  0  0  0  0  0  0  0  0  0  0
   20.6626   18.3197   23.0000 H   0  0  0  0  0  0  0  0  0  0  0  0
   18.8952   19.4011   22.5479 C   0  0  0  0  0  0  0  0  0  0  0  0
   18.2919   20.1259   23.1013 H   0  0  0  0  0  0  0  0  0  0  0  0
   18.2763   18.5194   22.3608 H   0  0  0  0  0  0  0  0  0  0  0  0
   19.3298   20.0283   21.2066 C   0  0  0  0  0  0  0  0  0  0  0  0
   18.4832   20.6108   20.8194 H   0  0  0  0  0  0  0  0  0  0  0  0
   20.1401   20.7501   21.3745 H   0  0  0  0  0  0  0  0  0  0  0  0
   19.7388   19.0018   20.1195 C   0  0  0  0  0  0  0  0  0  0  0  0
   19.9255   19.5456   19.1828 H   0  0  0  0  0  0  0  0  0  0  0  0
   18.8973   18.3248   19.9152 H   0  0  0  0  0  0  0  0  0  0  0  0
   20.9956   18.1713   20.4654 C   0  0  0  0  0  0  0  0  0  0  0  0
   21.8300   18.8178   20.7671 H   0  0  0  0  0  0  0  0  0  0  0  0
   21.3219   17.5929   19.5913 H   0  0  0  0  0  0  0  0  0  0  0  0
   20.7949   17.4537   21.2694 H   0  0  0  0  0  0  0  0  0  0  0  0
  1  2  1  0  0  0  0
  1  3  1  0  0  0  0
  1  4  1  0  0  0  0
  1  5  1  0  0  0  0
  5  6  1  0  0  0  0
  5  7  1  0  0  0  0
  5  8  1  0  0  0  0
  8  9  1  0  0  0  0
  8 10  1  0  0  0  0
  8 11  1  0  0  0  0
 11 12  1  0  0  0  0
 11 13  1  0  0  0  0
 11 14  1  0  0  0  0
 14 15  1  0  0  0  0
 14 16  1  0  0  0  0
 14 17  1  0  0  0  0
M  END
> <VConfSearch Rank>
868

> <Conf_Id>
44

> <Delta U+W>
2.712

> <U+W>
-13.153

> <U>
47.423

> <W>
-60.576

> <W(PB)>
-62.262

> <W(SA)>
1.687

> <Valence>
2.414

> <Coulomb>
44.831

> <VdW>
0.178

> <VdW6>
-3.743

> <VdW12>
3.922

> <Bond>
0.138

> <Angle>
0.941

> <Pdih>
1.335

> <Idih>
0.000

> <Tether>
0.000

$$$$
VeraChem MOL file


 17 16  0  0  0  0  0  0  0  0999 V2000     
   18.2814   19.3868   20.5296 N   0  3  0  0  0  0  0  0  0  0  0  0
   19.0495   19.2467   19.8672 H   0  0  0  0  0  0  0  0  0  0  0  0
   18.0467   20.3838   20.5148 H   0  0  0  0  0  0  0  0  0  0  0  0
   17.4694   18.8843   20.1569 H   0  0  0  0  0  0  0  0  0  0  0  0
   18.6475   18.9123   21.9228 C   0  0  0  0  0  0  0  0  0  0  0  0
   18.8562   17.8406   21.8725 H   0  0  0  0  0  0  0  0  0  0  0  0
   17.7736   19.0566   22.5640 H   0  0  0  0  0  0  0  0  0  0  0  0
   19.8568   19.6497   22.5340 C   0  0  0  0  0  0  0  0  0  0  0  0
   19.6221   20.7191   22.6180 H   0  0  0  0  0  0  0  0  0  0  0  0
   20.0067   19.2883   23.5600 H   0  0  0  0  0  0  0  0  0  0  0  0
   21.1720   19.4734   21.7348 C   0  0  0  0  0  0  0  0  0  0  0  0
   21.9686   20.0422   22.2345 H   0  0  0  0  0  0  0  0  0  0  0  0
   21.0675   19.9138   20.7339 H   0  0  0  0  0  0  0  0  0  0  0  0
   21.6116   17.9966   21.6106 C   0  0  0  0  0  0  0  0  0  0  0  0
   21.7241   17.5338   22.5996 H   0  0  0  0  0  0  0  0  0  0  0  0
   22.5784   17.9246   21.0956 H   0  0  0  0  0  0  0  0  0  0  0  0
   20.8864   17.4061   21.0367 H   0  0  0  0  0  0  0  0  0  0  0  0
  1  2  1  0  0  0  0
  1  3  1  0  0  0  0
  1  4  1  0  0  0  0
  1  5  1  0  0  0  0
  5  6  1  0  0  0  0
  5  7  1  0  0  0  0
  5  8  1  0  0  0  0
  8  9  1  0  0  0  0
  8 10  1  0  0  0  0
  8 11  1  0  0  0  0
 11 12  1  0  0  0  0
 11 13  1  0  0  0  0
 11 14  1  0  0  0  0
 14 15  1  0  0  0  0
 14 16  1  0  0  0  0
 14 17  1  0  0  0  0
M  END
> <VConfSearch Rank>
869

> <Conf_Id>
1

> <Delta U+W>
0.685

> <U+W>
-15.179

> <U>
45.697

> <W>
-60.876

> <W(PB)>
-62.586

> <W(SA)>
1.710

> <Valence>
1.263

> <Coulomb>
44.179

> <VdW>
0.255

> <VdW6>
-3.552

> <VdW12>
3.807

> <Bond>
0.125

> <Angle>
0.616

> <Pdih>
0.521

> <Idih>
0.000

> <Tether>
0.000

$$$$
VeraChem MOL file


 17 16  0  0  0  0  0  0  0  0999 V2000     
   21.3084   17.6194   21.3893 N   0  3  0  0  0  0  0  0  0  0  0  0
   21.8884   17.5335   22.2292 H   0  0  0  0  0  0  0  0  0  0  0  0
   21.6377   18.4425   20.8769 H   0  0  0  0  0  0  0  0  0  0  0  0
   21.5094   16.8024   20.8039 H   0  0  0  0  0  0  0  0  0  0  0  0
   19.8337   17.7215   21.7281 C   0  0  0  0  0  0  0  0  0  0  0  0
   19.5444   16.7982   22.2373 H   0  0  0  0  0  0  0  0  0  0  0  0
   19.2735   17.7803   20.7913 H   0  0  0  0  0  0  0  0  0  0  0  0
   19.4821   18.9292   22.6212 C   0  0  0  0  0  0  0  0  0  0  0  0
   18.4125   18.8853   22.8661 H   0  0  0  0  0  0  0  0  0  0  0  0
   20.0180   18.8399   23.5755 H   0  0  0  0  0  0  0  0  0  0  0  0
   19.8015   20.3021   21.9788 C   0  0  0  0  0  0  0  0  0  0  0  0
   20.8829   20.3983   21.8117 H   0  0  0  0  0  0  0  0  0  0  0  0
   19.5328   21.0963   22.6894 H   0  0  0  0  0  0  0  0  0  0  0  0
   19.0463   20.5397   20.6510 C   0  0  0  0  0  0  0  0  0  0  0  0
   19.2513   21.5472   20.2665 H   0  0  0  0  0  0  0  0  0  0  0  0
   17.9615   20.4498   20.7926 H   0  0  0  0  0  0  0  0  0  0  0  0
   19.3516   19.8225   19.8788 H   0  0  0  0  0  0  0  0  0  0  0  0
  1  2  1  0  0  0  0
  1  3  1  0  0  0  0
  1  4  1  0  0  0  0
  1  5  1  0  0  0  0
  5  6  1  0  0  0  0
  5  7  1  0  0  0  0
  5  8  1  0  0  0  0
  8  9  1  0  0  0  0
  8 10  1  0  0  0  0
  8 11  1  0  0  0  0
 11 12  1  0  0  0  0
 11 13  1  0  0  0  0
 11 14  1  0  0  0  0
 14 15  1  0  0  0  0
 14 16  1  0  0  0  0
 14 17  1  0  0  0  0
M  END
> <VConfSearch Rank>
870

> <Conf_Id>
43

> <Delta U+W>
0.642

> <U+W>
-15.222

> <U>
45.697

> <W>
-60.919

> <W(PB)>
-62.631

> <W(SA)>
1.712

> <Valence>
1.262

> <Coulomb>
44.179

> <VdW>
0.255

> <VdW6>
-3.552

> <VdW12>
3.807

> <Bond>
0.125

> <Angle>
0.616

> <Pdih>
0.521

> <Idih>
0.000

> <Tether>
0.000

$$$$
VeraChem MOL file


 17 16  0  0  0  0  0  0  0  0999 V2000     
   19.2454   19.3793   19.1568 N   0  3  0  0  0  0  0  0  0  0  0  0
   18.2350   19.4315   19.3182 H   0  0  0  0  0  0  0  0  0  0  0  0
   19.4497   18.4284   18.8345 H   0  0  0  0  0  0  0  0  0  0  0  0
   19.4533   20.0083   18.3745 H   0  0  0  0  0  0  0  0  0  0  0  0
   20.0380   19.7412   20.3970 C   0  0  0  0  0  0  0  0  0  0  0  0
   19.7945   20.7731   20.6641 H   0  0  0  0  0  0  0  0  0  0  0  0
   21.1007   19.6946   20.1440 H   0  0  0  0  0  0  0  0  0  0  0  0
   19.7498   18.8154   21.5929 C   0  0  0  0  0  0  0  0  0  0  0  0
   18.6791   18.8529   21.8342 H   0  0  0  0  0  0  0  0  0  0  0  0
   19.9810   17.7782   21.3159 H   0  0  0  0  0  0  0  0  0  0  0  0
   20.5764   19.2182   22.8338 C   0  0  0  0  0  0  0  0  0  0  0  0
   20.3479   20.2575   23.1095 H   0  0  0  0  0  0  0  0  0  0  0  0
   21.6482   19.1840   22.5919 H   0  0  0  0  0  0  0  0  0  0  0  0
   20.2925   18.2939   24.0376 C   0  0  0  0  0  0  0  0  0  0  0  0
   20.8888   18.5966   24.9081 H   0  0  0  0  0  0  0  0  0  0  0  0
   20.5443   17.2513   23.8035 H   0  0  0  0  0  0  0  0  0  0  0  0
   19.2337   18.3333   24.3252 H   0  0  0  0  0  0  0  0  0  0  0  0
  1  2  1  0  0  0  0
  1  3  1  0  0  0  0
  1  4  1  0  0  0  0
  1  5  1  0  0  0  0
  5  6  1  0  0  0  0
  5  7  1  0  0  0  0
  5  8  1  0  0  0  0
  8  9  1  0  0  0  0
  8 10  1  0  0  0  0
  8 11  1  0  0  0  0
 11 12  1  0  0  0  0
 11 13  1  0  0  0  0
 11 14  1  0  0  0  0
 14 15  1  0  0  0  0
 14 16  1  0  0  0  0
 14 17  1  0  0  0  0
M  END
> <VConfSearch Rank>
871

> <Conf_Id>
7

> <Delta U+W>
0.000

> <U+W>
-15.865

> <U>
44.664

> <W>
-60.529

> <W(PB)>
-62.309

> <W(SA)>
1.780

> <Valence>
0.872

> <Coulomb>
43.648

> <VdW>
0.144

> <VdW6>
-2.370

> <VdW12>
2.515

> <Bond>
0.080

> <Angle>
0.376

> <Pdih>
0.416

> <Idih>
0.000

> <Tether>
0.000

$$$$
VeraChem MOL file


 17 16  0  0  0  0  0  0  0  0999 V2000     
   21.1698   17.5474   22.9945 N   0  3  0  0  0  0  0  0  0  0  0  0
   21.4782   16.7643   22.4103 H   0  0  0  0  0  0  0  0  0  0  0  0
   20.3885   17.2084   23.5639 H   0  0  0  0  0  0  0  0  0  0  0  0
   21.9384   17.7561   23.6400 H   0  0  0  0  0  0  0  0  0  0  0  0
   20.7855   18.7570   22.1659 C   0  0  0  0  0  0  0  0  0  0  0  0
   21.6698   19.0811   21.6106 H   0  0  0  0  0  0  0  0  0  0  0  0
   20.4995   19.5576   22.8530 H   0  0  0  0  0  0  0  0  0  0  0  0
   19.6314   18.4779   21.1839 C   0  0  0  0  0  0  0  0  0  0  0  0
   19.9131   17.6460   20.5248 H   0  0  0  0  0  0  0  0  0  0  0  0
   18.7438   18.1508   21.7416 H   0  0  0  0  0  0  0  0  0  0  0  0
   19.2751   19.7083   20.3172 C   0  0  0  0  0  0  0  0  0  0  0  0
   18.5051   19.4201   19.5878 H   0  0  0  0  0  0  0  0  0  0  0  0
   20.1536   20.0167   19.7330 H   0  0  0  0  0  0  0  0  0  0  0  0
   18.7588   20.9045   21.1493 C   0  0  0  0  0  0  0  0  0  0  0  0
   17.8834   20.6209   21.7478 H   0  0  0  0  0  0  0  0  0  0  0  0
   18.4608   21.7310   20.4912 H   0  0  0  0  0  0  0  0  0  0  0  0
   19.5306   21.2856   21.8299 H   0  0  0  0  0  0  0  0  0  0  0  0
  1  2  1  0  0  0  0
  1  3  1  0  0  0  0
  1  4  1  0  0  0  0
  1  5  1  0  0  0  0
  5  6  1  0  0  0  0
  5  7  1  0  0  0  0
  5  8  1  0  0  0  0
  8  9  1  0  0  0  0
  8 10  1  0  0  0  0
  8 11  1  0  0  0  0
 11 12  1  0  0  0  0
 11 13  1  0  0  0  0
 11 14  1  0  0  0  0
 14 15  1  0  0  0  0
 14 16  1  0  0  0  0
 14 17  1  0  0  0  0
M  END
> <VConfSearch Rank>
872

> <Conf_Id>
36

> <Delta U+W>
0.275

> <U+W>
-15.590

> <U>
45.174

> <W>
-60.765

> <W(PB)>
-62.518

> <W(SA)>
1.754

> <Valence>
1.161

> <Coulomb>
43.789

> <VdW>
0.224

> <VdW6>
-2.897

> <VdW12>
3.121

> <Bond>
0.100

> <Angle>
0.500

> <Pdih>
0.561

> <Idih>
0.000

> <Tether>
0.000

$$$$
VeraChem MOL file


 17 16  0  0  0  0  0  0  0  0999 V2000     
   19.4134   17.2187   21.8281 N   0  3  0  0  0  0  0  0  0  0  0  0
   19.7698   17.6152   22.7014 H   0  0  0  0  0  0  0  0  0  0  0  0
   20.1638   16.6473   21.4283 H   0  0  0  0  0  0  0  0  0  0  0  0
   18.6518   16.5786   22.0752 H   0  0  0  0  0  0  0  0  0  0  0  0
   18.9538   18.2980   20.8669 C   0  0  0  0  0  0  0  0  0  0  0  0
   18.1108   18.8290   21.3170 H   0  0  0  0  0  0  0  0  0  0  0  0
   18.5930   17.7923   19.9671 H   0  0  0  0  0  0  0  0  0  0  0  0
   20.0540   19.3051   20.4707 C   0  0  0  0  0  0  0  0  0  0  0  0
   20.9895   18.7730   20.2530 H   0  0  0  0  0  0  0  0  0  0  0  0
   19.7504   19.7788   19.5276 H   0  0  0  0  0  0  0  0  0  0  0  0
   20.3018   20.4282   21.5099 C   0  0  0  0  0  0  0  0  0  0  0  0
   19.3731   20.9934   21.6718 H   0  0  0  0  0  0  0  0  0  0  0  0
   21.0211   21.1415   21.0836 H   0  0  0  0  0  0  0  0  0  0  0  0
   20.8466   19.9326   22.8688 C   0  0  0  0  0  0  0  0  0  0  0  0
   20.0830   19.3841   23.4325 H   0  0  0  0  0  0  0  0  0  0  0  0
   21.1548   20.7846   23.4887 H   0  0  0  0  0  0  0  0  0  0  0  0
   21.7224   19.2844   22.7346 H   0  0  0  0  0  0  0  0  0  0  0  0
  1  2  1  0  0  0  0
  1  3  1  0  0  0  0
  1  4  1  0  0  0  0
  1  5  1  0  0  0  0
  5  6  1  0  0  0  0
  5  7  1  0  0  0  0
  5  8  1  0  0  0  0
  8  9  1  0  0  0  0
  8 10  1  0  0  0  0
  8 11  1  0  0  0  0
 11 12  1  0  0  0  0
 11 13  1  0  0  0  0
 11 14  1  0  0  0  0
 14 15  1  0  0  0  0
 14 16  1  0  0  0  0
 14 17  1  0  0  0  0
M  END
> <VConfSearch Rank>
873

> <Conf_Id>
19

> <Delta U+W>
2.662

> <U+W>
-13.203

> <U>
47.423

> <W>
-60.626

> <W(PB)>
-62.328

> <W(SA)>
1.702

> <Valence>
2.414

> <Coulomb>
44.831

> <VdW>
0.178

> <VdW6>
-3.743

> <VdW12>
3.921

> <Bond>
0.138

> <Angle>
0.941

> <Pdih>
1.335

> <Idih>
0.000

> <Tether>
0.000

$$$$
VeraChem MOL file


 17 16  0  0  0  0  0  0  0  0999 V2000     
   20.2431   17.8424   20.2449 N   0  3  0  0  0  0  0  0  0  0  0  0
   20.1019   17.5920   19.2610 H   0  0  0  0  0  0  0  0  0  0  0  0
   20.6596   17.0259   20.7025 H   0  0  0  0  0  0  0  0  0  0  0  0
   20.9416   18.5897   20.2691 H   0  0  0  0  0  0  0  0  0  0  0  0
   18.9473   18.2622   20.9118 C   0  0  0  0  0  0  0  0  0  0  0  0
   18.2629   17.4122   20.8441 H   0  0  0  0  0  0  0  0  0  0  0  0
   18.5153   19.0899   20.3430 H   0  0  0  0  0  0  0  0  0  0  0  0
   19.0988   18.6691   22.3927 C   0  0  0  0  0  0  0  0  0  0  0  0
   18.1123   18.5802   22.8670 H   0  0  0  0  0  0  0  0  0  0  0  0
   19.7491   17.9542   22.9141 H   0  0  0  0  0  0  0  0  0  0  0  0
   19.6045   20.1177   22.6128 C   0  0  0  0  0  0  0  0  0  0  0  0
   19.5742   20.3349   23.6898 H   0  0  0  0  0  0  0  0  0  0  0  0
   18.9107   20.8271   22.1402 H   0  0  0  0  0  0  0  0  0  0  0  0
   21.0382   20.3791   22.0982 C   0  0  0  0  0  0  0  0  0  0  0  0
   21.7416   19.6269   22.4784 H   0  0  0  0  0  0  0  0  0  0  0  0
   21.3896   21.3633   22.4344 H   0  0  0  0  0  0  0  0  0  0  0  0
   21.0786   20.3801   21.0027 H   0  0  0  0  0  0  0  0  0  0  0  0
  1  2  1  0  0  0  0
  1  3  1  0  0  0  0
  1  4  1  0  0  0  0
  1  5  1  0  0  0  0
  5  6  1  0  0  0  0
  5  7  1  0  0  0  0
  5  8  1  0  0  0  0
  8  9  1  0  0  0  0
  8 10  1  0  0  0  0
  8 11  1  0  0  0  0
 11 12  1  0  0  0  0
 11 13  1  0  0  0  0
 11 14  1  0  0  0  0
 14 15  1  0  0  0  0
 14 16  1  0  0  0  0
 14 17  1  0  0  0  0
M  END
> <VConfSearch Rank>
874

> <Conf_Id>
44

> <Delta U+W>
2.712

> <U+W>
-13.153

> <U>
47.423

> <W>
-60.576

> <W(PB)>
-62.262

> <W(SA)>
1.687

> <Valence>
2.414

> <Coulomb>
44.831

> <VdW>
0.178

> <VdW6>
-3.743

> <VdW12>
3.922

> <Bond>
0.138

> <Angle>
0.941

> <Pdih>
1.335

> <Idih>
0.000

> <Tether>
0.000

$$$$
VeraChem MOL file


 17 16  0  0  0  0  0  0  0  0999 V2000     
   18.3195   20.1426   22.0112 N   0  3  0  0  0  0  0  0  0  0  0  0
   18.1712   19.7319   21.0850 H   0  0  0  0  0  0  0  0  0  0  0  0
   18.5057   21.1405   21.8737 H   0  0  0  0  0  0  0  0  0  0  0  0
   17.4298   20.0725   22.5154 H   0  0  0  0  0  0  0  0  0  0  0  0
   19.4463   19.4543   22.7571 C   0  0  0  0  0  0  0  0  0  0  0  0
   19.1712   18.4054   22.8951 H   0  0  0  0  0  0  0  0  0  0  0  0
   19.5225   19.9163   23.7452 H   0  0  0  0  0  0  0  0  0  0  0  0
   20.8115   19.5447   22.0444 C   0  0  0  0  0  0  0  0  0  0  0  0
   21.0980   20.6002   21.9470 H   0  0  0  0  0  0  0  0  0  0  0  0
   21.5731   19.0791   22.6839 H   0  0  0  0  0  0  0  0  0  0  0  0
   20.8391   18.8736   20.6485 C   0  0  0  0  0  0  0  0  0  0  0  0
   21.8409   19.0005   20.2147 H   0  0  0  0  0  0  0  0  0  0  0  0
   20.1470   19.3884   19.9683 H   0  0  0  0  0  0  0  0  0  0  0  0
   20.4990   17.3663   20.6945 C   0  0  0  0  0  0  0  0  0  0  0  0
   21.1788   16.8288   21.3682 H   0  0  0  0  0  0  0  0  0  0  0  0
   20.5944   16.9194   19.6964 H   0  0  0  0  0  0  0  0  0  0  0  0
   19.4708   17.1944   21.0369 H   0  0  0  0  0  0  0  0  0  0  0  0
  1  2  1  0  0  0  0
  1  3  1  0  0  0  0
  1  4  1  0  0  0  0
  1  5  1  0  0  0  0
  5  6  1  0  0  0  0
  5  7  1  0  0  0  0
  5  8  1  0  0  0  0
  8  9  1  0  0  0  0
  8 10  1  0  0  0  0
  8 11  1  0  0  0  0
 11 12  1  0  0  0  0
 11 13  1  0  0  0  0
 11 14  1  0  0  0  0
 14 15  1  0  0  0  0
 14 16  1  0  0  0  0
 14 17  1  0  0  0  0
M  END
> <VConfSearch Rank>
875

> <Conf_Id>
1

> <Delta U+W>
0.685

> <U+W>
-15.179

> <U>
45.697

> <W>
-60.876

> <W(PB)>
-62.586

> <W(SA)>
1.710

> <Valence>
1.263

> <Coulomb>
44.179

> <VdW>
0.255

> <VdW6>
-3.552

> <VdW12>
3.807

> <Bond>
0.125

> <Angle>
0.616

> <Pdih>
0.521

> <Idih>
0.000

> <Tether>
0.000

$$$$
VeraChem MOL file


 17 16  0  0  0  0  0  0  0  0999 V2000     
   21.1285   20.5347   21.1153 N   0  3  0  0  0  0  0  0  0  0  0  0
   21.1657   21.2399   21.8574 H   0  0  0  0  0  0  0  0  0  0  0  0
   20.2506   20.6757   20.6074 H   0  0  0  0  0  0  0  0  0  0  0  0
   21.8894   20.7488   20.4628 H   0  0  0  0  0  0  0  0  0  0  0  0
   21.2383   19.1264   21.6672 C   0  0  0  0  0  0  0  0  0  0  0  0
   22.2098   19.0370   22.1608 H   0  0  0  0  0  0  0  0  0  0  0  0
   21.2218   18.4296   20.8252 H   0  0  0  0  0  0  0  0  0  0  0  0
   20.1219   18.7606   22.6671 C   0  0  0  0  0  0  0  0  0  0  0  0
   20.3182   17.7542   23.0600 H   0  0  0  0  0  0  0  0  0  0  0  0
   20.1725   19.4401   23.5282 H   0  0  0  0  0  0  0  0  0  0  0  0
   18.6963   18.8021   22.0626 C   0  0  0  0  0  0  0  0  0  0  0  0
   18.4493   19.8251   21.7478 H   0  0  0  0  0  0  0  0  0  0  0  0
   17.9716   18.5432   22.8473 H   0  0  0  0  0  0  0  0  0  0  0  0
   18.5149   17.8329   20.8721 C   0  0  0  0  0  0  0  0  0  0  0  0
   17.4758   17.8474   20.5185 H   0  0  0  0  0  0  0  0  0  0  0  0
   18.7552   16.8018   21.1625 H   0  0  0  0  0  0  0  0  0  0  0  0
   19.1562   18.1085   20.0255 H   0  0  0  0  0  0  0  0  0  0  0  0
  1  2  1  0  0  0  0
  1  3  1  0  0  0  0
  1  4  1  0  0  0  0
  1  5  1  0  0  0  0
  5  6  1  0  0  0  0
  5  7  1  0  0  0  0
  5  8  1  0  0  0  0
  8  9  1  0  0  0  0
  8 10  1  0  0  0  0
  8 11  1  0  0  0  0
 11 12  1  0  0  0  0
 11 13  1  0  0  0  0
 11 14  1  0  0  0  0
 14 15  1  0  0  0  0
 14 16  1  0  0  0  0
 14 17  1  0  0  0  0
M  END
> <VConfSearch Rank>
876

> <Conf_Id>
43

> <Delta U+W>
0.642

> <U+W>
-15.222

> <U>
45.697

> <W>
-60.919

> <W(PB)>
-62.631

> <W(SA)>
1.712

> <Valence>
1.262

> <Coulomb>
44.179

> <VdW>
0.255

> <VdW6>
-3.552

> <VdW12>
3.807

> <Bond>
0.125

> <Angle>
0.616

> <Pdih>
0.521

> <Idih>
0.000

> <Tether>
0.000

$$$$
VeraChem MOL file


 17 16  0  0  0  0  0  0  0  0999 V2000     
   19.4280   18.6629   24.0824 N   0  3  0  0  0  0  0  0  0  0  0  0
   20.3942   18.6467   24.4229 H   0  0  0  0  0  0  0  0  0  0  0  0
   19.1226   17.6886   23.9982 H   0  0  0  0  0  0  0  0  0  0  0  0
   18.8603   19.0884   24.8224 H   0  0  0  0  0  0  0  0  0  0  0  0
   19.3002   19.4135   22.7719 C   0  0  0  0  0  0  0  0  0  0  0  0
   19.6121   20.4474   22.9431 H   0  0  0  0  0  0  0  0  0  0  0  0
   18.2447   19.4170   22.4864 H   0  0  0  0  0  0  0  0  0  0  0  0
   20.1410   18.8006   21.6371 C   0  0  0  0  0  0  0  0  0  0  0  0
   21.1983   18.7845   21.9336 H   0  0  0  0  0  0  0  0  0  0  0  0
   19.8354   17.7578   21.4783 H   0  0  0  0  0  0  0  0  0  0  0  0
   19.9823   19.5944   20.3217 C   0  0  0  0  0  0  0  0  0  0  0  0
   20.2849   20.6391   20.4809 H   0  0  0  0  0  0  0  0  0  0  0  0
   18.9238   19.6136   20.0262 H   0  0  0  0  0  0  0  0  0  0  0  0
   20.8230   18.9854   19.1788 C   0  0  0  0  0  0  0  0  0  0  0  0
   20.6967   19.5632   18.2540 H   0  0  0  0  0  0  0  0  0  0  0  0
   20.5196   17.9506   18.9728 H   0  0  0  0  0  0  0  0  0  0  0  0
   21.8914   18.9842   19.4311 H   0  0  0  0  0  0  0  0  0  0  0  0
  1  2  1  0  0  0  0
  1  3  1  0  0  0  0
  1  4  1  0  0  0  0
  1  5  1  0  0  0  0
  5  6  1  0  0  0  0
  5  7  1  0  0  0  0
  5  8  1  0  0  0  0
  8  9  1  0  0  0  0
  8 10  1  0  0  0  0
  8 11  1  0  0  0  0
 11 12  1  0  0  0  0
 11 13  1  0  0  0  0
 11 14  1  0  0  0  0
 14 15  1  0  0  0  0
 14 16  1  0  0  0  0
 14 17  1  0  0  0  0
M  END
> <VConfSearch Rank>
877

> <Conf_Id>
7

> <Delta U+W>
0.000

> <U+W>
-15.865

> <U>
44.664

> <W>
-60.529

> <W(PB)>
-62.309

> <W(SA)>
1.780

> <Valence>
0.872

> <Coulomb>
43.648

> <VdW>
0.144

> <VdW6>
-2.370

> <VdW12>
2.515

> <Bond>
0.080

> <Angle>
0.376

> <Pdih>
0.416

> <Idih>
0.000

> <Tether>
0.000

$$$$
VeraChem MOL file


 17 16  0  0  0  0  0  0  0  0999 V2000     
   21.9068   17.7168   21.7288 N   0  3  0  0  0  0  0  0  0  0  0  0
   22.1394   17.4012   20.7823 H   0  0  0  0  0  0  0  0  0  0  0  0
   21.4935   16.9178   22.2192 H   0  0  0  0  0  0  0  0  0  0  0  0
   22.7941   17.9258   22.1978 H   0  0  0  0  0  0  0  0  0  0  0  0
   20.9800   18.9161   21.7157 C   0  0  0  0  0  0  0  0  0  0  0  0
   21.4945   19.7353   21.2063 H   0  0  0  0  0  0  0  0  0  0  0  0
   20.8023   19.2145   22.7522 H   0  0  0  0  0  0  0  0  0  0  0  0
   19.6353   18.6360   21.0177 C   0  0  0  0  0  0  0  0  0  0  0  0
   19.8266   18.2987   19.9903 H   0  0  0  0  0  0  0  0  0  0  0  0
   19.1193   17.8121   21.5283 H   0  0  0  0  0  0  0  0  0  0  0  0
   18.7147   19.8781   20.9763 C   0  0  0  0  0  0  0  0  0  0  0  0
   17.8123   19.6345   20.3981 H   0  0  0  0  0  0  0  0  0  0  0  0
   19.2167   20.6933   20.4362 H   0  0  0  0  0  0  0  0  0  0  0  0
   18.2960   20.3671   22.3819 C   0  0  0  0  0  0  0  0  0  0  0  0
   17.7967   19.5683   22.9456 H   0  0  0  0  0  0  0  0  0  0  0  0
   17.5964   21.2093   22.3038 H   0  0  0  0  0  0  0  0  0  0  0  0
   19.1610   20.7087   22.9644 H   0  0  0  0  0  0  0  0  0  0  0  0
  1  2  1  0  0  0  0
  1  3  1  0  0  0  0
  1  4  1  0  0  0  0
  1  5  1  0  0  0  0
  5  6  1  0  0  0  0
  5  7  1  0  0  0  0
  5  8  1  0  0  0  0
  8  9  1  0  0  0  0
  8 10  1  0  0  0  0
  8 11  1  0  0  0  0
 11 12  1  0  0  0  0
 11 13  1  0  0  0  0
 11 14  1  0  0  0  0
 14 15  1  0  0  0  0
 14 16  1  0  0  0  0
 14 17  1  0  0  0  0
M  END
> <VConfSearch Rank>
878

> <Conf_Id>
36

> <Delta U+W>
0.275

> <U+W>
-15.590

> <U>
45.174

> <W>
-60.765

> <W(PB)>
-62.518

> <W(SA)>
1.754

> <Valence>
1.161

> <Coulomb>
43.789

> <VdW>
0.224

> <VdW6>
-2.897

> <VdW12>
3.121

> <Bond>
0.100

> <Angle>
0.500

> <Pdih>
0.561

> <Idih>
0.000

> <Tether>
0.000

$$$$
VeraChem MOL file


 17 16  0  0  0  0  0  0  0  0999 V2000     
   19.7894   17.1418   21.7656 N   0  3  0  0  0  0  0  0  0  0  0  0
   19.0029   17.6193   22.2132 H   0  0  0  0  0  0  0  0  0  0  0  0
   20.4397   16.8704   22.5092 H   0  0  0  0  0  0  0  0  0  0  0  0
   19.4248   16.2746   21.3585 H   0  0  0  0  0  0  0  0  0  0  0  0
   20.4588   18.0167   20.7232 C   0  0  0  0  0  0  0  0  0  0  0  0
   19.7404   18.2174   19.9239 H   0  0  0  0  0  0  0  0  0  0  0  0
   21.2824   17.4357   20.2992 H   0  0  0  0  0  0  0  0  0  0  0  0
   21.0134   19.3476   21.2734 C   0  0  0  0  0  0  0  0  0  0  0  0
   21.5344   19.1731   22.2241 H   0  0  0  0  0  0  0  0  0  0  0  0
   21.7784   19.7069   20.5723 H   0  0  0  0  0  0  0  0  0  0  0  0
   19.9536   20.4669   21.4369 C   0  0  0  0  0  0  0  0  0  0  0  0
   19.4839   20.6760   20.4655 H   0  0  0  0  0  0  0  0  0  0  0  0
   20.4697   21.3919   21.7302 H   0  0  0  0  0  0  0  0  0  0  0  0
   18.8580   20.1616   22.4836 C   0  0  0  0  0  0  0  0  0  0  0  0
   18.1792   19.3736   22.1373 H   0  0  0  0  0  0  0  0  0  0  0  0
   18.2473   21.0553   22.6669 H   0  0  0  0  0  0  0  0  0  0  0  0
   19.2968   19.8559   23.4423 H   0  0  0  0  0  0  0  0  0  0  0  0
  1  2  1  0  0  0  0
  1  3  1  0  0  0  0
  1  4  1  0  0  0  0
  1  5  1  0  0  0  0
  5  6  1  0  0  0  0
  5  7  1  0  0  0  0
  5  8  1  0  0  0  0
  8  9  1  0  0  0  0
  8 10  1  0  0  0  0
  8 11  1  0  0  0  0
 11 12  1  0  0  0  0
 11 13  1  0  0  0  0
 11 14  1  0  0  0  0
 14 15  1  0  0  0  0
 14 16  1  0  0  0  0
 14 17  1  0  0  0  0
M  END
> <VConfSearch Rank>
879

> <Conf_Id>
19

> <Delta U+W>
2.662

> <U+W>
-13.203

> <U>
47.423

> <W>
-60.626

> <W(PB)>
-62.328

> <W(SA)>
1.702

> <Valence>
2.414

> <Coulomb>
44.831

> <VdW>
0.178

> <VdW6>
-3.743

> <VdW12>
3.921

> <Bond>
0.138

> <Angle>
0.941

> <Pdih>
1.335

> <Idih>
0.000

> <Tether>
0.000

$$$$
VeraChem MOL file


 17 16  0  0  0  0  0  0  0  0999 V2000     
   18.7599   20.4780   21.1611 N   0  3  0  0  0  0  0  0  0  0  0  0
   17.7978   20.7813   20.9791 H   0  0  0  0  0  0  0  0  0  0  0  0
   19.3735   21.2439   20.8671 H   0  0  0  0  0  0  0  0  0  0  0  0
   18.8603   20.3843   22.1750 H   0  0  0  0  0  0  0  0  0  0  0  0
   19.0892   19.1842   20.4416 C   0  0  0  0  0  0  0  0  0  0  0  0
   18.9595   19.3711   19.3721 H   0  0  0  0  0  0  0  0  0  0  0  0
   18.3630   18.4242   20.7422 H   0  0  0  0  0  0  0  0  0  0  0  0
   20.5212   18.6661   20.6915 C   0  0  0  0  0  0  0  0  0  0  0  0
   20.7793   17.9854   19.8693 H   0  0  0  0  0  0  0  0  0  0  0  0
   21.2370   19.4965   20.6308 H   0  0  0  0  0  0  0  0  0  0  0  0
   20.7023   17.8944   22.0236 C   0  0  0  0  0  0  0  0  0  0  0  0
   21.7213   17.4834   22.0496 H   0  0  0  0  0  0  0  0  0  0  0  0
   20.0250   17.0290   22.0444 H   0  0  0  0  0  0  0  0  0  0  0  0
   20.4841   18.7498   23.2923 C   0  0  0  0  0  0  0  0  0  0  0  0
   21.0778   19.6725   23.2579 H   0  0  0  0  0  0  0  0  0  0  0  0
   20.7902   18.1901   24.1857 H   0  0  0  0  0  0  0  0  0  0  0  0
   19.4280   19.0127   23.4235 H   0  0  0  0  0  0  0  0  0  0  0  0
  1  2  1  0  0  0  0
  1  3  1  0  0  0  0
  1  4  1  0  0  0  0
  1  5  1  0  0  0  0
  5  6  1  0  0  0  0
  5  7  1  0  0  0  0
  5  8  1  0  0  0  0
  8  9  1  0  0  0  0
  8 10  1  0  0  0  0
  8 11  1  0  0  0  0
 11 12  1  0  0  0  0
 11 13  1  0  0  0  0
 11 14  1  0  0  0  0
 14 15  1  0  0  0  0
 14 16  1  0  0  0  0
 14 17  1  0  0  0  0
M  END
> <VConfSearch Rank>
880

> <Conf_Id>
44

> <Delta U+W>
2.712

> <U+W>
-13.153

> <U>
47.423

> <W>
-60.576

> <W(PB)>
-62.262

> <W(SA)>
1.687

> <Valence>
2.414

> <Coulomb>
44.831

> <VdW>
0.178

> <VdW6>
-3.743

> <VdW12>
3.922

> <Bond>
0.138

> <Angle>
0.941

> <Pdih>
1.335

> <Idih>
0.000

> <Tether>
0.000

$$$$
VeraChem MOL file


 17 16  0  0  0  0  0  0  0  0999 V2000     
   20.5338   20.6470   20.6086 N   0  3  0  0  0  0  0  0  0  0  0  0
   21.3699   20.1184   20.8731 H   0  0  0  0  0  0  0  0  0  0  0  0
   20.5063   21.4847   21.1975 H   0  0  0  0  0  0  0  0  0  0  0  0
   20.6737   20.9654   19.6444 H   0  0  0  0  0  0  0  0  0  0  0  0
   19.2744   19.8141   20.7504 C   0  0  0  0  0  0  0  0  0  0  0  0
   19.3566   18.9570   20.0771 H   0  0  0  0  0  0  0  0  0  0  0  0
   18.4315   20.4258   20.4173 H   0  0  0  0  0  0  0  0  0  0  0  0
   19.0116   19.3224   22.1888 C   0  0  0  0  0  0  0  0  0  0  0  0
   18.8900   20.1907   22.8499 H   0  0  0  0  0  0  0  0  0  0  0  0
   18.0528   18.7875   22.2075 H   0  0  0  0  0  0  0  0  0  0  0  0
   20.1208   18.3992   22.7516 C   0  0  0  0  0  0  0  0  0  0  0  0
   19.8556   18.1131   23.7790 H   0  0  0  0  0  0  0  0  0  0  0  0
   21.0687   18.9494   22.8254 H   0  0  0  0  0  0  0  0  0  0  0  0
   20.3266   17.1182   21.9110 C   0  0  0  0  0  0  0  0  0  0  0  0
   19.3919   16.5493   21.8234 H   0  0  0  0  0  0  0  0  0  0  0  0
   21.0731   16.4649   22.3811 H   0  0  0  0  0  0  0  0  0  0  0  0
   20.6816   17.3516   20.8993 H   0  0  0  0  0  0  0  0  0  0  0  0
  1  2  1  0  0  0  0
  1  3  1  0  0  0  0
  1  4  1  0  0  0  0
  1  5  1  0  0  0  0
  5  6  1  0  0  0  0
  5  7  1  0  0  0  0
  5  8  1  0  0  0  0
  8  9  1  0  0  0  0
  8 10  1  0  0  0  0
  8 11  1  0  0  0  0
 11 12  1  0  0  0  0
 11 13  1  0  0  0  0
 11 14  1  0  0  0  0
 14 15  1  0  0  0  0
 14 16  1  0  0  0  0
 14 17  1  0  0  0  0
M  END
> <VConfSearch Rank>
881

> <Conf_Id>
1

> <Delta U+W>
0.685

> <U+W>
-15.179

> <U>
45.697

> <W>
-60.876

> <W(PB)>
-62.586

> <W(SA)>
1.710

> <Valence>
1.263

> <Coulomb>
44.179

> <VdW>
0.255

> <VdW6>
-3.552

> <VdW12>
3.807

> <Bond>
0.125

> <Angle>
0.616

> <Pdih>
0.521

> <Idih>
0.000

> <Tether>
0.000

$$$$
VeraChem MOL file


 17 16  0  0  0  0  0  0  0  0999 V2000     
   20.1142   21.0068   21.5577 N   0  3  0  0  0  0  0  0  0  0  0  0
   20.7145   21.3433   22.3165 H   0  0  0  0  0  0  0  0  0  0  0  0
   19.1979   20.8003   21.9654 H   0  0  0  0  0  0  0  0  0  0  0  0
   19.9840   21.7913   20.9109 H   0  0  0  0  0  0  0  0  0  0  0  0
   20.7058   19.7955   20.8630 C   0  0  0  0  0  0  0  0  0  0  0  0
   21.6596   20.0975   20.4218 H   0  0  0  0  0  0  0  0  0  0  0  0
   20.0336   19.5082   20.0504 H   0  0  0  0  0  0  0  0  0  0  0  0
   20.9349   18.5909   21.7992 C   0  0  0  0  0  0  0  0  0  0  0  0
   21.4219   17.7896   21.2277 H   0  0  0  0  0  0  0  0  0  0  0  0
   21.6428   18.8772   22.5883 H   0  0  0  0  0  0  0  0  0  0  0  0
   19.6395   18.0402   22.4458 C   0  0  0  0  0  0  0  0  0  0  0  0
   19.1882   18.8024   23.0955 H   0  0  0  0  0  0  0  0  0  0  0  0
   19.9019   17.1989   23.1025 H   0  0  0  0  0  0  0  0  0  0  0  0
   18.6004   17.5607   21.4064 C   0  0  0  0  0  0  0  0  0  0  0  0
   17.7293   17.1197   21.9080 H   0  0  0  0  0  0  0  0  0  0  0  0
   19.0280   16.7963   20.7447 H   0  0  0  0  0  0  0  0  0  0  0  0
   18.2395   18.3893   20.7842 H   0  0  0  0  0  0  0  0  0  0  0  0
  1  2  1  0  0  0  0
  1  3  1  0  0  0  0
  1  4  1  0  0  0  0
  1  5  1  0  0  0  0
  5  6  1  0  0  0  0
  5  7  1  0  0  0  0
  5  8  1  0  0  0  0
  8  9  1  0  0  0  0
  8 10  1  0  0  0  0
  8 11  1  0  0  0  0
 11 12  1  0  0  0  0
 11 13  1  0  0  0  0
 11 14  1  0  0  0  0
 14 15  1  0  0  0  0
 14 16  1  0  0  0  0
 14 17  1  0  0  0  0
M  END
> <VConfSearch Rank>
882

> <Conf_Id>
43

> <Delta U+W>
0.642

> <U+W>
-15.222

> <U>
45.697

> <W>
-60.919

> <W(PB)>
-62.631

> <W(SA)>
1.712

> <Valence>
1.262

> <Coulomb>
44.179

> <VdW>
0.255

> <VdW6>
-3.552

> <VdW12>
3.807

> <Bond>
0.125

> <Angle>
0.616

> <Pdih>
0.521

> <Idih>
0.000

> <Tether>
0.000

$$$$
VeraChem MOL file


 17 16  0  0  0  0  0  0  0  0999 V2000     
   19.0909   20.6733   19.8026 N   0  3  0  0  0  0  0  0  0  0  0  0
   19.8548   21.3539   19.8558 H   0  0  0  0  0  0  0  0  0  0  0  0
   18.3064   21.0595   20.3366 H   0  0  0  0  0  0  0  0  0  0  0  0
   18.7931   20.6382   18.8223 H   0  0  0  0  0  0  0  0  0  0  0  0
   19.5090   19.3090   20.3138 C   0  0  0  0  0  0  0  0  0  0  0  0
   20.3245   18.9471   19.6817 H   0  0  0  0  0  0  0  0  0  0  0  0
   18.6594   18.6305   20.1987 H   0  0  0  0  0  0  0  0  0  0  0  0
   19.9627   19.3252   21.7849 C   0  0  0  0  0  0  0  0  0  0  0  0
   20.8059   20.0193   21.8995 H   0  0  0  0  0  0  0  0  0  0  0  0
   19.1466   19.7036   22.4147 H   0  0  0  0  0  0  0  0  0  0  0  0
   20.3796   17.9177   22.2651 C   0  0  0  0  0  0  0  0  0  0  0  0
   21.1943   17.5370   21.6329 H   0  0  0  0  0  0  0  0  0  0  0  0
   19.5369   17.2217   22.1475 H   0  0  0  0  0  0  0  0  0  0  0  0
   20.8360   17.9261   23.7400 C   0  0  0  0  0  0  0  0  0  0  0  0
   21.1277   16.9179   24.0615 H   0  0  0  0  0  0  0  0  0  0  0  0
   20.0300   18.2699   24.4014 H   0  0  0  0  0  0  0  0  0  0  0  0
   21.7004   18.5877   23.8827 H   0  0  0  0  0  0  0  0  0  0  0  0
  1  2  1  0  0  0  0
  1  3  1  0  0  0  0
  1  4  1  0  0  0  0
  1  5  1  0  0  0  0
  5  6  1  0  0  0  0
  5  7  1  0  0  0  0
  5  8  1  0  0  0  0
  8  9  1  0  0  0  0
  8 10  1  0  0  0  0
  8 11  1  0  0  0  0
 11 12  1  0  0  0  0
 11 13  1  0  0  0  0
 11 14  1  0  0  0  0
 14 15  1  0  0  0  0
 14 16  1  0  0  0  0
 14 17  1  0  0  0  0
M  END
> <VConfSearch Rank>
883

> <Conf_Id>
7

> <Delta U+W>
0.000

> <U+W>
-15.865

> <U>
44.664

> <W>
-60.529

> <W(PB)>
-62.309

> <W(SA)>
1.780

> <Valence>
0.872

> <Coulomb>
43.648

> <VdW>
0.144

> <VdW6>
-2.370

> <VdW12>
2.515

> <Bond>
0.080

> <Angle>
0.376

> <Pdih>
0.416

> <Idih>
0.000

> <Tether>
0.000

$$$$
VeraChem MOL file


 17 16  0  0  0  0  0  0  0  0999 V2000     
   20.9851   20.6363   20.0909 N   0  3  0  0  0  0  0  0  0  0  0  0
   21.6975   21.1681   20.6001 H   0  0  0  0  0  0  0  0  0  0  0  0
   20.1866   21.2625   19.9491 H   0  0  0  0  0  0  0  0  0  0  0  0
   21.3723   20.4352   19.1633 H   0  0  0  0  0  0  0  0  0  0  0  0
   20.5900   19.3697   20.8237 C   0  0  0  0  0  0  0  0  0  0  0  0
   21.4790   18.7394   20.9124 H   0  0  0  0  0  0  0  0  0  0  0  0
   19.8553   18.8420   20.2101 H   0  0  0  0  0  0  0  0  0  0  0  0
   20.0031   19.6364   22.2231 C   0  0  0  0  0  0  0  0  0  0  0  0
   20.7331   20.2015   22.8177 H   0  0  0  0  0  0  0  0  0  0  0  0
   19.1113   20.2708   22.1341 H   0  0  0  0  0  0  0  0  0  0  0  0
   19.6406   18.3348   22.9758 C   0  0  0  0  0  0  0  0  0  0  0  0
   19.3055   18.5909   23.9907 H   0  0  0  0  0  0  0  0  0  0  0  0
   20.5394   17.7134   23.0950 H   0  0  0  0  0  0  0  0  0  0  0  0
   18.5340   17.5173   22.2707 C   0  0  0  0  0  0  0  0  0  0  0  0
   17.6255   18.1181   22.1337 H   0  0  0  0  0  0  0  0  0  0  0  0
   18.2659   16.6367   22.8687 H   0  0  0  0  0  0  0  0  0  0  0  0
   18.8612   17.1609   21.2858 H   0  0  0  0  0  0  0  0  0  0  0  0
  1  2  1  0  0  0  0
  1  3  1  0  0  0  0
  1  4  1  0  0  0  0
  1  5  1  0  0  0  0
  5  6  1  0  0  0  0
  5  7  1  0  0  0  0
  5  8  1  0  0  0  0
  8  9  1  0  0  0  0
  8 10  1  0  0  0  0
  8 11  1  0  0  0  0
 11 12  1  0  0  0  0
 11 13  1  0  0  0  0
 11 14  1  0  0  0  0
 14 15  1  0  0  0  0
 14 16  1  0  0  0  0
 14 17  1  0  0  0  0
M  END
> <VConfSearch Rank>
884

> <Conf_Id>
36

> <Delta U+W>
0.275

> <U+W>
-15.590

> <U>
45.174

> <W>
-60.765

> <W(PB)>
-62.518

> <W(SA)>
1.754

> <Valence>
1.161

> <Coulomb>
43.789

> <VdW>
0.224

> <VdW6>
-2.897

> <VdW12>
3.121

> <Bond>
0.100

> <Angle>
0.500

> <Pdih>
0.561

> <Idih>
0.000

> <Tether>
0.000

$$$$
VeraChem MOL file


 17 16  0  0  0  0  0  0  0  0999 V2000     
   20.2297   19.5904   23.3354 N   0  3  0  0  0  0  0  0  0  0  0  0
   21.1065   19.5273   22.8119 H   0  0  0  0  0  0  0  0  0  0  0  0
   20.1769   18.7621   23.9358 H   0  0  0  0  0  0  0  0  0  0  0  0
   20.3057   20.4029   23.9559 H   0  0  0  0  0  0  0  0  0  0  0  0
   19.0304   19.6952   22.4131 C   0  0  0  0  0  0  0  0  0  0  0  0
   19.1061   20.6283   21.8483 H   0  0  0  0  0  0  0  0  0  0  0  0
   18.1427   19.7561   23.0485 H   0  0  0  0  0  0  0  0  0  0  0  0
   18.8722   18.5074   21.4406 C   0  0  0  0  0  0  0  0  0  0  0  0
   19.0440   17.5618   21.9717 H   0  0  0  0  0  0  0  0  0  0  0  0
   17.8251   18.4817   21.1110 H   0  0  0  0  0  0  0  0  0  0  0  0
   19.7675   18.5869   20.1778 C   0  0  0  0  0  0  0  0  0  0  0  0
   19.5410   19.5074   19.6215 H   0  0  0  0  0  0  0  0  0  0  0  0
   19.4998   17.7553   19.5109 H   0  0  0  0  0  0  0  0  0  0  0  0
   21.2847   18.5188   20.4648 C   0  0  0  0  0  0  0  0  0  0  0  0
   21.6438   19.4335   20.9506 H   0  0  0  0  0  0  0  0  0  0  0  0
   21.8449   18.4110   19.5268 H   0  0  0  0  0  0  0  0  0  0  0  0
   21.5319   17.6588   21.1008 H   0  0  0  0  0  0  0  0  0  0  0  0
  1  2  1  0  0  0  0
  1  3  1  0  0  0  0
  1  4  1  0  0  0  0
  1  5  1  0  0  0  0
  5  6  1  0  0  0  0
  5  7  1  0  0  0  0
  5  8  1  0  0  0  0
  8  9  1  0  0  0  0
  8 10  1  0  0  0  0
  8 11  1  0  0  0  0
 11 12  1  0  0  0  0
 11 13  1  0  0  0  0
 11 14  1  0  0  0  0
 14 15  1  0  0  0  0
 14 16  1  0  0  0  0
 14 17  1  0  0  0  0
M  END
> <VConfSearch Rank>
885

> <Conf_Id>
19

> <Delta U+W>
2.662

> <U+W>
-13.203

> <U>
47.423

> <W>
-60.626

> <W(PB)>
-62.328

> <W(SA)>
1.702

> <Valence>
2.414

> <Coulomb>
44.831

> <VdW>
0.178

> <VdW6>
-3.743

> <VdW12>
3.921

> <Bond>
0.138

> <Angle>
0.941

> <Pdih>
1.335

> <Idih>
0.000

> <Tether>
0.000

$$$$
VeraChem MOL file


 17 16  0  0  0  0  0  0  0  0999 V2000     
   19.3817   18.0090   20.1519 N   0  3  0  0  0  0  0  0  0  0  0  0
   19.1810   17.0627   19.8124 H   0  0  0  0  0  0  0  0  0  0  0  0
   19.4484   18.6126   19.3268 H   0  0  0  0  0  0  0  0  0  0  0  0
   18.5651   18.3178   20.6854 H   0  0  0  0  0  0  0  0  0  0  0  0
   20.6476   18.0525   20.9859 C   0  0  0  0  0  0  0  0  0  0  0  0
   21.4650   17.7118   20.3446 H   0  0  0  0  0  0  0  0  0  0  0  0
   20.5460   17.3414   21.8101 H   0  0  0  0  0  0  0  0  0  0  0  0
   20.9935   19.4501   21.5415 C   0  0  0  0  0  0  0  0  0  0  0  0
   22.0649   19.4592   21.7818 H   0  0  0  0  0  0  0  0  0  0  0  0
   20.8534   20.2098   20.7610 H   0  0  0  0  0  0  0  0  0  0  0  0
   20.2145   19.8434   22.8226 C   0  0  0  0  0  0  0  0  0  0  0  0
   20.6109   20.8010   23.1884 H   0  0  0  0  0  0  0  0  0  0  0  0
   20.4134   19.1093   23.6161 H   0  0  0  0  0  0  0  0  0  0  0  0
   18.6884   19.9862   22.6240 C   0  0  0  0  0  0  0  0  0  0  0  0
   18.4565   20.6414   21.7743 H   0  0  0  0  0  0  0  0  0  0  0  0
   18.2277   20.4255   23.5184 H   0  0  0  0  0  0  0  0  0  0  0  0
   18.2110   19.0129   22.4614 H   0  0  0  0  0  0  0  0  0  0  0  0
  1  2  1  0  0  0  0
  1  3  1  0  0  0  0
  1  4  1  0  0  0  0
  1  5  1  0  0  0  0
  5  6  1  0  0  0  0
  5  7  1  0  0  0  0
  5  8  1  0  0  0  0
  8  9  1  0  0  0  0
  8 10  1  0  0  0  0
  8 11  1  0  0  0  0
 11 12  1  0  0  0  0
 11 13  1  0  0  0  0
 11 14  1  0  0  0  0
 14 15  1  0  0  0  0
 14 16  1  0  0  0  0
 14 17  1  0  0  0  0
M  END
> <VConfSearch Rank>
886

> <Conf_Id>
44

> <Delta U+W>
2.712

> <U+W>
-13.153

> <U>
47.423

> <W>
-60.576

> <W(PB)>
-62.262

> <W(SA)>
1.687

> <Valence>
2.414

> <Coulomb>
44.831

> <VdW>
0.178

> <VdW6>
-3.743

> <VdW12>
3.922

> <Bond>
0.138

> <Angle>
0.941

> <Pdih>
1.335

> <Idih>
0.000

> <Tether>
0.000

$$$$
VeraChem MOL file


 17 16  0  0  0  0  0  0  0  0999 V2000     
   18.0717   18.6179   22.1966 N   0  3  0  0  0  0  0  0  0  0  0  0
   18.0617   19.5783   21.8416 H   0  0  0  0  0  0  0  0  0  0  0  0
   17.9848   18.6709   23.2159 H   0  0  0  0  0  0  0  0  0  0  0  0
   17.2223   18.1615   21.8489 H   0  0  0  0  0  0  0  0  0  0  0  0
   19.3244   17.8754   21.7733 C   0  0  0  0  0  0  0  0  0  0  0  0
   19.3394   17.8299   20.6813 H   0  0  0  0  0  0  0  0  0  0  0  0
   19.2498   16.8528   22.1531 H   0  0  0  0  0  0  0  0  0  0  0  0
   20.6310   18.5163   22.2853 C   0  0  0  0  0  0  0  0  0  0  0  0
   20.6243   18.5204   23.3833 H   0  0  0  0  0  0  0  0  0  0  0  0
   21.4747   17.8797   21.9873 H   0  0  0  0  0  0  0  0  0  0  0  0
   20.8717   19.9562   21.7673 C   0  0  0  0  0  0  0  0  0  0  0  0
   21.8120   20.3329   22.1935 H   0  0  0  0  0  0  0  0  0  0  0  0
   20.0826   20.6264   22.1345 H   0  0  0  0  0  0  0  0  0  0  0  0
   20.9500   20.0398   20.2256 C   0  0  0  0  0  0  0  0  0  0  0  0
   21.7336   19.3783   19.8339 H   0  0  0  0  0  0  0  0  0  0  0  0
   21.1861   21.0634   19.9071 H   0  0  0  0  0  0  0  0  0  0  0  0
   19.9985   19.7586   19.7570 H   0  0  0  0  0  0  0  0  0  0  0  0
  1  2  1  0  0  0  0
  1  3  1  0  0  0  0
  1  4  1  0  0  0  0
  1  5  1  0  0  0  0
  5  6  1  0  0  0  0
  5  7  1  0  0  0  0
  5  8  1  0  0  0  0
  8  9  1  0  0  0  0
  8 10  1  0  0  0  0
  8 11  1  0  0  0  0
 11 12  1  0  0  0  0
 11 13  1  0  0  0  0
 11 14  1  0  0  0  0
 14 15  1  0  0  0  0
 14 16  1  0  0  0  0
 14 17  1  0  0  0  0
M  END
> <VConfSearch Rank>
887

> <Conf_Id>
1

> <Delta U+W>
0.685

> <U+W>
-15.179

> <U>
45.697

> <W>
-60.876

> <W(PB)>
-62.586

> <W(SA)>
1.710

> <Valence>
1.263

> <Coulomb>
44.179

> <VdW>
0.255

> <VdW6>
-3.552

> <VdW12>
3.807

> <Bond>
0.125

> <Angle>
0.616

> <Pdih>
0.521

> <Idih>
0.000

> <Tether>
0.000

$$$$
VeraChem MOL file


 17 16  0  0  0  0  0  0  0  0999 V2000     
   21.0583   17.9330   20.3912 N   0  3  0  0  0  0  0  0  0  0  0  0
   20.6652   16.9970   20.2542 H   0  0  0  0  0  0  0  0  0  0  0  0
   21.5140   17.9388   21.3082 H   0  0  0  0  0  0  0  0  0  0  0  0
   21.7962   18.0516   19.6897 H   0  0  0  0  0  0  0  0  0  0  0  0
   19.9990   19.0129   20.2835 C   0  0  0  0  0  0  0  0  0  0  0  0
   19.5840   18.9726   19.2727 H   0  0  0  0  0  0  0  0  0  0  0  0
   20.4883   19.9822   20.4093 H   0  0  0  0  0  0  0  0  0  0  0  0
   18.8569   18.8695   21.3106 C   0  0  0  0  0  0  0  0  0  0  0  0
   18.1099   19.6506   21.1166 H   0  0  0  0  0  0  0  0  0  0  0  0
   18.3457   17.9111   21.1497 H   0  0  0  0  0  0  0  0  0  0  0  0
   19.3206   18.9635   22.7856 C   0  0  0  0  0  0  0  0  0  0  0  0
   19.9992   18.1326   23.0218 H   0  0  0  0  0  0  0  0  0  0  0  0
   18.4467   18.8365   23.4400 H   0  0  0  0  0  0  0  0  0  0  0  0
   20.0072   20.3076   23.1200 C   0  0  0  0  0  0  0  0  0  0  0  0
   20.2593   20.3561   24.1873 H   0  0  0  0  0  0  0  0  0  0  0  0
   19.3473   21.1550   22.8933 H   0  0  0  0  0  0  0  0  0  0  0  0
   20.9382   20.4374   22.5540 H   0  0  0  0  0  0  0  0  0  0  0  0
  1  2  1  0  0  0  0
  1  3  1  0  0  0  0
  1  4  1  0  0  0  0
  1  5  1  0  0  0  0
  5  6  1  0  0  0  0
  5  7  1  0  0  0  0
  5  8  1  0  0  0  0
  8  9  1  0  0  0  0
  8 10  1  0  0  0  0
  8 11  1  0  0  0  0
 11 12  1  0  0  0  0
 11 13  1  0  0  0  0
 11 14  1  0  0  0  0
 14 15  1  0  0  0  0
 14 16  1  0  0  0  0
 14 17  1  0  0  0  0
M  END
> <VConfSearch Rank>
888

> <Conf_Id>
43

> <Delta U+W>
0.642

> <U+W>
-15.222

> <U>
45.697

> <W>
-60.919

> <W(PB)>
-62.631

> <W(SA)>
1.712

> <Valence>
1.262

> <Coulomb>
44.179

> <VdW>
0.255

> <VdW6>
-3.552

> <VdW12>
3.807

> <Bond>
0.125

> <Angle>
0.616

> <Pdih>
0.521

> <Idih>
0.000

> <Tether>
0.000

$$$$
VeraChem MOL file


 17 16  0  0  0  0  0  0  0  0999 V2000     
   18.5951   17.0303   20.8209 N   0  3  0  0  0  0  0  0  0  0  0  0
   19.0495   16.9083   19.9108 H   0  0  0  0  0  0  0  0  0  0  0  0
   17.7111   17.5201   20.6524 H   0  0  0  0  0  0  0  0  0  0  0  0
   18.3546   16.0932   21.1598 H   0  0  0  0  0  0  0  0  0  0  0  0
   19.4788   17.7747   21.8018 C   0  0  0  0  0  0  0  0  0  0  0  0
   20.3848   17.1825   21.9566 H   0  0  0  0  0  0  0  0  0  0  0  0
   18.9456   17.8403   22.7541 H   0  0  0  0  0  0  0  0  0  0  0  0
   19.8597   19.1878   21.3237 C   0  0  0  0  0  0  0  0  0  0  0  0
   20.3813   19.1190   20.3597 H   0  0  0  0  0  0  0  0  0  0  0  0
   18.9470   19.7746   21.1546 H   0  0  0  0  0  0  0  0  0  0  0  0
   20.7591   19.9104   22.3505 C   0  0  0  0  0  0  0  0  0  0  0  0
   21.6714   19.3218   22.5227 H   0  0  0  0  0  0  0  0  0  0  0  0
   20.2389   19.9766   23.3166 H   0  0  0  0  0  0  0  0  0  0  0  0
   21.1454   21.3286   21.8777 C   0  0  0  0  0  0  0  0  0  0  0  0
   21.7837   21.8246   22.6203 H   0  0  0  0  0  0  0  0  0  0  0  0
   20.2542   21.9525   21.7300 H   0  0  0  0  0  0  0  0  0  0  0  0
   21.6980   21.2925   20.9298 H   0  0  0  0  0  0  0  0  0  0  0  0
  1  2  1  0  0  0  0
  1  3  1  0  0  0  0
  1  4  1  0  0  0  0
  1  5  1  0  0  0  0
  5  6  1  0  0  0  0
  5  7  1  0  0  0  0
  5  8  1  0  0  0  0
  8  9  1  0  0  0  0
  8 10  1  0  0  0  0
  8 11  1  0  0  0  0
 11 12  1  0  0  0  0
 11 13  1  0  0  0  0
 11 14  1  0  0  0  0
 14 15  1  0  0  0  0
 14 16  1  0  0  0  0
 14 17  1  0  0  0  0
M  END
> <VConfSearch Rank>
889

> <Conf_Id>
7

> <Delta U+W>
0.000

> <U+W>
-15.865

> <U>
44.664

> <W>
-60.529

> <W(PB)>
-62.309

> <W(SA)>
1.780

> <Valence>
0.872

> <Coulomb>
43.648

> <VdW>
0.144

> <VdW6>
-2.370

> <VdW12>
2.515

> <Bond>
0.080

> <Angle>
0.376

> <Pdih>
0.416

> <Idih>
0.000

> <Tether>
0.000

$$$$
VeraChem MOL file


 17 16  0  0  0  0  0  0  0  0999 V2000     
   18.4874   17.1598   21.5802 N   0  3  0  0  0  0  0  0  0  0  0  0
   17.5215   17.4722   21.4422 H   0  0  0  0  0  0  0  0  0  0  0  0
   18.5802   16.8960   22.5658 H   0  0  0  0  0  0  0  0  0  0  0  0
   18.6025   16.3016   21.0315 H   0  0  0  0  0  0  0  0  0  0  0  0
   19.4907   18.2233   21.1804 C   0  0  0  0  0  0  0  0  0  0  0  0
   19.3551   18.4326   20.1159 H   0  0  0  0  0  0  0  0  0  0  0  0
   20.4927   17.8106   21.3239 H   0  0  0  0  0  0  0  0  0  0  0  0
   19.3456   19.5281   21.9869 C   0  0  0  0  0  0  0  0  0  0  0  0
   18.3240   19.9128   21.8681 H   0  0  0  0  0  0  0  0  0  0  0  0
   19.4801   19.3175   23.0562 H   0  0  0  0  0  0  0  0  0  0  0  0
   20.3487   20.6184   21.5429 C   0  0  0  0  0  0  0  0  0  0  0  0
   20.1395   21.5434   22.0984 H   0  0  0  0  0  0  0  0  0  0  0  0
   20.1931   20.8543   20.4806 H   0  0  0  0  0  0  0  0  0  0  0  0
   21.8227   20.2137   21.7743 C   0  0  0  0  0  0  0  0  0  0  0  0
   22.0037   19.9667   22.8285 H   0  0  0  0  0  0  0  0  0  0  0  0
   22.4952   21.0380   21.5034 H   0  0  0  0  0  0  0  0  0  0  0  0
   22.1028   19.3448   21.1656 H   0  0  0  0  0  0  0  0  0  0  0  0
  1  2  1  0  0  0  0
  1  3  1  0  0  0  0
  1  4  1  0  0  0  0
  1  5  1  0  0  0  0
  5  6  1  0  0  0  0
  5  7  1  0  0  0  0
  5  8  1  0  0  0  0
  8  9  1  0  0  0  0
  8 10  1  0  0  0  0
  8 11  1  0  0  0  0
 11 12  1  0  0  0  0
 11 13  1  0  0  0  0
 11 14  1  0  0  0  0
 14 15  1  0  0  0  0
 14 16  1  0  0  0  0
 14 17  1  0  0  0  0
M  END
> <VConfSearch Rank>
890

> <Conf_Id>
36

> <Delta U+W>
0.275

> <U+W>
-15.590

> <U>
45.174

> <W>
-60.765

> <W(PB)>
-62.518

> <W(SA)>
1.754

> <Valence>
1.161

> <Coulomb>
43.789

> <VdW>
0.224

> <VdW6>
-2.897

> <VdW12>
3.121

> <Bond>
0.100

> <Angle>
0.500

> <Pdih>
0.561

> <Idih>
0.000

> <Tether>
0.000

$$$$
VeraChem MOL file


 17 16  0  0  0  0  0  0  0  0999 V2000     
   21.3205   17.7758   21.3241 N   0  3  0  0  0  0  0  0  0  0  0  0
   21.6762   18.6745   21.6596 H   0  0  0  0  0  0  0  0  0  0  0  0
   21.4750   17.7496   20.3117 H   0  0  0  0  0  0  0  0  0  0  0  0
   21.9110   17.0448   21.7338 H   0  0  0  0  0  0  0  0  0  0  0  0
   19.8580   17.5830   21.6762 C   0  0  0  0  0  0  0  0  0  0  0  0
   19.7633   17.5513   22.7649 H   0  0  0  0  0  0  0  0  0  0  0  0
   19.5603   16.6073   21.2827 H   0  0  0  0  0  0  0  0  0  0  0  0
   18.9192   18.6646   21.1014 C   0  0  0  0  0  0  0  0  0  0  0  0
   19.1835   18.8748   20.0566 H   0  0  0  0  0  0  0  0  0  0  0  0
   17.9035   18.2479   21.0772 H   0  0  0  0  0  0  0  0  0  0  0  0
   18.8754   19.9793   21.9214 C   0  0  0  0  0  0  0  0  0  0  0  0
   18.5485   19.7637   22.9484 H   0  0  0  0  0  0  0  0  0  0  0  0
   18.1045   20.6319   21.4880 H   0  0  0  0  0  0  0  0  0  0  0  0
   20.2122   20.7542   21.9584 C   0  0  0  0  0  0  0  0  0  0  0  0
   20.9622   20.2339   22.5654 H   0  0  0  0  0  0  0  0  0  0  0  0
   20.0653   21.7451   22.4076 H   0  0  0  0  0  0  0  0  0  0  0  0
   20.6147   20.9032   20.9480 H   0  0  0  0  0  0  0  0  0  0  0  0
  1  2  1  0  0  0  0
  1  3  1  0  0  0  0
  1  4  1  0  0  0  0
  1  5  1  0  0  0  0
  5  6  1  0  0  0  0
  5  7  1  0  0  0  0
  5  8  1  0  0  0  0
  8  9  1  0  0  0  0
  8 10  1  0  0  0  0
  8 11  1  0  0  0  0
 11 12  1  0  0  0  0
 11 13  1  0  0  0  0
 11 14  1  0  0  0  0
 14 15  1  0  0  0  0
 14 16  1  0  0  0  0
 14 17  1  0  0  0  0
M  END
> <VConfSearch Rank>
891

> <Conf_Id>
19

> <Delta U+W>
2.662

> <U+W>
-13.203

> <U>
47.423

> <W>
-60.626

> <W(PB)>
-62.328

> <W(SA)>
1.702

> <Valence>
2.414

> <Coulomb>
44.831

> <VdW>
0.178

> <VdW6>
-3.743

> <VdW12>
3.921

> <Bond>
0.138

> <Angle>
0.941

> <Pdih>
1.335

> <Idih>
0.000

> <Tether>
0.000

$$$$
VeraChem MOL file


 17 16  0  0  0  0  0  0  0  0999 V2000     
   20.8923   17.5023   21.5901 N   0  3  0  0  0  0  0  0  0  0  0  0
   21.7874   17.0633   21.8286 H   0  0  0  0  0  0  0  0  0  0  0  0
   20.3858   16.8400   20.9950 H   0  0  0  0  0  0  0  0  0  0  0  0
   20.3600   17.5941   22.4591 H   0  0  0  0  0  0  0  0  0  0  0  0
   21.0857   18.8415   20.9052 C   0  0  0  0  0  0  0  0  0  0  0  0
   21.6572   18.6541   19.9920 H   0  0  0  0  0  0  0  0  0  0  0  0
   21.6882   19.4814   21.5554 H   0  0  0  0  0  0  0  0  0  0  0  0
   19.7712   19.5613   20.5367 C   0  0  0  0  0  0  0  0  0  0  0  0
   19.9970   20.2852   19.7425 H   0  0  0  0  0  0  0  0  0  0  0  0
   19.0613   18.8465   20.0997 H   0  0  0  0  0  0  0  0  0  0  0  0
   19.1093   20.3305   21.7085 C   0  0  0  0  0  0  0  0  0  0  0  0
   18.2474   20.8869   21.3141 H   0  0  0  0  0  0  0  0  0  0  0  0
   19.8073   21.0861   22.0956 H   0  0  0  0  0  0  0  0  0  0  0  0
   18.6259   19.4328   22.8701 C   0  0  0  0  0  0  0  0  0  0  0  0
   18.0008   18.6083   22.5032 H   0  0  0  0  0  0  0  0  0  0  0  0
   18.0238   20.0176   23.5777 H   0  0  0  0  0  0  0  0  0  0  0  0
   19.4685   19.0150   23.4332 H   0  0  0  0  0  0  0  0  0  0  0  0
  1  2  1  0  0  0  0
  1  3  1  0  0  0  0
  1  4  1  0  0  0  0
  1  5  1  0  0  0  0
  5  6  1  0  0  0  0
  5  7  1  0  0  0  0
  5  8  1  0  0  0  0
  8  9  1  0  0  0  0
  8 10  1  0  0  0  0
  8 11  1  0  0  0  0
 11 12  1  0  0  0  0
 11 13  1  0  0  0  0
 11 14  1  0  0  0  0
 14 15  1  0  0  0  0
 14 16  1  0  0  0  0
 14 17  1  0  0  0  0
M  END
> <VConfSearch Rank>
892

> <Conf_Id>
44

> <Delta U+W>
2.712

> <U+W>
-13.153

> <U>
47.423

> <W>
-60.576

> <W(PB)>
-62.262

> <W(SA)>
1.687

> <Valence>
2.414

> <Coulomb>
44.831

> <VdW>
0.178

> <VdW6>
-3.743

> <VdW12>
3.922

> <Bond>
0.138

> <Angle>
0.941

> <Pdih>
1.335

> <Idih>
0.000

> <Tether>
0.000

$$$$
VeraChem MOL file


 17 16  0  0  0  0  0  0  0  0999 V2000     
   18.4168   19.0864   22.8982 N   0  3  0  0  0  0  0  0  0  0  0  0
   18.6641   20.0576   22.6883 H   0  0  0  0  0  0  0  0  0  0  0  0
   18.7376   18.8915   23.8514 H   0  0  0  0  0  0  0  0  0  0  0  0
   17.3932   19.0347   22.9123 H   0  0  0  0  0  0  0  0  0  0  0  0
   19.0164   18.1238   21.8914 C   0  0  0  0  0  0  0  0  0  0  0  0
   18.6117   18.3678   20.9058 H   0  0  0  0  0  0  0  0  0  0  0  0
   18.6821   17.1164   22.1540 H   0  0  0  0  0  0  0  0  0  0  0  0
   20.5580   18.1538   21.8428 C   0  0  0  0  0  0  0  0  0  0  0  0
   20.9553   17.8680   22.8258 H   0  0  0  0  0  0  0  0  0  0  0  0
   20.9023   17.3848   21.1387 H   0  0  0  0  0  0  0  0  0  0  0  0
   21.1487   19.5246   21.4286 C   0  0  0  0  0  0  0  0  0  0  0  0
   22.2455   19.4541   21.4361 H   0  0  0  0  0  0  0  0  0  0  0  0
   20.8891   20.2885   22.1741 H   0  0  0  0  0  0  0  0  0  0  0  0
   20.6847   19.9854   20.0278 C   0  0  0  0  0  0  0  0  0  0  0  0
   20.9343   19.2378   19.2637 H   0  0  0  0  0  0  0  0  0  0  0  0
   21.1774   20.9260   19.7491 H   0  0  0  0  0  0  0  0  0  0  0  0
   19.6015   20.1577   19.9974 H   0  0  0  0  0  0  0  0  0  0  0  0
  1  2  1  0  0  0  0
  1  3  1  0  0  0  0
  1  4  1  0  0  0  0
  1  5  1  0  0  0  0
  5  6  1  0  0  0  0
  5  7  1  0  0  0  0
  5  8  1  0  0  0  0
  8  9  1  0  0  0  0
  8 10  1  0  0  0  0
  8 11  1  0  0  0  0
 11 12  1  0  0  0  0
 11 13  1  0  0  0  0
 11 14  1  0  0  0  0
 14 15  1  0  0  0  0
 14 16  1  0  0  0  0
 14 17  1  0  0  0  0
M  END
> <VConfSearch Rank>
893

> <Conf_Id>
1

> <Delta U+W>
0.685

> <U+W>
-15.179

> <U>
45.697

> <W>
-60.876

> <W(PB)>
-62.586

> <W(SA)>
1.710

> <Valence>
1.263

> <Coulomb>
44.179

> <VdW>
0.255

> <VdW6>
-3.552

> <VdW12>
3.807

> <Bond>
0.125

> <Angle>
0.616

> <Pdih>
0.521

> <Idih>
0.000

> <Tether>
0.000

$$$$
VeraChem MOL file


 17 16  0  0  0  0  0  0  0  0999 V2000     
   19.7703   18.3957   19.7234 N   0  3  0  0  0  0  0  0  0  0  0  0
   18.8282   18.0482   19.5207 H   0  0  0  0  0  0  0  0  0  0  0  0
   20.2563   17.6638   20.2493 H   0  0  0  0  0  0  0  0  0  0  0  0
   20.2531   18.4886   18.8239 H   0  0  0  0  0  0  0  0  0  0  0  0
   19.7381   19.7071   20.4843 C   0  0  0  0  0  0  0  0  0  0  0  0
   19.2410   20.4472   19.8513 H   0  0  0  0  0  0  0  0  0  0  0  0
   20.7692   20.0343   20.6406 H   0  0  0  0  0  0  0  0  0  0  0  0
   19.0080   19.6223   21.8407 C   0  0  0  0  0  0  0  0  0  0  0  0
   18.9782   20.6252   22.2869 H   0  0  0  0  0  0  0  0  0  0  0  0
   17.9627   19.3327   21.6698 H   0  0  0  0  0  0  0  0  0  0  0  0
   19.6567   18.6372   22.8448 C   0  0  0  0  0  0  0  0  0  0  0  0
   19.6112   17.6125   22.4515 H   0  0  0  0  0  0  0  0  0  0  0  0
   19.0635   18.6333   23.7700 H   0  0  0  0  0  0  0  0  0  0  0  0
   21.1200   18.9986   23.1881 C   0  0  0  0  0  0  0  0  0  0  0  0
   21.5169   18.3150   23.9498 H   0  0  0  0  0  0  0  0  0  0  0  0
   21.1916   20.0196   23.5849 H   0  0  0  0  0  0  0  0  0  0  0  0
   21.7710   18.9269   22.3077 H   0  0  0  0  0  0  0  0  0  0  0  0
  1  2  1  0  0  0  0
  1  3  1  0  0  0  0
  1  4  1  0  0  0  0
  1  5  1  0  0  0  0
  5  6  1  0  0  0  0
  5  7  1  0  0  0  0
  5  8  1  0  0  0  0
  8  9  1  0  0  0  0
  8 10  1  0  0  0  0
  8 11  1  0  0  0  0
 11 12  1  0  0  0  0
 11 13  1  0  0  0  0
 11 14  1  0  0  0  0
 14 15  1  0  0  0  0
 14 16  1  0  0  0  0
 14 17  1  0  0  0  0
M  END
> <VConfSearch Rank>
894

> <Conf_Id>
43

> <Delta U+W>
0.642

> <U+W>
-15.222

> <U>
45.697

> <W>
-60.919

> <W(PB)>
-62.631

> <W(SA)>
1.712

> <Valence>
1.262

> <Coulomb>
44.179

> <VdW>
0.255

> <VdW6>
-3.552

> <VdW12>
3.807

> <Bond>
0.125

> <Angle>
0.616

> <Pdih>
0.521

> <Idih>
0.000

> <Tether>
0.000

$$$$
VeraChem MOL file


 17 16  0  0  0  0  0  0  0  0999 V2000     
   21.0267   21.2313   20.7466 N   0  3  0  0  0  0  0  0  0  0  0  0
   20.6682   21.8532   21.4777 H   0  0  0  0  0  0  0  0  0  0  0  0
   20.4292   21.3584   19.9241 H   0  0  0  0  0  0  0  0  0  0  0  0
   21.9575   21.5779   20.4931 H   0  0  0  0  0  0  0  0  0  0  0  0
   21.0680   19.7858   21.2006 C   0  0  0  0  0  0  0  0  0  0  0  0
   21.7443   19.7202   22.0573 H   0  0  0  0  0  0  0  0  0  0  0  0
   21.4873   19.1881   20.3867 H   0  0  0  0  0  0  0  0  0  0  0  0
   19.6850   19.2322   21.5896 C   0  0  0  0  0  0  0  0  0  0  0  0
   19.2604   19.8442   22.3966 H   0  0  0  0  0  0  0  0  0  0  0  0
   19.0044   19.3138   20.7317 H   0  0  0  0  0  0  0  0  0  0  0  0
   19.7718   17.7591   22.0455 C   0  0  0  0  0  0  0  0  0  0  0  0
   20.4556   17.6763   22.9022 H   0  0  0  0  0  0  0  0  0  0  0  0
   20.1998   17.1466   21.2393 H   0  0  0  0  0  0  0  0  0  0  0  0
   18.3881   17.1970   22.4374 C   0  0  0  0  0  0  0  0  0  0  0  0
   18.4713   16.1504   22.7580 H   0  0  0  0  0  0  0  0  0  0  0  0
   17.6916   17.2346   21.5897 H   0  0  0  0  0  0  0  0  0  0  0  0
   17.9494   17.7685   23.2657 H   0  0  0  0  0  0  0  0  0  0  0  0
  1  2  1  0  0  0  0
  1  3  1  0  0  0  0
  1  4  1  0  0  0  0
  1  5  1  0  0  0  0
  5  6  1  0  0  0  0
  5  7  1  0  0  0  0
  5  8  1  0  0  0  0
  8  9  1  0  0  0  0
  8 10  1  0  0  0  0
  8 11  1  0  0  0  0
 11 12  1  0  0  0  0
 11 13  1  0  0  0  0
 11 14  1  0  0  0  0
 14 15  1  0  0  0  0
 14 16  1  0  0  0  0
 14 17  1  0  0  0  0
M  END
> <VConfSearch Rank>
895

> <Conf_Id>
7

> <Delta U+W>
0.000

> <U+W>
-15.865

> <U>
44.664

> <W>
-60.529

> <W(PB)>
-62.309

> <W(SA)>
1.780

> <Valence>
0.872

> <Coulomb>
43.648

> <VdW>
0.144

> <VdW6>
-2.370

> <VdW12>
2.515

> <Bond>
0.080

> <Angle>
0.376

> <Pdih>
0.416

> <Idih>
0.000

> <Tether>
0.000

$$$$
VeraChem MOL file


 17 16  0  0  0  0  0  0  0  0999 V2000     
   17.9522   17.8757   22.2777 N   0  3  0  0  0  0  0  0  0  0  0  0
   17.1296   18.3527   21.8962 H   0  0  0  0  0  0  0  0  0  0  0  0
   17.9843   18.0867   23.2797 H   0  0  0  0  0  0  0  0  0  0  0  0
   17.7772   16.8693   22.1922 H   0  0  0  0  0  0  0  0  0  0  0  0
   19.2271   18.2884   21.5695 C   0  0  0  0  0  0  0  0  0  0  0  0
   19.1351   18.0075   20.5169 H   0  0  0  0  0  0  0  0  0  0  0  0
   20.0526   17.7195   22.0053 H   0  0  0  0  0  0  0  0  0  0  0  0
   19.5208   19.7969   21.6787 C   0  0  0  0  0  0  0  0  0  0  0  0
   18.6686   20.3596   21.2749 H   0  0  0  0  0  0  0  0  0  0  0  0
   19.6116   20.0793   22.7360 H   0  0  0  0  0  0  0  0  0  0  0  0
   20.8028   20.2115   20.9193 C   0  0  0  0  0  0  0  0  0  0  0  0
   20.9096   21.3042   20.9692 H   0  0  0  0  0  0  0  0  0  0  0  0
   20.7001   19.9597   19.8543 H   0  0  0  0  0  0  0  0  0  0  0  0
   22.0811   19.5535   21.4874 C   0  0  0  0  0  0  0  0  0  0  0  0
   22.2043   19.7849   22.5535 H   0  0  0  0  0  0  0  0  0  0  0  0
   22.9706   19.9220   20.9601 H   0  0  0  0  0  0  0  0  0  0  0  0
   22.0578   18.4623   21.3739 H   0  0  0  0  0  0  0  0  0  0  0  0
  1  2  1  0  0  0  0
  1  3  1  0  0  0  0
  1  4  1  0  0  0  0
  1  5  1  0  0  0  0
  5  6  1  0  0  0  0
  5  7  1  0  0  0  0
  5  8  1  0  0  0  0
  8  9  1  0  0  0  0
  8 10  1  0  0  0  0
  8 11  1  0  0  0  0
 11 12  1  0  0  0  0
 11 13  1  0  0  0  0
 11 14  1  0  0  0  0
 14 15  1  0  0  0  0
 14 16  1  0  0  0  0
 14 17  1  0  0  0  0
M  END
> <VConfSearch Rank>
896

> <Conf_Id>
36

> <Delta U+W>
0.275

> <U+W>
-15.590

> <U>
45.174

> <W>
-60.765

> <W(PB)>
-62.518

> <W(SA)>
1.754

> <Valence>
1.161

> <Coulomb>
43.789

> <VdW>
0.224

> <VdW6>
-2.897

> <VdW12>
3.121

> <Bond>
0.100

> <Angle>
0.500

> <Pdih>
0.561

> <Idih>
0.000

> <Tether>
0.000

$$$$
VeraChem MOL file


 17 16  0  0  0  0  0  0  0  0999 V2000     
   20.6925   18.2003   20.0958 N   0  3  0  0  0  0  0  0  0  0  0  0
   19.8807   17.6713   20.4244 H   0  0  0  0  0  0  0  0  0  0  0  0
   21.5275   17.7052   20.4234 H   0  0  0  0  0  0  0  0  0  0  0  0
   20.6961   18.1442   19.0723 H   0  0  0  0  0  0  0  0  0  0  0  0
   20.6619   19.6365   20.5820 C   0  0  0  0  0  0  0  0  0  0  0  0
   19.7897   20.1325   20.1479 H   0  0  0  0  0  0  0  0  0  0  0  0
   21.5582   20.1257   20.1908 H   0  0  0  0  0  0  0  0  0  0  0  0
   20.6373   19.7860   22.1178 C   0  0  0  0  0  0  0  0  0  0  0  0
   21.3568   19.0934   22.5742 H   0  0  0  0  0  0  0  0  0  0  0  0
   20.9947   20.7953   22.3618 H   0  0  0  0  0  0  0  0  0  0  0  0
   19.2371   19.6085   22.7585 C   0  0  0  0  0  0  0  0  0  0  0  0
   18.5420   20.3493   22.3389 H   0  0  0  0  0  0  0  0  0  0  0  0
   19.3154   19.8385   23.8304 H   0  0  0  0  0  0  0  0  0  0  0  0
   18.6373   18.1927   22.6015 C   0  0  0  0  0  0  0  0  0  0  0  0
   18.3447   17.9925   21.5642 H   0  0  0  0  0  0  0  0  0  0  0  0
   17.7335   18.0920   23.2163 H   0  0  0  0  0  0  0  0  0  0  0  0
   19.3477   17.4207   22.9249 H   0  0  0  0  0  0  0  0  0  0  0  0
  1  2  1  0  0  0  0
  1  3  1  0  0  0  0
  1  4  1  0  0  0  0
  1  5  1  0  0  0  0
  5  6  1  0  0  0  0
  5  7  1  0  0  0  0
  5  8  1  0  0  0  0
  8  9  1  0  0  0  0
  8 10  1  0  0  0  0
  8 11  1  0  0  0  0
 11 12  1  0  0  0  0
 11 13  1  0  0  0  0
 11 14  1  0  0  0  0
 14 15  1  0  0  0  0
 14 16  1  0  0  0  0
 14 17  1  0  0  0  0
M  END
> <VConfSearch Rank>
897

> <Conf_Id>
19

> <Delta U+W>
2.662

> <U+W>
-13.203

> <U>
47.423

> <W>
-60.626

> <W(PB)>
-62.328

> <W(SA)>
1.702

> <Valence>
2.414

> <Coulomb>
44.831

> <VdW>
0.178

> <VdW6>
-3.743

> <VdW12>
3.921

> <Bond>
0.138

> <Angle>
0.941

> <Pdih>
1.335

> <Idih>
0.000

> <Tether>
0.000

$$$$
VeraChem MOL file


 17 16  0  0  0  0  0  0  0  0999 V2000     
   19.6595   20.8662   21.2137 N   0  3  0  0  0  0  0  0  0  0  0  0
   19.3650   21.5614   20.5204 H   0  0  0  0  0  0  0  0  0  0  0  0
   20.1399   21.3768   21.9608 H   0  0  0  0  0  0  0  0  0  0  0  0
   18.8100   20.4667   21.6204 H   0  0  0  0  0  0  0  0  0  0  0  0
   20.5454   19.7986   20.6010 C   0  0  0  0  0  0  0  0  0  0  0  0
   21.4242   20.3067   20.1947 H   0  0  0  0  0  0  0  0  0  0  0  0
   20.0081   19.3358   19.7689 H   0  0  0  0  0  0  0  0  0  0  0  0
   21.0076   18.7111   21.5937 C   0  0  0  0  0  0  0  0  0  0  0  0
   21.9065   18.2376   21.1771 H   0  0  0  0  0  0  0  0  0  0  0  0
   21.3216   19.1741   22.5386 H   0  0  0  0  0  0  0  0  0  0  0  0
   19.9624   17.5978   21.8599 C   0  0  0  0  0  0  0  0  0  0  0  0
   20.4294   16.8284   22.4907 H   0  0  0  0  0  0  0  0  0  0  0  0
   19.7039   17.1000   20.9147 H   0  0  0  0  0  0  0  0  0  0  0  0
   18.6711   18.0865   22.5546 C   0  0  0  0  0  0  0  0  0  0  0  0
   18.8997   18.6714   23.4550 H   0  0  0  0  0  0  0  0  0  0  0  0
   18.0565   17.2301   22.8611 H   0  0  0  0  0  0  0  0  0  0  0  0
   18.0586   18.6975   21.8813 H   0  0  0  0  0  0  0  0  0  0  0  0
  1  2  1  0  0  0  0
  1  3  1  0  0  0  0
  1  4  1  0  0  0  0
  1  5  1  0  0  0  0
  5  6  1  0  0  0  0
  5  7  1  0  0  0  0
  5  8  1  0  0  0  0
  8  9  1  0  0  0  0
  8 10  1  0  0  0  0
  8 11  1  0  0  0  0
 11 12  1  0  0  0  0
 11 13  1  0  0  0  0
 11 14  1  0  0  0  0
 14 15  1  0  0  0  0
 14 16  1  0  0  0  0
 14 17  1  0  0  0  0
M  END
> <VConfSearch Rank>
898

> <Conf_Id>
44

> <Delta U+W>
2.712

> <U+W>
-13.153

> <U>
47.423

> <W>
-60.576

> <W(PB)>
-62.262

> <W(SA)>
1.687

> <Valence>
2.414

> <Coulomb>
44.831

> <VdW>
0.178

> <VdW6>
-3.743

> <VdW12>
3.922

> <Bond>
0.138

> <Angle>
0.941

> <Pdih>
1.335

> <Idih>
0.000

> <Tether>
0.000

$$$$
VeraChem MOL file


 17 16  0  0  0  0  0  0  0  0999 V2000     
   18.3344   20.1362   21.1184 N   0  3  0  0  0  0  0  0  0  0  0  0
   18.0055   19.1760   21.2539 H   0  0  0  0  0  0  0  0  0  0  0  0
   18.3012   20.3286   20.1128 H   0  0  0  0  0  0  0  0  0  0  0  0
   17.6468   20.7534   21.5623 H   0  0  0  0  0  0  0  0  0  0  0  0
   19.7252   20.3393   21.6878 C   0  0  0  0  0  0  0  0  0  0  0  0
   19.6832   20.1474   22.7631 H   0  0  0  0  0  0  0  0  0  0  0  0
   19.9945   21.3890   21.5422 H   0  0  0  0  0  0  0  0  0  0  0  0
   20.8002   19.4417   21.0407 C   0  0  0  0  0  0  0  0  0  0  0  0
   20.8632   19.6706   19.9686 H   0  0  0  0  0  0  0  0  0  0  0  0
   21.7782   19.7022   21.4668 H   0  0  0  0  0  0  0  0  0  0  0  0
   20.5506   17.9245   21.2287 C   0  0  0  0  0  0  0  0  0  0  0  0
   21.3541   17.3688   20.7252 H   0  0  0  0  0  0  0  0  0  0  0  0
   19.6185   17.6303   20.7274 H   0  0  0  0  0  0  0  0  0  0  0  0
   20.4998   17.4987   22.7139 C   0  0  0  0  0  0  0  0  0  0  0  0
   21.4225   17.7814   23.2372 H   0  0  0  0  0  0  0  0  0  0  0  0
   20.3873   16.4100   22.7986 H   0  0  0  0  0  0  0  0  0  0  0  0
   19.6536   17.9605   23.2379 H   0  0  0  0  0  0  0  0  0  0  0  0
  1  2  1  0  0  0  0
  1  3  1  0  0  0  0
  1  4  1  0  0  0  0
  1  5  1  0  0  0  0
  5  6  1  0  0  0  0
  5  7  1  0  0  0  0
  5  8  1  0  0  0  0
  8  9  1  0  0  0  0
  8 10  1  0  0  0  0
  8 11  1  0  0  0  0
 11 12  1  0  0  0  0
 11 13  1  0  0  0  0
 11 14  1  0  0  0  0
 14 15  1  0  0  0  0
 14 16  1  0  0  0  0
 14 17  1  0  0  0  0
M  END
> <VConfSearch Rank>
899

> <Conf_Id>
1

> <Delta U+W>
0.685

> <U+W>
-15.179

> <U>
45.697

> <W>
-60.876

> <W(PB)>
-62.586

> <W(SA)>
1.710

> <Valence>
1.263

> <Coulomb>
44.179

> <VdW>
0.255

> <VdW6>
-3.552

> <VdW12>
3.807

> <Bond>
0.125

> <Angle>
0.616

> <Pdih>
0.521

> <Idih>
0.000

> <Tether>
0.000

$$$$
VeraChem MOL file


 17 16  0  0  0  0  0  0  0  0999 V2000     
   18.1179   18.7533   22.3744 N   0  3  0  0  0  0  0  0  0  0  0  0
   18.0399   17.8391   22.8300 H   0  0  0  0  0  0  0  0  0  0  0  0
   18.0400   18.5964   21.3656 H   0  0  0  0  0  0  0  0  0  0  0  0
   17.2965   19.2975   22.6568 H   0  0  0  0  0  0  0  0  0  0  0  0
   19.4119   19.4568   22.7354 C   0  0  0  0  0  0  0  0  0  0  0  0
   19.4097   19.6243   23.8159 H   0  0  0  0  0  0  0  0  0  0  0  0
   19.4168   20.4324   22.2424 H   0  0  0  0  0  0  0  0  0  0  0  0
   20.6792   18.6694   22.3432 C   0  0  0  0  0  0  0  0  0  0  0  0
   21.5596   19.2210   22.6988 H   0  0  0  0  0  0  0  0  0  0  0  0
   20.6854   17.7086   22.8747 H   0  0  0  0  0  0  0  0  0  0  0  0
   20.8177   18.4158   20.8213 C   0  0  0  0  0  0  0  0  0  0  0  0
   19.9905   17.7860   20.4667 H   0  0  0  0  0  0  0  0  0  0  0  0
   21.7361   17.8398   20.6408 H   0  0  0  0  0  0  0  0  0  0  0  0
   20.8716   19.7197   19.9927 C   0  0  0  0  0  0  0  0  0  0  0  0
   21.0354   19.4946   18.9309 H   0  0  0  0  0  0  0  0  0  0  0  0
   21.6925   20.3668   20.3281 H   0  0  0  0  0  0  0  0  0  0  0  0
   19.9353   20.2865   20.0700 H   0  0  0  0  0  0  0  0  0  0  0  0
  1  2  1  0  0  0  0
  1  3  1  0  0  0  0
  1  4  1  0  0  0  0
  1  5  1  0  0  0  0
  5  6  1  0  0  0  0
  5  7  1  0  0  0  0
  5  8  1  0  0  0  0
  8  9  1  0  0  0  0
  8 10  1  0  0  0  0
  8 11  1  0  0  0  0
 11 12  1  0  0  0  0
 11 13  1  0  0  0  0
 11 14  1  0  0  0  0
 14 15  1  0  0  0  0
 14 16  1  0  0  0  0
 14 17  1  0  0  0  0
M  END
> <VConfSearch Rank>
900

> <Conf_Id>
43

> <Delta U+W>
0.642

> <U+W>
-15.222

> <U>
45.697

> <W>
-60.919

> <W(PB)>
-62.631

> <W(SA)>
1.712

> <Valence>
1.262

> <Coulomb>
44.179

> <VdW>
0.255

> <VdW6>
-3.552

> <VdW12>
3.807

> <Bond>
0.125

> <Angle>
0.616

> <Pdih>
0.521

> <Idih>
0.000

> <Tether>
0.000

$$$$
VeraChem MOL file


 17 16  0  0  0  0  0  0  0  0999 V2000     
   19.9709   21.0708   23.1988 N   0  3  0  0  0  0  0  0  0  0  0  0
   20.1476   20.5516   24.0642 H   0  0  0  0  0  0  0  0  0  0  0  0
   18.9666   21.2716   23.1684 H   0  0  0  0  0  0  0  0  0  0  0  0
   20.4505   21.9722   23.2910 H   0  0  0  0  0  0  0  0  0  0  0  0
   20.4349   20.3082   21.9739 C   0  0  0  0  0  0  0  0  0  0  0  0
   21.5145   20.1572   22.0592 H   0  0  0  0  0  0  0  0  0  0  0  0
   20.2446   20.9315   21.0960 H   0  0  0  0  0  0  0  0  0  0  0  0
   19.7340   18.9479   21.8046 C   0  0  0  0  0  0  0  0  0  0  0  0
   19.9145   18.3306   22.6947 H   0  0  0  0  0  0  0  0  0  0  0  0
   18.6490   19.1023   21.7347 H   0  0  0  0  0  0  0  0  0  0  0  0
   20.2350   18.2047   20.5468 C   0  0  0  0  0  0  0  0  0  0  0  0
   21.3216   18.0529   20.6147 H   0  0  0  0  0  0  0  0  0  0  0  0
   20.0576   18.8235   19.6558 H   0  0  0  0  0  0  0  0  0  0  0  0
   19.5363   16.8392   20.3704 C   0  0  0  0  0  0  0  0  0  0  0  0
   19.9059   16.3276   19.4722 H   0  0  0  0  0  0  0  0  0  0  0  0
   18.4505   16.9614   20.2650 H   0  0  0  0  0  0  0  0  0  0  0  0
   19.7244   16.1847   21.2315 H   0  0  0  0  0  0  0  0  0  0  0  0
  1  2  1  0  0  0  0
  1  3  1  0  0  0  0
  1  4  1  0  0  0  0
  1  5  1  0  0  0  0
  5  6  1  0  0  0  0
  5  7  1  0  0  0  0
  5  8  1  0  0  0  0
  8  9  1  0  0  0  0
  8 10  1  0  0  0  0
  8 11  1  0  0  0  0
 11 12  1  0  0  0  0
 11 13  1  0  0  0  0
 11 14  1  0  0  0  0
 14 15  1  0  0  0  0
 14 16  1  0  0  0  0
 14 17  1  0  0  0  0
M  END
> <VConfSearch Rank>
901

> <Conf_Id>
7

> <Delta U+W>
0.000

> <U+W>
-15.865

> <U>
44.664

> <W>
-60.529

> <W(PB)>
-62.309

> <W(SA)>
1.780

> <Valence>
0.872

> <Coulomb>
43.648

> <VdW>
0.144

> <VdW6>
-2.370

> <VdW12>
2.515

> <Bond>
0.080

> <Angle>
0.376

> <Pdih>
0.416

> <Idih>
0.000

> <Tether>
0.000

$$$$
VeraChem MOL file


 17 16  0  0  0  0  0  0  0  0999 V2000     
   18.0663   20.6183   21.4142 N   0  3  0  0  0  0  0  0  0  0  0  0
   18.4296   21.5596   21.2366 H   0  0  0  0  0  0  0  0  0  0  0  0
   17.7575   20.5945   22.3908 H   0  0  0  0  0  0  0  0  0  0  0  0
   17.2271   20.5105   20.8354 H   0  0  0  0  0  0  0  0  0  0  0  0
   19.0966   19.5467   21.1185 C   0  0  0  0  0  0  0  0  0  0  0  0
   19.3563   19.6111   20.0584 H   0  0  0  0  0  0  0  0  0  0  0  0
   18.6312   18.5743   21.2991 H   0  0  0  0  0  0  0  0  0  0  0  0
   20.3721   19.6792   21.9726 C   0  0  0  0  0  0  0  0  0  0  0  0
   20.8095   20.6739   21.8143 H   0  0  0  0  0  0  0  0  0  0  0  0
   20.1110   19.6162   23.0374 H   0  0  0  0  0  0  0  0  0  0  0  0
   21.4311   18.6041   21.6339 C   0  0  0  0  0  0  0  0  0  0  0  0
   22.3410   18.8031   22.2173 H   0  0  0  0  0  0  0  0  0  0  0  0
   21.7181   18.6873   20.5761 H   0  0  0  0  0  0  0  0  0  0  0  0
   20.9476   17.1656   21.9289 C   0  0  0  0  0  0  0  0  0  0  0  0
   20.6485   17.0570   22.9796 H   0  0  0  0  0  0  0  0  0  0  0  0
   21.7495   16.4422   21.7327 H   0  0  0  0  0  0  0  0  0  0  0  0
   20.0924   16.8902   21.2989 H   0  0  0  0  0  0  0  0  0  0  0  0
  1  2  1  0  0  0  0
  1  3  1  0  0  0  0
  1  4  1  0  0  0  0
  1  5  1  0  0  0  0
  5  6  1  0  0  0  0
  5  7  1  0  0  0  0
  5  8  1  0  0  0  0
  8  9  1  0  0  0  0
  8 10  1  0  0  0  0
  8 11  1  0  0  0  0
 11 12  1  0  0  0  0
 11 13  1  0  0  0  0
 11 14  1  0  0  0  0
 14 15  1  0  0  0  0
 14 16  1  0  0  0  0
 14 17  1  0  0  0  0
M  END
> <VConfSearch Rank>
902

> <Conf_Id>
36

> <Delta U+W>
0.275

> <U+W>
-15.590

> <U>
45.174

> <W>
-60.765

> <W(PB)>
-62.518

> <W(SA)>
1.754

> <Valence>
1.161

> <Coulomb>
43.789

> <VdW>
0.224

> <VdW6>
-2.897

> <VdW12>
3.121

> <Bond>
0.100

> <Angle>
0.500

> <Pdih>
0.561

> <Idih>
0.000

> <Tether>
0.000

$$$$
VeraChem MOL file


 17 16  0  0  0  0  0  0  0  0999 V2000     
   20.0473   18.0738   19.9864 N   0  3  0  0  0  0  0  0  0  0  0  0
   19.0748   18.2668   20.2391 H   0  0  0  0  0  0  0  0  0  0  0  0
   20.2325   17.0953   20.2266 H   0  0  0  0  0  0  0  0  0  0  0  0
   20.1150   18.1473   18.9662 H   0  0  0  0  0  0  0  0  0  0  0  0
   21.0076   19.0170   20.6849 C   0  0  0  0  0  0  0  0  0  0  0  0
   20.8084   20.0351   20.3399 H   0  0  0  0  0  0  0  0  0  0  0  0
   22.0160   18.7426   20.3633 H   0  0  0  0  0  0  0  0  0  0  0  0
   20.9398   18.9650   22.2258 C   0  0  0  0  0  0  0  0  0  0  0  0
   20.8903   17.9217   22.5646 H   0  0  0  0  0  0  0  0  0  0  0  0
   21.8855   19.3639   22.6163 H   0  0  0  0  0  0  0  0  0  0  0  0
   19.7827   19.7889   22.8464 C   0  0  0  0  0  0  0  0  0  0  0  0
   19.8798   20.8431   22.5510 H   0  0  0  0  0  0  0  0  0  0  0  0
   19.8913   19.7686   23.9399 H   0  0  0  0  0  0  0  0  0  0  0  0
   18.3693   19.2801   22.4826 C   0  0  0  0  0  0  0  0  0  0  0  0
   18.1311   19.4722   21.4300 H   0  0  0  0  0  0  0  0  0  0  0  0
   17.6116   19.7989   23.0843 H   0  0  0  0  0  0  0  0  0  0  0  0
   18.2703   18.2044   22.6781 H   0  0  0  0  0  0  0  0  0  0  0  0
  1  2  1  0  0  0  0
  1  3  1  0  0  0  0
  1  4  1  0  0  0  0
  1  5  1  0  0  0  0
  5  6  1  0  0  0  0
  5  7  1  0  0  0  0
  5  8  1  0  0  0  0
  8  9  1  0  0  0  0
  8 10  1  0  0  0  0
  8 11  1  0  0  0  0
 11 12  1  0  0  0  0
 11 13  1  0  0  0  0
 11 14  1  0  0  0  0
 14 15  1  0  0  0  0
 14 16  1  0  0  0  0
 14 17  1  0  0  0  0
M  END
> <VConfSearch Rank>
903

> <Conf_Id>
19

> <Delta U+W>
2.662

> <U+W>
-13.203

> <U>
47.423

> <W>
-60.626

> <W(PB)>
-62.328

> <W(SA)>
1.702

> <Valence>
2.414

> <Coulomb>
44.831

> <VdW>
0.178

> <VdW6>
-3.743

> <VdW12>
3.921

> <Bond>
0.138

> <Angle>
0.941

> <Pdih>
1.335

> <Idih>
0.000

> <Tether>
0.000

$$$$
VeraChem MOL file


 17 16  0  0  0  0  0  0  0  0999 V2000     
   20.0803   17.9017   20.1617 N   0  3  0  0  0  0  0  0  0  0  0  0
   20.2821   17.8089   19.1609 H   0  0  0  0  0  0  0  0  0  0  0  0
   19.7295   16.9932   20.4795 H   0  0  0  0  0  0  0  0  0  0  0  0
   20.9725   18.0625   20.6359 H   0  0  0  0  0  0  0  0  0  0  0  0
   19.0889   19.0160   20.4363 C   0  0  0  0  0  0  0  0  0  0  0  0
   18.1702   18.7665   19.8984 H   0  0  0  0  0  0  0  0  0  0  0  0
   19.4842   19.9450   20.0166 H   0  0  0  0  0  0  0  0  0  0  0  0
   18.7580   19.2170   21.9302 C   0  0  0  0  0  0  0  0  0  0  0  0
   17.7963   19.7435   21.9923 H   0  0  0  0  0  0  0  0  0  0  0  0
   18.6004   18.2440   22.4141 H   0  0  0  0  0  0  0  0  0  0  0  0
   19.8066   20.0459   22.7149 C   0  0  0  0  0  0  0  0  0  0  0  0
   19.4233   20.2161   23.7308 H   0  0  0  0  0  0  0  0  0  0  0  0
   19.9086   21.0404   22.2581 H   0  0  0  0  0  0  0  0  0  0  0  0
   21.1984   19.3818   22.8189 C   0  0  0  0  0  0  0  0  0  0  0  0
   21.1212   18.3494   23.1839 H   0  0  0  0  0  0  0  0  0  0  0  0
   21.8333   19.9368   23.5218 H   0  0  0  0  0  0  0  0  0  0  0  0
   21.7156   19.3780   21.8523 H   0  0  0  0  0  0  0  0  0  0  0  0
  1  2  1  0  0  0  0
  1  3  1  0  0  0  0
  1  4  1  0  0  0  0
  1  5  1  0  0  0  0
  5  6  1  0  0  0  0
  5  7  1  0  0  0  0
  5  8  1  0  0  0  0
  8  9  1  0  0  0  0
  8 10  1  0  0  0  0
  8 11  1  0  0  0  0
 11 12  1  0  0  0  0
 11 13  1  0  0  0  0
 11 14  1  0  0  0  0
 14 15  1  0  0  0  0
 14 16  1  0  0  0  0
 14 17  1  0  0  0  0
M  END
> <VConfSearch Rank>
904

> <Conf_Id>
44

> <Delta U+W>
2.712

> <U+W>
-13.153

> <U>
47.423

> <W>
-60.576

> <W(PB)>
-62.262

> <W(SA)>
1.687

> <Valence>
2.414

> <Coulomb>
44.831

> <VdW>
0.178

> <VdW6>
-3.743

> <VdW12>
3.922

> <Bond>
0.138

> <Angle>
0.941

> <Pdih>
1.335

> <Idih>
0.000

> <Tether>
0.000

$$$$
VeraChem MOL file


 17 16  0  0  0  0  0  0  0  0999 V2000     
   21.4805   20.1174   22.1851 N   0  3  0  0  0  0  0  0  0  0  0  0
   20.6501   20.5289   22.6204 H   0  0  0  0  0  0  0  0  0  0  0  0
   21.7888   20.7622   21.4513 H   0  0  0  0  0  0  0  0  0  0  0  0
   22.2167   20.1041   22.8982 H   0  0  0  0  0  0  0  0  0  0  0  0
   21.1996   18.7309   21.6386 C   0  0  0  0  0  0  0  0  0  0  0  0
   20.9057   18.0899   22.4738 H   0  0  0  0  0  0  0  0  0  0  0  0
   22.1335   18.3404   21.2253 H   0  0  0  0  0  0  0  0  0  0  0  0
   20.1071   18.7003   20.5498 C   0  0  0  0  0  0  0  0  0  0  0  0
   20.4295   19.3142   19.6984 H   0  0  0  0  0  0  0  0  0  0  0  0
   20.0182   17.6738   20.1702 H   0  0  0  0  0  0  0  0  0  0  0  0
   18.7187   19.1852   21.0366 C   0  0  0  0  0  0  0  0  0  0  0  0
   18.0137   19.1421   20.1945 H   0  0  0  0  0  0  0  0  0  0  0  0
   18.7707   20.2412   21.3345 H   0  0  0  0  0  0  0  0  0  0  0  0
   18.1581   18.3418   22.2045 C   0  0  0  0  0  0  0  0  0  0  0  0
   18.0954   17.2806   21.9304 H   0  0  0  0  0  0  0  0  0  0  0  0
   17.1482   18.6784   22.4724 H   0  0  0  0  0  0  0  0  0  0  0  0
   18.7842   18.4274   23.1016 H   0  0  0  0  0  0  0  0  0  0  0  0
  1  2  1  0  0  0  0
  1  3  1  0  0  0  0
  1  4  1  0  0  0  0
  1  5  1  0  0  0  0
  5  6  1  0  0  0  0
  5  7  1  0  0  0  0
  5  8  1  0  0  0  0
  8  9  1  0  0  0  0
  8 10  1  0  0  0  0
  8 11  1  0  0  0  0
 11 12  1  0  0  0  0
 11 13  1  0  0  0  0
 11 14  1  0  0  0  0
 14 15  1  0  0  0  0
 14 16  1  0  0  0  0
 14 17  1  0  0  0  0
M  END
> <VConfSearch Rank>
905

> <Conf_Id>
1

> <Delta U+W>
0.685

> <U+W>
-15.179

> <U>
45.697

> <W>
-60.876

> <W(PB)>
-62.586

> <W(SA)>
1.710

> <Valence>
1.263

> <Coulomb>
44.179

> <VdW>
0.255

> <VdW6>
-3.552

> <VdW12>
3.807

> <Bond>
0.125

> <Angle>
0.616

> <Pdih>
0.521

> <Idih>
0.000

> <Tether>
0.000

$$$$
VeraChem MOL file


 17 16  0  0  0  0  0  0  0  0999 V2000     
   18.0370   19.6390   21.6845 N   0  3  0  0  0  0  0  0  0  0  0  0
   17.9744   20.6516   21.8258 H   0  0  0  0  0  0  0  0  0  0  0  0
   18.2593   19.2199   22.5919 H   0  0  0  0  0  0  0  0  0  0  0  0
   17.0987   19.3159   21.4275 H   0  0  0  0  0  0  0  0  0  0  0  0
   19.0663   19.2771   20.6312 C   0  0  0  0  0  0  0  0  0  0  0  0
   18.7468   19.7243   19.6859 H   0  0  0  0  0  0  0  0  0  0  0  0
   19.0604   18.1908   20.5099 H   0  0  0  0  0  0  0  0  0  0  0  0
   20.4943   19.7555   20.9657 C   0  0  0  0  0  0  0  0  0  0  0  0
   21.1539   19.5079   20.1234 H   0  0  0  0  0  0  0  0  0  0  0  0
   20.4981   20.8507   21.0452 H   0  0  0  0  0  0  0  0  0  0  0  0
   21.0755   19.1438   22.2647 C   0  0  0  0  0  0  0  0  0  0  0  0
   20.4777   19.4587   23.1308 H   0  0  0  0  0  0  0  0  0  0  0  0
   22.0831   19.5513   22.4276 H   0  0  0  0  0  0  0  0  0  0  0  0
   21.1587   17.6007   22.2229 C   0  0  0  0  0  0  0  0  0  0  0  0
   21.6353   17.2159   23.1338 H   0  0  0  0  0  0  0  0  0  0  0  0
   21.7532   17.2607   21.3649 H   0  0  0  0  0  0  0  0  0  0  0  0
   20.1634   17.1443   22.1523 H   0  0  0  0  0  0  0  0  0  0  0  0
  1  2  1  0  0  0  0
  1  3  1  0  0  0  0
  1  4  1  0  0  0  0
  1  5  1  0  0  0  0
  5  6  1  0  0  0  0
  5  7  1  0  0  0  0
  5  8  1  0  0  0  0
  8  9  1  0  0  0  0
  8 10  1  0  0  0  0
  8 11  1  0  0  0  0
 11 12  1  0  0  0  0
 11 13  1  0  0  0  0
 11 14  1  0  0  0  0
 14 15  1  0  0  0  0
 14 16  1  0  0  0  0
 14 17  1  0  0  0  0
M  END
> <VConfSearch Rank>
906

> <Conf_Id>
43

> <Delta U+W>
0.642

> <U+W>
-15.222

> <U>
45.697

> <W>
-60.919

> <W(PB)>
-62.631

> <W(SA)>
1.712

> <Valence>
1.262

> <Coulomb>
44.179

> <VdW>
0.255

> <VdW6>
-3.552

> <VdW12>
3.807

> <Bond>
0.125

> <Angle>
0.616

> <Pdih>
0.521

> <Idih>
0.000

> <Tether>
0.000

$$$$
VeraChem MOL file


 17 16  0  0  0  0  0  0  0  0999 V2000     
   19.1892   17.4639   23.4595 N   0  3  0  0  0  0  0  0  0  0  0  0
   19.5061   16.5923   23.0241 H   0  0  0  0  0  0  0  0  0  0  0  0
   18.1816   17.5364   23.2889 H   0  0  0  0  0  0  0  0  0  0  0  0
   19.3110   17.3510   24.4711 H   0  0  0  0  0  0  0  0  0  0  0  0
   19.9426   18.6688   22.9322 C   0  0  0  0  0  0  0  0  0  0  0  0
   21.0006   18.5384   23.1754 H   0  0  0  0  0  0  0  0  0  0  0  0
   19.5764   19.5535   23.4602 H   0  0  0  0  0  0  0  0  0  0  0  0
   19.7814   18.8685   21.4142 C   0  0  0  0  0  0  0  0  0  0  0  0
   20.1358   17.9720   20.8882 H   0  0  0  0  0  0  0  0  0  0  0  0
   18.7165   18.9838   21.1720 H   0  0  0  0  0  0  0  0  0  0  0  0
   20.5637   20.1047   20.9188 C   0  0  0  0  0  0  0  0  0  0  0  0
   21.6292   19.9914   21.1640 H   0  0  0  0  0  0  0  0  0  0  0  0
   20.2116   21.0019   21.4474 H   0  0  0  0  0  0  0  0  0  0  0  0
   20.4067   20.3113   19.3968 C   0  0  0  0  0  0  0  0  0  0  0  0
   20.9694   21.1936   19.0651 H   0  0  0  0  0  0  0  0  0  0  0  0
   19.3539   20.4622   19.1247 H   0  0  0  0  0  0  0  0  0  0  0  0
   20.7826   19.4436   18.8391 H   0  0  0  0  0  0  0  0  0  0  0  0
  1  2  1  0  0  0  0
  1  3  1  0  0  0  0
  1  4  1  0  0  0  0
  1  5  1  0  0  0  0
  5  6  1  0  0  0  0
  5  7  1  0  0  0  0
  5  8  1  0  0  0  0
  8  9  1  0  0  0  0
  8 10  1  0  0  0  0
  8 11  1  0  0  0  0
 11 12  1  0  0  0  0
 11 13  1  0  0  0  0
 11 14  1  0  0  0  0
 14 15  1  0  0  0  0
 14 16  1  0  0  0  0
 14 17  1  0  0  0  0
M  END
> <VConfSearch Rank>
907

> <Conf_Id>
7

> <Delta U+W>
0.000

> <U+W>
-15.865

> <U>
44.664

> <W>
-60.529

> <W(PB)>
-62.309

> <W(SA)>
1.780

> <Valence>
0.872

> <Coulomb>
43.648

> <VdW>
0.144

> <VdW6>
-2.370

> <VdW12>
2.515

> <Bond>
0.080

> <Angle>
0.376

> <Pdih>
0.416

> <Idih>
0.000

> <Tether>
0.000

$$$$
VeraChem MOL file


 17 16  0  0  0  0  0  0  0  0999 V2000     
   19.7611   17.4718   19.8423 N   0  3  0  0  0  0  0  0  0  0  0  0
   19.8257   16.5332   20.2477 H   0  0  0  0  0  0  0  0  0  0  0  0
   20.6595   17.6665   19.3899 H   0  0  0  0  0  0  0  0  0  0  0  0
   19.0582   17.4250   19.0975 H   0  0  0  0  0  0  0  0  0  0  0  0
   19.4112   18.5170   20.8827 C   0  0  0  0  0  0  0  0  0  0  0  0
   18.4327   18.2641   21.3000 H   0  0  0  0  0  0  0  0  0  0  0  0
   19.3287   19.4816   20.3752 H   0  0  0  0  0  0  0  0  0  0  0  0
   20.4484   18.6140   22.0179 C   0  0  0  0  0  0  0  0  0  0  0  0
   20.5529   17.6304   22.4948 H   0  0  0  0  0  0  0  0  0  0  0  0
   21.4315   18.8663   21.5987 H   0  0  0  0  0  0  0  0  0  0  0  0
   20.0603   19.6558   23.0931 C   0  0  0  0  0  0  0  0  0  0  0  0
   20.7956   19.6176   23.9091 H   0  0  0  0  0  0  0  0  0  0  0  0
   19.0917   19.3862   23.5374 H   0  0  0  0  0  0  0  0  0  0  0  0
   19.9946   21.0983   22.5408 C   0  0  0  0  0  0  0  0  0  0  0  0
   20.9496   21.3908   22.0852 H   0  0  0  0  0  0  0  0  0  0  0  0
   19.7770   21.8099   23.3479 H   0  0  0  0  0  0  0  0  0  0  0  0
   19.2068   21.2052   21.7845 H   0  0  0  0  0  0  0  0  0  0  0  0
  1  2  1  0  0  0  0
  1  3  1  0  0  0  0
  1  4  1  0  0  0  0
  1  5  1  0  0  0  0
  5  6  1  0  0  0  0
  5  7  1  0  0  0  0
  5  8  1  0  0  0  0
  8  9  1  0  0  0  0
  8 10  1  0  0  0  0
  8 11  1  0  0  0  0
 11 12  1  0  0  0  0
 11 13  1  0  0  0  0
 11 14  1  0  0  0  0
 14 15  1  0  0  0  0
 14 16  1  0  0  0  0
 14 17  1  0  0  0  0
M  END
> <VConfSearch Rank>
908

> <Conf_Id>
36

> <Delta U+W>
0.275

> <U+W>
-15.590

> <U>
45.174

> <W>
-60.765

> <W(PB)>
-62.518

> <W(SA)>
1.754

> <Valence>
1.161

> <Coulomb>
43.789

> <VdW>
0.224

> <VdW6>
-2.897

> <VdW12>
3.121

> <Bond>
0.100

> <Angle>
0.500

> <Pdih>
0.561

> <Idih>
0.000

> <Tether>
0.000

$$$$
VeraChem MOL file


 17 16  0  0  0  0  0  0  0  0999 V2000     
   19.4422   19.9538   20.0933 N   0  3  0  0  0  0  0  0  0  0  0  0
   20.4580   19.8435   20.1461 H   0  0  0  0  0  0  0  0  0  0  0  0
   19.2244   20.8993   20.4220 H   0  0  0  0  0  0  0  0  0  0  0  0
   19.1852   19.9174   19.1016 H   0  0  0  0  0  0  0  0  0  0  0  0
   18.7187   18.8950   20.9029 C   0  0  0  0  0  0  0  0  0  0  0  0
   18.9335   17.9159   20.4664 H   0  0  0  0  0  0  0  0  0  0  0  0
   17.6476   19.0858   20.7941 H   0  0  0  0  0  0  0  0  0  0  0  0
   19.0783   18.8881   22.4036 C   0  0  0  0  0  0  0  0  0  0  0  0
   19.1034   19.9162   22.7886 H   0  0  0  0  0  0  0  0  0  0  0  0
   18.2634   18.3851   22.9409 H   0  0  0  0  0  0  0  0  0  0  0  0
   20.3994   18.1524   22.7446 C   0  0  0  0  0  0  0  0  0  0  0  0
   20.3371   17.1071   22.4105 H   0  0  0  0  0  0  0  0  0  0  0  0
   20.5028   18.1160   23.8382 H   0  0  0  0  0  0  0  0  0  0  0  0
   21.6673   18.8079   22.1519 C   0  0  0  0  0  0  0  0  0  0  0  0
   21.7132   18.6839   21.0636 H   0  0  0  0  0  0  0  0  0  0  0  0
   22.5683   18.3385   22.5678 H   0  0  0  0  0  0  0  0  0  0  0  0
   21.7104   19.8789   22.3889 H   0  0  0  0  0  0  0  0  0  0  0  0
  1  2  1  0  0  0  0
  1  3  1  0  0  0  0
  1  4  1  0  0  0  0
  1  5  1  0  0  0  0
  5  6  1  0  0  0  0
  5  7  1  0  0  0  0
  5  8  1  0  0  0  0
  8  9  1  0  0  0  0
  8 10  1  0  0  0  0
  8 11  1  0  0  0  0
 11 12  1  0  0  0  0
 11 13  1  0  0  0  0
 11 14  1  0  0  0  0
 14 15  1  0  0  0  0
 14 16  1  0  0  0  0
 14 17  1  0  0  0  0
M  END
> <VConfSearch Rank>
909

> <Conf_Id>
19

> <Delta U+W>
2.662

> <U+W>
-13.203

> <U>
47.423

> <W>
-60.626

> <W(PB)>
-62.328

> <W(SA)>
1.702

> <Valence>
2.414

> <Coulomb>
44.831

> <VdW>
0.178

> <VdW6>
-3.743

> <VdW12>
3.921

> <Bond>
0.138

> <Angle>
0.941

> <Pdih>
1.335

> <Idih>
0.000

> <Tether>
0.000

$$$$
VeraChem MOL file


 17 16  0  0  0  0  0  0  0  0999 V2000     
   19.7150   19.9863   19.9965 N   0  3  0  0  0  0  0  0  0  0  0  0
   19.6102   20.9002   19.5442 H   0  0  0  0  0  0  0  0  0  0  0  0
   19.5406   19.2775   19.2777 H   0  0  0  0  0  0  0  0  0  0  0  0
   20.6956   19.8977   20.2747 H   0  0  0  0  0  0  0  0  0  0  0  0
   18.7787   19.8315   21.1794 C   0  0  0  0  0  0  0  0  0  0  0  0
   17.7598   19.9369   20.7968 H   0  0  0  0  0  0  0  0  0  0  0  0
   18.9632   20.6511   21.8790 H   0  0  0  0  0  0  0  0  0  0  0  0
   18.9026   18.4799   21.9140 C   0  0  0  0  0  0  0  0  0  0  0  0
   17.9709   18.3150   22.4713 H   0  0  0  0  0  0  0  0  0  0  0  0
   18.9666   17.6609   21.1854 H   0  0  0  0  0  0  0  0  0  0  0  0
   20.0797   18.4004   22.9194 C   0  0  0  0  0  0  0  0  0  0  0  0
   20.0111   17.4444   23.4574 H   0  0  0  0  0  0  0  0  0  0  0  0
   19.9695   19.1858   23.6803 H   0  0  0  0  0  0  0  0  0  0  0  0
   21.4800   18.5020   22.2732 C   0  0  0  0  0  0  0  0  0  0  0  0
   21.5885   17.7919   21.4430 H   0  0  0  0  0  0  0  0  0  0  0  0
   22.2579   18.2712   23.0125 H   0  0  0  0  0  0  0  0  0  0  0  0
   21.6793   19.5140   21.9019 H   0  0  0  0  0  0  0  0  0  0  0  0
  1  2  1  0  0  0  0
  1  3  1  0  0  0  0
  1  4  1  0  0  0  0
  1  5  1  0  0  0  0
  5  6  1  0  0  0  0
  5  7  1  0  0  0  0
  5  8  1  0  0  0  0
  8  9  1  0  0  0  0
  8 10  1  0  0  0  0
  8 11  1  0  0  0  0
 11 12  1  0  0  0  0
 11 13  1  0  0  0  0
 11 14  1  0  0  0  0
 14 15  1  0  0  0  0
 14 16  1  0  0  0  0
 14 17  1  0  0  0  0
M  END
> <VConfSearch Rank>
910

> <Conf_Id>
44

> <Delta U+W>
2.712

> <U+W>
-13.153

> <U>
47.423

> <W>
-60.576

> <W(PB)>
-62.262

> <W(SA)>
1.687

> <Valence>
2.414

> <Coulomb>
44.831

> <VdW>
0.178

> <VdW6>
-3.743

> <VdW12>
3.922

> <Bond>
0.138

> <Angle>
0.941

> <Pdih>
1.335

> <Idih>
0.000

> <Tether>
0.000

$$$$
VeraChem MOL file


 17 16  0  0  0  0  0  0  0  0999 V2000     
   19.3885   19.7446   19.8197 N   0  3  0  0  0  0  0  0  0  0  0  0
   19.8053   18.8222   19.6656 H   0  0  0  0  0  0  0  0  0  0  0  0
   20.0575   20.4404   19.4765 H   0  0  0  0  0  0  0  0  0  0  0  0
   18.5617   19.8040   19.2167 H   0  0  0  0  0  0  0  0  0  0  0  0
   19.0396   19.9668   21.2787 C   0  0  0  0  0  0  0  0  0  0  0  0
   18.3038   19.2129   21.5704 H   0  0  0  0  0  0  0  0  0  0  0  0
   18.5677   20.9496   21.3623 H   0  0  0  0  0  0  0  0  0  0  0  0
   20.2550   19.9015   22.2266 C   0  0  0  0  0  0  0  0  0  0  0  0
   20.9695   20.6885   21.9512 H   0  0  0  0  0  0  0  0  0  0  0  0
   19.9190   20.1366   23.2453 H   0  0  0  0  0  0  0  0  0  0  0  0
   20.9768   18.5309   22.2321 C   0  0  0  0  0  0  0  0  0  0  0  0
   21.8318   18.5841   22.9206 H   0  0  0  0  0  0  0  0  0  0  0  0
   21.3993   18.3227   21.2398 H   0  0  0  0  0  0  0  0  0  0  0  0
   20.0579   17.3644   22.6619 C   0  0  0  0  0  0  0  0  0  0  0  0
   19.6234   17.5489   23.6530 H   0  0  0  0  0  0  0  0  0  0  0  0
   20.6256   16.4264   22.7147 H   0  0  0  0  0  0  0  0  0  0  0  0
   19.2362   17.2142   21.9504 H   0  0  0  0  0  0  0  0  0  0  0  0
  1  2  1  0  0  0  0
  1  3  1  0  0  0  0
  1  4  1  0  0  0  0
  1  5  1  0  0  0  0
  5  6  1  0  0  0  0
  5  7  1  0  0  0  0
  5  8  1  0  0  0  0
  8  9  1  0  0  0  0
  8 10  1  0  0  0  0
  8 11  1  0  0  0  0
 11 12  1  0  0  0  0
 11 13  1  0  0  0  0
 11 14  1  0  0  0  0
 14 15  1  0  0  0  0
 14 16  1  0  0  0  0
 14 17  1  0  0  0  0
M  END
> <VConfSearch Rank>
911

> <Conf_Id>
1

> <Delta U+W>
0.685

> <U+W>
-15.179

> <U>
45.697

> <W>
-60.876

> <W(PB)>
-62.586

> <W(SA)>
1.710

> <Valence>
1.263

> <Coulomb>
44.179

> <VdW>
0.255

> <VdW6>
-3.552

> <VdW12>
3.807

> <Bond>
0.125

> <Angle>
0.616

> <Pdih>
0.521

> <Idih>
0.000

> <Tether>
0.000

$$$$
VeraChem MOL file


 17 16  0  0  0  0  0  0  0  0999 V2000     
   19.7377   17.0525   21.6023 N   0  3  0  0  0  0  0  0  0  0  0  0
   20.6499   16.5881   21.6428 H   0  0  0  0  0  0  0  0  0  0  0  0
   19.6004   17.3664   20.6374 H   0  0  0  0  0  0  0  0  0  0  0  0
   19.0298   16.3346   21.7869 H   0  0  0  0  0  0  0  0  0  0  0  0
   19.6442   18.2029   22.5861 C   0  0  0  0  0  0  0  0  0  0  0  0
   19.7618   17.7911   23.5921 H   0  0  0  0  0  0  0  0  0  0  0  0
   18.6417   18.6323   22.5120 H   0  0  0  0  0  0  0  0  0  0  0  0
   20.7001   19.3043   22.3584 C   0  0  0  0  0  0  0  0  0  0  0  0
   20.5980   20.0579   23.1506 H   0  0  0  0  0  0  0  0  0  0  0  0
   21.7027   18.8721   22.4751 H   0  0  0  0  0  0  0  0  0  0  0  0
   20.5976   19.9996   20.9779 C   0  0  0  0  0  0  0  0  0  0  0  0
   20.7891   19.2749   20.1750 H   0  0  0  0  0  0  0  0  0  0  0  0
   21.3935   20.7537   20.9017 H   0  0  0  0  0  0  0  0  0  0  0  0
   19.2319   20.6856   20.7454 C   0  0  0  0  0  0  0  0  0  0  0  0
   19.2274   21.2191   19.7860 H   0  0  0  0  0  0  0  0  0  0  0  0
   19.0179   21.4167   21.5358 H   0  0  0  0  0  0  0  0  0  0  0  0
   18.4123   19.9565   20.7222 H   0  0  0  0  0  0  0  0  0  0  0  0
  1  2  1  0  0  0  0
  1  3  1  0  0  0  0
  1  4  1  0  0  0  0
  1  5  1  0  0  0  0
  5  6  1  0  0  0  0
  5  7  1  0  0  0  0
  5  8  1  0  0  0  0
  8  9  1  0  0  0  0
  8 10  1  0  0  0  0
  8 11  1  0  0  0  0
 11 12  1  0  0  0  0
 11 13  1  0  0  0  0
 11 14  1  0  0  0  0
 14 15  1  0  0  0  0
 14 16  1  0  0  0  0
 14 17  1  0  0  0  0
M  END
> <VConfSearch Rank>
912

> <Conf_Id>
43

> <Delta U+W>
0.642

> <U+W>
-15.222

> <U>
45.697

> <W>
-60.919

> <W(PB)>
-62.631

> <W(SA)>
1.712

> <Valence>
1.262

> <Coulomb>
44.179

> <VdW>
0.255

> <VdW6>
-3.552

> <VdW12>
3.807

> <Bond>
0.125

> <Angle>
0.616

> <Pdih>
0.521

> <Idih>
0.000

> <Tether>
0.000

$$$$
VeraChem MOL file


 17 16  0  0  0  0  0  0  0  0999 V2000     
   17.8441   20.4982   21.3559 N   0  3  0  0  0  0  0  0  0  0  0  0
   17.2453   19.7823   20.9331 H   0  0  0  0  0  0  0  0  0  0  0  0
   18.1793   21.0973   20.5953 H   0  0  0  0  0  0  0  0  0  0  0  0
   17.2398   21.0790   21.9461 H   0  0  0  0  0  0  0  0  0  0  0  0
   18.9861   19.8896   22.1450 C   0  0  0  0  0  0  0  0  0  0  0  0
   18.5569   19.2919   22.9537 H   0  0  0  0  0  0  0  0  0  0  0  0
   19.5612   20.7059   22.5905 H   0  0  0  0  0  0  0  0  0  0  0  0
   19.9147   19.0100   21.2882 C   0  0  0  0  0  0  0  0  0  0  0  0
   19.3309   18.2005   20.8300 H   0  0  0  0  0  0  0  0  0  0  0  0
   20.3319   19.6097   20.4682 H   0  0  0  0  0  0  0  0  0  0  0  0
   21.0629   18.4104   22.1295 C   0  0  0  0  0  0  0  0  0  0  0  0
   20.6459   17.8127   22.9524 H   0  0  0  0  0  0  0  0  0  0  0  0
   21.6457   19.2201   22.5909 H   0  0  0  0  0  0  0  0  0  0  0  0
   21.9985   17.5266   21.2766 C   0  0  0  0  0  0  0  0  0  0  0  0
   22.8067   17.1105   21.8921 H   0  0  0  0  0  0  0  0  0  0  0  0
   22.4581   18.1057   20.4650 H   0  0  0  0  0  0  0  0  0  0  0  0
   21.4504   16.6872   20.8292 H   0  0  0  0  0  0  0  0  0  0  0  0
  1  2  1  0  0  0  0
  1  3  1  0  0  0  0
  1  4  1  0  0  0  0
  1  5  1  0  0  0  0
  5  6  1  0  0  0  0
  5  7  1  0  0  0  0
  5  8  1  0  0  0  0
  8  9  1  0  0  0  0
  8 10  1  0  0  0  0
  8 11  1  0  0  0  0
 11 12  1  0  0  0  0
 11 13  1  0  0  0  0
 11 14  1  0  0  0  0
 14 15  1  0  0  0  0
 14 16  1  0  0  0  0
 14 17  1  0  0  0  0
M  END
> <VConfSearch Rank>
913

> <Conf_Id>
7

> <Delta U+W>
0.000

> <U+W>
-15.865

> <U>
44.664

> <W>
-60.529

> <W(PB)>
-62.309

> <W(SA)>
1.780

> <Valence>
0.872

> <Coulomb>
43.648

> <VdW>
0.144

> <VdW6>
-2.370

> <VdW12>
2.515

> <Bond>
0.080

> <Angle>
0.376

> <Pdih>
0.416

> <Idih>
0.000

> <Tether>
0.000

$$$$
VeraChem MOL file


 17 16  0  0  0  0  0  0  0  0999 V2000     
   20.6067   20.2205   19.5946 N   0  3  0  0  0  0  0  0  0  0  0  0
   21.1477   21.0532   19.8465 H   0  0  0  0  0  0  0  0  0  0  0  0
   19.6808   20.5423   19.2966 H   0  0  0  0  0  0  0  0  0  0  0  0
   21.0582   19.8122   18.7698 H   0  0  0  0  0  0  0  0  0  0  0  0
   20.5223   19.2304   20.7391 C   0  0  0  0  0  0  0  0  0  0  0  0
   21.5383   18.9087   20.9832 H   0  0  0  0  0  0  0  0  0  0  0  0
   19.9615   18.3597   20.3893 H   0  0  0  0  0  0  0  0  0  0  0  0
   19.8477   19.8123   21.9962 C   0  0  0  0  0  0  0  0  0  0  0  0
   20.3950   20.7091   22.3157 H   0  0  0  0  0  0  0  0  0  0  0  0
   18.8279   20.1370   21.7506 H   0  0  0  0  0  0  0  0  0  0  0  0
   19.8031   18.8054   23.1693 C   0  0  0  0  0  0  0  0  0  0  0  0
   19.3856   19.3065   24.0541 H   0  0  0  0  0  0  0  0  0  0  0  0
   20.8255   18.5048   23.4384 H   0  0  0  0  0  0  0  0  0  0  0  0
   18.9581   17.5494   22.8557 C   0  0  0  0  0  0  0  0  0  0  0  0
   17.9319   17.8229   22.5776 H   0  0  0  0  0  0  0  0  0  0  0  0
   18.9032   16.8933   23.7341 H   0  0  0  0  0  0  0  0  0  0  0  0
   19.3921   16.9660   22.0339 H   0  0  0  0  0  0  0  0  0  0  0  0
  1  2  1  0  0  0  0
  1  3  1  0  0  0  0
  1  4  1  0  0  0  0
  1  5  1  0  0  0  0
  5  6  1  0  0  0  0
  5  7  1  0  0  0  0
  5  8  1  0  0  0  0
  8  9  1  0  0  0  0
  8 10  1  0  0  0  0
  8 11  1  0  0  0  0
 11 12  1  0  0  0  0
 11 13  1  0  0  0  0
 11 14  1  0  0  0  0
 14 15  1  0  0  0  0
 14 16  1  0  0  0  0
 14 17  1  0  0  0  0
M  END
> <VConfSearch Rank>
914

> <Conf_Id>
36

> <Delta U+W>
0.275

> <U+W>
-15.590

> <U>
45.174

> <W>
-60.765

> <W(PB)>
-62.518

> <W(SA)>
1.754

> <Valence>
1.161

> <Coulomb>
43.789

> <VdW>
0.224

> <VdW6>
-2.897

> <VdW12>
3.121

> <Bond>
0.100

> <Angle>
0.500

> <Pdih>
0.561

> <Idih>
0.000

> <Tether>
0.000

$$$$
VeraChem MOL file


 17 16  0  0  0  0  0  0  0  0999 V2000     
   19.9008   18.6808   23.4344 N   0  3  0  0  0  0  0  0  0  0  0  0
   19.5004   17.8936   22.9179 H   0  0  0  0  0  0  0  0  0  0  0  0
   19.1177   19.2325   23.7976 H   0  0  0  0  0  0  0  0  0  0  0  0
   20.3919   18.2918   24.2458 H   0  0  0  0  0  0  0  0  0  0  0  0
   20.8215   19.5144   22.5641 C   0  0  0  0  0  0  0  0  0  0  0  0
   21.6706   18.8952   22.2627 H   0  0  0  0  0  0  0  0  0  0  0  0
   21.2014   20.3280   23.1880 H   0  0  0  0  0  0  0  0  0  0  0  0
   20.1426   20.1138   21.3145 C   0  0  0  0  0  0  0  0  0  0  0  0
   19.1599   20.5244   21.5816 H   0  0  0  0  0  0  0  0  0  0  0  0
   20.7464   20.9691   20.9832 H   0  0  0  0  0  0  0  0  0  0  0  0
   20.0110   19.1328   20.1216 C   0  0  0  0  0  0  0  0  0  0  0  0
   21.0075   18.7779   19.8233 H   0  0  0  0  0  0  0  0  0  0  0  0
   19.6156   19.6878   19.2593 H   0  0  0  0  0  0  0  0  0  0  0  0
   19.0913   17.9200   20.3901 C   0  0  0  0  0  0  0  0  0  0  0  0
   19.5463   17.2194   21.0999 H   0  0  0  0  0  0  0  0  0  0  0  0
   18.9120   17.3652   19.4599 H   0  0  0  0  0  0  0  0  0  0  0  0
   18.1162   18.2380   20.7813 H   0  0  0  0  0  0  0  0  0  0  0  0
  1  2  1  0  0  0  0
  1  3  1  0  0  0  0
  1  4  1  0  0  0  0
  1  5  1  0  0  0  0
  5  6  1  0  0  0  0
  5  7  1  0  0  0  0
  5  8  1  0  0  0  0
  8  9  1  0  0  0  0
  8 10  1  0  0  0  0
  8 11  1  0  0  0  0
 11 12  1  0  0  0  0
 11 13  1  0  0  0  0
 11 14  1  0  0  0  0
 14 15  1  0  0  0  0
 14 16  1  0  0  0  0
 14 17  1  0  0  0  0
M  END
> <VConfSearch Rank>
915

> <Conf_Id>
19

> <Delta U+W>
2.662

> <U+W>
-13.203

> <U>
47.423

> <W>
-60.626

> <W(PB)>
-62.328

> <W(SA)>
1.702

> <Valence>
2.414

> <Coulomb>
44.831

> <VdW>
0.178

> <VdW6>
-3.743

> <VdW12>
3.921

> <Bond>
0.138

> <Angle>
0.941

> <Pdih>
1.335

> <Idih>
0.000

> <Tether>
0.000

$$$$
VeraChem MOL file


 17 16  0  0  0  0  0  0  0  0999 V2000     
   19.2152   20.3848   22.7235 N   0  3  0  0  0  0  0  0  0  0  0  0
   19.3566   20.9275   23.5816 H   0  0  0  0  0  0  0  0  0  0  0  0
   18.2536   20.5596   22.4165 H   0  0  0  0  0  0  0  0  0  0  0  0
   19.8349   20.7791   22.0113 H   0  0  0  0  0  0  0  0  0  0  0  0
   19.4773   18.9070   22.9411 C   0  0  0  0  0  0  0  0  0  0  0  0
   18.7772   18.5677   23.7094 H   0  0  0  0  0  0  0  0  0  0  0  0
   20.4914   18.7871   23.3317 H   0  0  0  0  0  0  0  0  0  0  0  0
   19.2978   18.0381   21.6784 C   0  0  0  0  0  0  0  0  0  0  0  0
   19.1314   17.0030   22.0050 H   0  0  0  0  0  0  0  0  0  0  0  0
   18.3857   18.3357   21.1442 H   0  0  0  0  0  0  0  0  0  0  0  0
   20.5127   18.0446   20.7157 C   0  0  0  0  0  0  0  0  0  0  0  0
   20.3221   17.3183   19.9131 H   0  0  0  0  0  0  0  0  0  0  0  0
   21.4059   17.6844   21.2454 H   0  0  0  0  0  0  0  0  0  0  0  0
   20.8131   19.4187   20.0750 C   0  0  0  0  0  0  0  0  0  0  0  0
   19.9133   19.8506   19.6179 H   0  0  0  0  0  0  0  0  0  0  0  0
   21.5694   19.3135   19.2863 H   0  0  0  0  0  0  0  0  0  0  0  0
   21.2117   20.1271   20.8105 H   0  0  0  0  0  0  0  0  0  0  0  0
  1  2  1  0  0  0  0
  1  3  1  0  0  0  0
  1  4  1  0  0  0  0
  1  5  1  0  0  0  0
  5  6  1  0  0  0  0
  5  7  1  0  0  0  0
  5  8  1  0  0  0  0
  8  9  1  0  0  0  0
  8 10  1  0  0  0  0
  8 11  1  0  0  0  0
 11 12  1  0  0  0  0
 11 13  1  0  0  0  0
 11 14  1  0  0  0  0
 14 15  1  0  0  0  0
 14 16  1  0  0  0  0
 14 17  1  0  0  0  0
M  END
> <VConfSearch Rank>
916

> <Conf_Id>
44

> <Delta U+W>
2.712

> <U+W>
-13.153

> <U>
47.423

> <W>
-60.576

> <W(PB)>
-62.262

> <W(SA)>
1.687

> <Valence>
2.414

> <Coulomb>
44.831

> <VdW>
0.178

> <VdW6>
-3.743

> <VdW12>
3.922

> <Bond>
0.138

> <Angle>
0.941

> <Pdih>
1.335

> <Idih>
0.000

> <Tether>
0.000

$$$$
VeraChem MOL file


 17 16  0  0  0  0  0  0  0  0999 V2000     
   20.9252   19.8846   23.0882 N   0  3  0  0  0  0  0  0  0  0  0  0
   20.0358   20.3848   23.0038 H   0  0  0  0  0  0  0  0  0  0  0  0
   21.6583   20.5094   22.7396 H   0  0  0  0  0  0  0  0  0  0  0  0
   21.0995   19.7509   24.0895 H   0  0  0  0  0  0  0  0  0  0  0  0
   20.9017   18.5663   22.3390 C   0  0  0  0  0  0  0  0  0  0  0  0
   20.1212   17.9399   22.7785 H   0  0  0  0  0  0  0  0  0  0  0  0
   21.8635   18.0728   22.5033 H   0  0  0  0  0  0  0  0  0  0  0  0
   20.6568   18.7158   20.8232 C   0  0  0  0  0  0  0  0  0  0  0  0
   21.4676   19.3122   20.3842 H   0  0  0  0  0  0  0  0  0  0  0  0
   20.7208   17.7234   20.3575 H   0  0  0  0  0  0  0  0  0  0  0  0
   19.2938   19.3592   20.4657 C   0  0  0  0  0  0  0  0  0  0  0  0
   19.2154   19.4375   19.3722 H   0  0  0  0  0  0  0  0  0  0  0  0
   19.2505   20.3884   20.8470 H   0  0  0  0  0  0  0  0  0  0  0  0
   18.0861   18.5551   20.9994 C   0  0  0  0  0  0  0  0  0  0  0  0
   18.1064   17.5213   20.6306 H   0  0  0  0  0  0  0  0  0  0  0  0
   17.1438   19.0101   20.6679 H   0  0  0  0  0  0  0  0  0  0  0  0
   18.0722   18.5272   22.0962 H   0  0  0  0  0  0  0  0  0  0  0  0
  1  2  1  0  0  0  0
  1  3  1  0  0  0  0
  1  4  1  0  0  0  0
  1  5  1  0  0  0  0
  5  6  1  0  0  0  0
  5  7  1  0  0  0  0
  5  8  1  0  0  0  0
  8  9  1  0  0  0  0
  8 10  1  0  0  0  0
  8 11  1  0  0  0  0
 11 12  1  0  0  0  0
 11 13  1  0  0  0  0
 11 14  1  0  0  0  0
 14 15  1  0  0  0  0
 14 16  1  0  0  0  0
 14 17  1  0  0  0  0
M  END
> <VConfSearch Rank>
917

> <Conf_Id>
1

> <Delta U+W>
0.685

> <U+W>
-15.179

> <U>
45.697

> <W>
-60.876

> <W(PB)>
-62.586

> <W(SA)>
1.710

> <Valence>
1.263

> <Coulomb>
44.179

> <VdW>
0.255

> <VdW6>
-3.552

> <VdW12>
3.807

> <Bond>
0.125

> <Angle>
0.616

> <Pdih>
0.521

> <Idih>
0.000

> <Tether>
0.000

$$$$
VeraChem MOL file


 17 16  0  0  0  0  0  0  0  0999 V2000     
   21.4418   17.7479   21.5428 N   0  3  0  0  0  0  0  0  0  0  0  0
   21.3698   17.1154   20.7403 H   0  0  0  0  0  0  0  0  0  0  0  0
   20.7880   17.4097   22.2545 H   0  0  0  0  0  0  0  0  0  0  0  0
   22.3858   17.6358   21.9263 H   0  0  0  0  0  0  0  0  0  0  0  0
   21.1571   19.1866   21.1567 C   0  0  0  0  0  0  0  0  0  0  0  0
   21.9117   19.4909   20.4263 H   0  0  0  0  0  0  0  0  0  0  0  0
   21.2797   19.8078   22.0477 H   0  0  0  0  0  0  0  0  0  0  0  0
   19.7514   19.4046   20.5598 C   0  0  0  0  0  0  0  0  0  0  0  0
   19.6594   20.4548   20.2524 H   0  0  0  0  0  0  0  0  0  0  0  0
   19.6526   18.8081   19.6432 H   0  0  0  0  0  0  0  0  0  0  0  0
   18.5944   19.0543   21.5283 C   0  0  0  0  0  0  0  0  0  0  0  0
   18.6182   17.9838   21.7735 H   0  0  0  0  0  0  0  0  0  0  0  0
   17.6383   19.2262   21.0142 H   0  0  0  0  0  0  0  0  0  0  0  0
   18.6213   19.8873   22.8303 C   0  0  0  0  0  0  0  0  0  0  0  0
   17.7497   19.6533   23.4552 H   0  0  0  0  0  0  0  0  0  0  0  0
   18.5971   20.9627   22.6113 H   0  0  0  0  0  0  0  0  0  0  0  0
   19.5199   19.6790   23.4246 H   0  0  0  0  0  0  0  0  0  0  0  0
  1  2  1  0  0  0  0
  1  3  1  0  0  0  0
  1  4  1  0  0  0  0
  1  5  1  0  0  0  0
  5  6  1  0  0  0  0
  5  7  1  0  0  0  0
  5  8  1  0  0  0  0
  8  9  1  0  0  0  0
  8 10  1  0  0  0  0
  8 11  1  0  0  0  0
 11 12  1  0  0  0  0
 11 13  1  0  0  0  0
 11 14  1  0  0  0  0
 14 15  1  0  0  0  0
 14 16  1  0  0  0  0
 14 17  1  0  0  0  0
M  END
> <VConfSearch Rank>
918

> <Conf_Id>
43

> <Delta U+W>
0.642

> <U+W>
-15.222

> <U>
45.697

> <W>
-60.919

> <W(PB)>
-62.631

> <W(SA)>
1.712

> <Valence>
1.262

> <Coulomb>
44.179

> <VdW>
0.255

> <VdW6>
-3.552

> <VdW12>
3.807

> <Bond>
0.125

> <Angle>
0.616

> <Pdih>
0.521

> <Idih>
0.000

> <Tether>
0.000

$$$$
VeraChem MOL file


 17 16  0  0  0  0  0  0  0  0999 V2000     
   17.9457   20.5334   20.9882 N   0  3  0  0  0  0  0  0  0  0  0  0
   17.5280   19.9050   20.2951 H   0  0  0  0  0  0  0  0  0  0  0  0
   18.4608   21.2521   20.4707 H   0  0  0  0  0  0  0  0  0  0  0  0
   17.1708   21.0081   21.4627 H   0  0  0  0  0  0  0  0  0  0  0  0
   18.8346   19.7905   21.9656 C   0  0  0  0  0  0  0  0  0  0  0  0
   18.2156   19.0655   22.5011 H   0  0  0  0  0  0  0  0  0  0  0  0
   19.2186   20.5141   22.6899 H   0  0  0  0  0  0  0  0  0  0  0  0
   20.0102   19.0651   21.2859 C   0  0  0  0  0  0  0  0  0  0  0  0
   19.6212   18.3505   20.5484 H   0  0  0  0  0  0  0  0  0  0  0  0
   20.6209   19.7940   20.7366 H   0  0  0  0  0  0  0  0  0  0  0  0
   20.8894   18.3220   22.3156 C   0  0  0  0  0  0  0  0  0  0  0  0
   20.2780   17.5945   22.8681 H   0  0  0  0  0  0  0  0  0  0  0  0
   21.2765   19.0363   23.0561 H   0  0  0  0  0  0  0  0  0  0  0  0
   22.0708   17.5918   21.6411 C   0  0  0  0  0  0  0  0  0  0  0  0
   22.6826   17.0706   22.3888 H   0  0  0  0  0  0  0  0  0  0  0  0
   22.7205   18.2987   21.1087 H   0  0  0  0  0  0  0  0  0  0  0  0
   21.7141   16.8455   20.9192 H   0  0  0  0  0  0  0  0  0  0  0  0
  1  2  1  0  0  0  0
  1  3  1  0  0  0  0
  1  4  1  0  0  0  0
  1  5  1  0  0  0  0
  5  6  1  0  0  0  0
  5  7  1  0  0  0  0
  5  8  1  0  0  0  0
  8  9  1  0  0  0  0
  8 10  1  0  0  0  0
  8 11  1  0  0  0  0
 11 12  1  0  0  0  0
 11 13  1  0  0  0  0
 11 14  1  0  0  0  0
 14 15  1  0  0  0  0
 14 16  1  0  0  0  0
 14 17  1  0  0  0  0
M  END
> <VConfSearch Rank>
919

> <Conf_Id>
7

> <Delta U+W>
0.000

> <U+W>
-15.865

> <U>
44.664

> <W>
-60.529

> <W(PB)>
-62.309

> <W(SA)>
1.780

> <Valence>
0.872

> <Coulomb>
43.648

> <VdW>
0.144

> <VdW6>
-2.370

> <VdW12>
2.515

> <Bond>
0.080

> <Angle>
0.376

> <Pdih>
0.416

> <Idih>
0.000

> <Tether>
0.000

$$$$
VeraChem MOL file


 17 16  0  0  0  0  0  0  0  0999 V2000     
   18.7695   17.3900   22.8746 N   0  3  0  0  0  0  0  0  0  0  0  0
   18.7975   16.5150   22.3424 H   0  0  0  0  0  0  0  0  0  0  0  0
   17.8218   17.7680   22.7822 H   0  0  0  0  0  0  0  0  0  0  0  0
   18.8943   17.1408   23.8611 H   0  0  0  0  0  0  0  0  0  0  0  0
   19.8216   18.3745   22.4044 C   0  0  0  0  0  0  0  0  0  0  0  0
   20.8036   17.9194   22.5594 H   0  0  0  0  0  0  0  0  0  0  0  0
   19.7533   19.2653   23.0342 H   0  0  0  0  0  0  0  0  0  0  0  0
   19.6629   18.7712   20.9241 C   0  0  0  0  0  0  0  0  0  0  0  0
   19.6929   17.8656   20.3037 H   0  0  0  0  0  0  0  0  0  0  0  0
   18.6760   19.2268   20.7682 H   0  0  0  0  0  0  0  0  0  0  0  0
   20.7651   19.7452   20.4461 C   0  0  0  0  0  0  0  0  0  0  0  0
   20.6415   19.9232   19.3686 H   0  0  0  0  0  0  0  0  0  0  0  0
   21.7520   19.2776   20.5706 H   0  0  0  0  0  0  0  0  0  0  0  0
   20.7360   21.1014   21.1876 C   0  0  0  0  0  0  0  0  0  0  0  0
   19.7572   21.5875   21.0839 H   0  0  0  0  0  0  0  0  0  0  0  0
   21.4928   21.7816   20.7757 H   0  0  0  0  0  0  0  0  0  0  0  0
   20.9473   20.9808   22.2577 H   0  0  0  0  0  0  0  0  0  0  0  0
  1  2  1  0  0  0  0
  1  3  1  0  0  0  0
  1  4  1  0  0  0  0
  1  5  1  0  0  0  0
  5  6  1  0  0  0  0
  5  7  1  0  0  0  0
  5  8  1  0  0  0  0
  8  9  1  0  0  0  0
  8 10  1  0  0  0  0
  8 11  1  0  0  0  0
 11 12  1  0  0  0  0
 11 13  1  0  0  0  0
 11 14  1  0  0  0  0
 14 15  1  0  0  0  0
 14 16  1  0  0  0  0
 14 17  1  0  0  0  0
M  END
> <VConfSearch Rank>
920

> <Conf_Id>
36

> <Delta U+W>
0.275

> <U+W>
-15.590

> <U>
45.174

> <W>
-60.765

> <W(PB)>
-62.518

> <W(SA)>
1.754

> <Valence>
1.161

> <Coulomb>
43.789

> <VdW>
0.224

> <VdW6>
-2.897

> <VdW12>
3.121

> <Bond>
0.100

> <Angle>
0.500

> <Pdih>
0.561

> <Idih>
0.000

> <Tether>
0.000

$$$$
VeraChem MOL file


 17 16  0  0  0  0  0  0  0  0999 V2000     
   21.2555   18.4477   20.4060 N   0  3  0  0  0  0  0  0  0  0  0  0
   21.6574   18.6996   21.3126 H   0  0  0  0  0  0  0  0  0  0  0  0
   21.4094   19.2416   19.7772 H   0  0  0  0  0  0  0  0  0  0  0  0
   21.8065   17.6656   20.0377 H   0  0  0  0  0  0  0  0  0  0  0  0
   19.7846   18.0968   20.5210 C   0  0  0  0  0  0  0  0  0  0  0  0
   19.6872   17.2052   21.1462 H   0  0  0  0  0  0  0  0  0  0  0  0
   19.4366   17.8441   19.5157 H   0  0  0  0  0  0  0  0  0  0  0  0
   18.9042   19.2307   21.0874 C   0  0  0  0  0  0  0  0  0  0  0  0
   19.1803   20.1874   20.6246 H   0  0  0  0  0  0  0  0  0  0  0  0
   17.8682   19.0355   20.7804 H   0  0  0  0  0  0  0  0  0  0  0  0
   18.9284   19.3524   22.6325 C   0  0  0  0  0  0  0  0  0  0  0  0
   18.5896   18.4088   23.0829 H   0  0  0  0  0  0  0  0  0  0  0  0
   18.1932   20.1127   22.9313 H   0  0  0  0  0  0  0  0  0  0  0  0
   20.3039   19.7395   23.2216 C   0  0  0  0  0  0  0  0  0  0  0  0
   21.0250   18.9187   23.1331 H   0  0  0  0  0  0  0  0  0  0  0  0
   20.2086   19.9707   24.2906 H   0  0  0  0  0  0  0  0  0  0  0  0
   20.7147   20.6278   22.7244 H   0  0  0  0  0  0  0  0  0  0  0  0
  1  2  1  0  0  0  0
  1  3  1  0  0  0  0
  1  4  1  0  0  0  0
  1  5  1  0  0  0  0
  5  6  1  0  0  0  0
  5  7  1  0  0  0  0
  5  8  1  0  0  0  0
  8  9  1  0  0  0  0
  8 10  1  0  0  0  0
  8 11  1  0  0  0  0
 11 12  1  0  0  0  0
 11 13  1  0  0  0  0
 11 14  1  0  0  0  0
 14 15  1  0  0  0  0
 14 16  1  0  0  0  0
 14 17  1  0  0  0  0
M  END
> <VConfSearch Rank>
921

> <Conf_Id>
19

> <Delta U+W>
2.662

> <U+W>
-13.203

> <U>
47.423

> <W>
-60.626

> <W(PB)>
-62.328

> <W(SA)>
1.702

> <Valence>
2.414

> <Coulomb>
44.831

> <VdW>
0.178

> <VdW6>
-3.743

> <VdW12>
3.921

> <Bond>
0.138

> <Angle>
0.941

> <Pdih>
1.335

> <Idih>
0.000

> <Tether>
0.000

$$$$
VeraChem MOL file


 17 16  0  0  0  0  0  0  0  0999 V2000     
   18.9374   20.0391   22.8693 N   0  3  0  0  0  0  0  0  0  0  0  0
   18.0870   20.5721   23.0779 H   0  0  0  0  0  0  0  0  0  0  0  0
   19.5926   20.2124   23.6375 H   0  0  0  0  0  0  0  0  0  0  0  0
   18.6884   19.0474   22.9040 H   0  0  0  0  0  0  0  0  0  0  0  0
   19.5290   20.4236   21.5267 C   0  0  0  0  0  0  0  0  0  0  0  0
   19.7668   21.4897   21.5755 H   0  0  0  0  0  0  0  0  0  0  0  0
   18.7656   20.2827   20.7568 H   0  0  0  0  0  0  0  0  0  0  0  0
   20.8038   19.6409   21.1476 C   0  0  0  0  0  0  0  0  0  0  0  0
   21.3461   20.2285   20.3949 H   0  0  0  0  0  0  0  0  0  0  0  0
   21.4736   19.5712   22.0150 H   0  0  0  0  0  0  0  0  0  0  0  0
   20.5412   18.2330   20.5547 C   0  0  0  0  0  0  0  0  0  0  0  0
   21.5014   17.8118   20.2250 H   0  0  0  0  0  0  0  0  0  0  0  0
   19.9223   18.3223   19.6508 H   0  0  0  0  0  0  0  0  0  0  0  0
   19.8791   17.2395   21.5362 C   0  0  0  0  0  0  0  0  0  0  0  0
   20.4225   17.1987   22.4892 H   0  0  0  0  0  0  0  0  0  0  0  0
   19.8777   16.2277   21.1103 H   0  0  0  0  0  0  0  0  0  0  0  0
   18.8346   17.5063   21.7352 H   0  0  0  0  0  0  0  0  0  0  0  0
  1  2  1  0  0  0  0
  1  3  1  0  0  0  0
  1  4  1  0  0  0  0
  1  5  1  0  0  0  0
  5  6  1  0  0  0  0
  5  7  1  0  0  0  0
  5  8  1  0  0  0  0
  8  9  1  0  0  0  0
  8 10  1  0  0  0  0
  8 11  1  0  0  0  0
 11 12  1  0  0  0  0
 11 13  1  0  0  0  0
 11 14  1  0  0  0  0
 14 15  1  0  0  0  0
 14 16  1  0  0  0  0
 14 17  1  0  0  0  0
M  END
> <VConfSearch Rank>
922

> <Conf_Id>
44

> <Delta U+W>
2.712

> <U+W>
-13.153

> <U>
47.423

> <W>
-60.576

> <W(PB)>
-62.262

> <W(SA)>
1.687

> <Valence>
2.414

> <Coulomb>
44.831

> <VdW>
0.178

> <VdW6>
-3.743

> <VdW12>
3.922

> <Bond>
0.138

> <Angle>
0.941

> <Pdih>
1.335

> <Idih>
0.000

> <Tether>
0.000

$$$$
VeraChem MOL file


 17 16  0  0  0  0  0  0  0  0999 V2000     
   18.3026   19.8367   22.4341 N   0  3  0  0  0  0  0  0  0  0  0  0
   18.1564   18.8237   22.4031 H   0  0  0  0  0  0  0  0  0  0  0  0
   17.6836   20.2536   21.7324 H   0  0  0  0  0  0  0  0  0  0  0  0
   17.9736   20.1586   23.3500 H   0  0  0  0  0  0  0  0  0  0  0  0
   19.7550   20.2022   22.1961 C   0  0  0  0  0  0  0  0  0  0  0  0
   20.3533   19.7521   22.9926 H   0  0  0  0  0  0  0  0  0  0  0  0
   19.8430   21.2888   22.2804 H   0  0  0  0  0  0  0  0  0  0  0  0
   20.2937   19.7512   20.8227 C   0  0  0  0  0  0  0  0  0  0  0  0
   19.7127   20.2402   20.0295 H   0  0  0  0  0  0  0  0  0  0  0  0
   21.3247   20.1131   20.7137 H   0  0  0  0  0  0  0  0  0  0  0  0
   20.2671   18.2173   20.6083 C   0  0  0  0  0  0  0  0  0  0  0  0
   20.6531   17.9938   19.6038 H   0  0  0  0  0  0  0  0  0  0  0  0
   19.2313   17.8519   20.6230 H   0  0  0  0  0  0  0  0  0  0  0  0
   21.1064   17.4454   21.6520 C   0  0  0  0  0  0  0  0  0  0  0  0
   22.1479   17.7925   21.6557 H   0  0  0  0  0  0  0  0  0  0  0  0
   21.1124   16.3718   21.4235 H   0  0  0  0  0  0  0  0  0  0  0  0
   20.7018   17.5658   22.6648 H   0  0  0  0  0  0  0  0  0  0  0  0
  1  2  1  0  0  0  0
  1  3  1  0  0  0  0
  1  4  1  0  0  0  0
  1  5  1  0  0  0  0
  5  6  1  0  0  0  0
  5  7  1  0  0  0  0
  5  8  1  0  0  0  0
  8  9  1  0  0  0  0
  8 10  1  0  0  0  0
  8 11  1  0  0  0  0
 11 12  1  0  0  0  0
 11 13  1  0  0  0  0
 11 14  1  0  0  0  0
 14 15  1  0  0  0  0
 14 16  1  0  0  0  0
 14 17  1  0  0  0  0
M  END
> <VConfSearch Rank>
923

> <Conf_Id>
1

> <Delta U+W>
0.685

> <U+W>
-15.179

> <U>
45.697

> <W>
-60.876

> <W(PB)>
-62.586

> <W(SA)>
1.710

> <Valence>
1.263

> <Coulomb>
44.179

> <VdW>
0.255

> <VdW6>
-3.552

> <VdW12>
3.807

> <Bond>
0.125

> <Angle>
0.616

> <Pdih>
0.521

> <Idih>
0.000

> <Tether>
0.000

$$$$
VeraChem MOL file


 17 16  0  0  0  0  0  0  0  0999 V2000     
   21.8592   19.4565   21.7564 N   0  3  0  0  0  0  0  0  0  0  0  0
   22.0975   19.7804   22.6986 H   0  0  0  0  0  0  0  0  0  0  0  0
   21.4165   20.2409   21.2695 H   0  0  0  0  0  0  0  0  0  0  0  0
   22.7437   19.2660   21.2747 H   0  0  0  0  0  0  0  0  0  0  0  0
   20.9602   18.2356   21.7884 C   0  0  0  0  0  0  0  0  0  0  0  0
   21.5084   17.4313   22.2865 H   0  0  0  0  0  0  0  0  0  0  0  0
   20.7703   17.9267   20.7572 H   0  0  0  0  0  0  0  0  0  0  0  0
   19.6203   18.4678   22.5169 C   0  0  0  0  0  0  0  0  0  0  0  0
   19.0677   17.5194   22.5467 H   0  0  0  0  0  0  0  0  0  0  0  0
   19.8206   18.7377   23.5623 H   0  0  0  0  0  0  0  0  0  0  0  0
   18.7299   19.5558   21.8667 C   0  0  0  0  0  0  0  0  0  0  0  0
   19.2322   20.5317   21.9121 H   0  0  0  0  0  0  0  0  0  0  0  0
   17.8100   19.6606   22.4589 H   0  0  0  0  0  0  0  0  0  0  0  0
   18.3509   19.2331   20.4031 C   0  0  0  0  0  0  0  0  0  0  0  0
   17.6685   19.9952   20.0050 H   0  0  0  0  0  0  0  0  0  0  0  0
   17.8455   18.2612   20.3315 H   0  0  0  0  0  0  0  0  0  0  0  0
   19.2345   19.2083   19.7531 H   0  0  0  0  0  0  0  0  0  0  0  0
  1  2  1  0  0  0  0
  1  3  1  0  0  0  0
  1  4  1  0  0  0  0
  1  5  1  0  0  0  0
  5  6  1  0  0  0  0
  5  7  1  0  0  0  0
  5  8  1  0  0  0  0
  8  9  1  0  0  0  0
  8 10  1  0  0  0  0
  8 11  1  0  0  0  0
 11 12  1  0  0  0  0
 11 13  1  0  0  0  0
 11 14  1  0  0  0  0
 14 15  1  0  0  0  0
 14 16  1  0  0  0  0
 14 17  1  0  0  0  0
M  END
> <VConfSearch Rank>
924

> <Conf_Id>
43

> <Delta U+W>
0.642

> <U+W>
-15.222

> <U>
45.697

> <W>
-60.919

> <W(PB)>
-62.631

> <W(SA)>
1.712

> <Valence>
1.262

> <Coulomb>
44.179

> <VdW>
0.255

> <VdW6>
-3.552

> <VdW12>
3.807

> <Bond>
0.125

> <Angle>
0.616

> <Pdih>
0.521

> <Idih>
0.000

> <Tether>
0.000

$$$$
VeraChem MOL file


 17 16  0  0  0  0  0  0  0  0999 V2000     
   18.7356   19.2915   23.8485 N   0  3  0  0  0  0  0  0  0  0  0  0
   19.2103   18.5259   24.3365 H   0  0  0  0  0  0  0  0  0  0  0  0
   17.8255   18.9343   23.5420 H   0  0  0  0  0  0  0  0  0  0  0  0
   18.5487   20.0176   24.5475 H   0  0  0  0  0  0  0  0  0  0  0  0
   19.5567   19.8222   22.6902 C   0  0  0  0  0  0  0  0  0  0  0  0
   20.4953   20.2127   23.0928 H   0  0  0  0  0  0  0  0  0  0  0  0
   19.0062   20.6519   22.2384 H   0  0  0  0  0  0  0  0  0  0  0  0
   19.8562   18.7565   21.6203 C   0  0  0  0  0  0  0  0  0  0  0  0
   20.3954   17.9179   22.0808 H   0  0  0  0  0  0  0  0  0  0  0  0
   18.9115   18.3557   21.2293 H   0  0  0  0  0  0  0  0  0  0  0  0
   20.6936   19.3378   20.4600 C   0  0  0  0  0  0  0  0  0  0  0  0
   21.6380   19.7421   20.8511 H   0  0  0  0  0  0  0  0  0  0  0  0
   20.1559   20.1793   20.0006 H   0  0  0  0  0  0  0  0  0  0  0  0
   20.9981   18.2744   19.3827 C   0  0  0  0  0  0  0  0  0  0  0  0
   21.5933   18.7069   18.5680 H   0  0  0  0  0  0  0  0  0  0  0  0
   20.0722   17.8758   18.9478 H   0  0  0  0  0  0  0  0  0  0  0  0
   21.5660   17.4351   19.8051 H   0  0  0  0  0  0  0  0  0  0  0  0
  1  2  1  0  0  0  0
  1  3  1  0  0  0  0
  1  4  1  0  0  0  0
  1  5  1  0  0  0  0
  5  6  1  0  0  0  0
  5  7  1  0  0  0  0
  5  8  1  0  0  0  0
  8  9  1  0  0  0  0
  8 10  1  0  0  0  0
  8 11  1  0  0  0  0
 11 12  1  0  0  0  0
 11 13  1  0  0  0  0
 11 14  1  0  0  0  0
 14 15  1  0  0  0  0
 14 16  1  0  0  0  0
 14 17  1  0  0  0  0
M  END
> <VConfSearch Rank>
925

> <Conf_Id>
7

> <Delta U+W>
0.000

> <U+W>
-15.865

> <U>
44.664

> <W>
-60.529

> <W(PB)>
-62.309

> <W(SA)>
1.780

> <Valence>
0.872

> <Coulomb>
43.648

> <VdW>
0.144

> <VdW6>
-2.370

> <VdW12>
2.515

> <Bond>
0.080

> <Angle>
0.376

> <Pdih>
0.416

> <Idih>
0.000

> <Tether>
0.000

$$$$
VeraChem MOL file


 17 16  0  0  0  0  0  0  0  0999 V2000     
   18.8586   17.9589   23.4614 N   0  3  0  0  0  0  0  0  0  0  0  0
   18.7862   18.6079   24.2508 H   0  0  0  0  0  0  0  0  0  0  0  0
   19.6151   17.3033   23.6795 H   0  0  0  0  0  0  0  0  0  0  0  0
   17.9902   17.4145   23.4449 H   0  0  0  0  0  0  0  0  0  0  0  0
   19.0951   18.6829   22.1509 C   0  0  0  0  0  0  0  0  0  0  0  0
   18.2397   19.3388   21.9681 H   0  0  0  0  0  0  0  0  0  0  0  0
   19.1295   17.9343   21.3552 H   0  0  0  0  0  0  0  0  0  0  0  0
   20.3939   19.5116   22.1414 C   0  0  0  0  0  0  0  0  0  0  0  0
   20.3665   20.2331   22.9688 H   0  0  0  0  0  0  0  0  0  0  0  0
   21.2529   18.8531   22.3267 H   0  0  0  0  0  0  0  0  0  0  0  0
   20.6038   20.2764   20.8136 C   0  0  0  0  0  0  0  0  0  0  0  0
   21.4998   20.9066   20.9024 H   0  0  0  0  0  0  0  0  0  0  0  0
   19.7606   20.9607   20.6431 H   0  0  0  0  0  0  0  0  0  0  0  0
   20.7657   19.3387   19.5952 C   0  0  0  0  0  0  0  0  0  0  0  0
   21.5991   18.6395   19.7428 H   0  0  0  0  0  0  0  0  0  0  0  0
   20.9731   19.9196   18.6872 H   0  0  0  0  0  0  0  0  0  0  0  0
   19.8556   18.7535   19.4127 H   0  0  0  0  0  0  0  0  0  0  0  0
  1  2  1  0  0  0  0
  1  3  1  0  0  0  0
  1  4  1  0  0  0  0
  1  5  1  0  0  0  0
  5  6  1  0  0  0  0
  5  7  1  0  0  0  0
  5  8  1  0  0  0  0
  8  9  1  0  0  0  0
  8 10  1  0  0  0  0
  8 11  1  0  0  0  0
 11 12  1  0  0  0  0
 11 13  1  0  0  0  0
 11 14  1  0  0  0  0
 14 15  1  0  0  0  0
 14 16  1  0  0  0  0
 14 17  1  0  0  0  0
M  END
> <VConfSearch Rank>
926

> <Conf_Id>
36

> <Delta U+W>
0.275

> <U+W>
-15.590

> <U>
45.174

> <W>
-60.765

> <W(PB)>
-62.518

> <W(SA)>
1.754

> <Valence>
1.161

> <Coulomb>
43.789

> <VdW>
0.224

> <VdW6>
-2.897

> <VdW12>
3.121

> <Bond>
0.100

> <Angle>
0.500

> <Pdih>
0.561

> <Idih>
0.000

> <Tether>
0.000

$$$$
VeraChem MOL file


 17 16  0  0  0  0  0  0  0  0999 V2000     
   21.6313   18.2349   21.4494 N   0  3  0  0  0  0  0  0  0  0  0  0
   21.1252   17.8518   22.2518 H   0  0  0  0  0  0  0  0  0  0  0  0
   22.2857   18.9347   21.8120 H   0  0  0  0  0  0  0  0  0  0  0  0
   22.1962   17.4748   21.0571 H   0  0  0  0  0  0  0  0  0  0  0  0
   20.6877   18.8259   20.4196 C   0  0  0  0  0  0  0  0  0  0  0  0
   20.0620   18.0234   20.0197 H   0  0  0  0  0  0  0  0  0  0  0  0
   21.3053   19.2111   19.6038 H   0  0  0  0  0  0  0  0  0  0  0  0
   19.7960   19.9654   20.9563 C   0  0  0  0  0  0  0  0  0  0  0  0
   20.3922   20.6494   21.5746 H   0  0  0  0  0  0  0  0  0  0  0  0
   19.4546   20.5568   20.0964 H   0  0  0  0  0  0  0  0  0  0  0  0
   18.5430   19.4888   21.7345 C   0  0  0  0  0  0  0  0  0  0  0  0
   17.9225   18.8562   21.0842 H   0  0  0  0  0  0  0  0  0  0  0  0
   17.9304   20.3687   21.9764 H   0  0  0  0  0  0  0  0  0  0  0  0
   18.8546   18.7308   23.0450 C   0  0  0  0  0  0  0  0  0  0  0  0
   19.2821   17.7413   22.8456 H   0  0  0  0  0  0  0  0  0  0  0  0
   17.9338   18.5736   23.6218 H   0  0  0  0  0  0  0  0  0  0  0  0
   19.5508   19.2972   23.6772 H   0  0  0  0  0  0  0  0  0  0  0  0
  1  2  1  0  0  0  0
  1  3  1  0  0  0  0
  1  4  1  0  0  0  0
  1  5  1  0  0  0  0
  5  6  1  0  0  0  0
  5  7  1  0  0  0  0
  5  8  1  0  0  0  0
  8  9  1  0  0  0  0
  8 10  1  0  0  0  0
  8 11  1  0  0  0  0
 11 12  1  0  0  0  0
 11 13  1  0  0  0  0
 11 14  1  0  0  0  0
 14 15  1  0  0  0  0
 14 16  1  0  0  0  0
 14 17  1  0  0  0  0
M  END
> <VConfSearch Rank>
927

> <Conf_Id>
19

> <Delta U+W>
2.662

> <U+W>
-13.203

> <U>
47.423

> <W>
-60.626

> <W(PB)>
-62.328

> <W(SA)>
1.702

> <Valence>
2.414

> <Coulomb>
44.831

> <VdW>
0.178

> <VdW6>
-3.743

> <VdW12>
3.921

> <Bond>
0.138

> <Angle>
0.941

> <Pdih>
1.335

> <Idih>
0.000

> <Tether>
0.000

$$$$
VeraChem MOL file


 17 16  0  0  0  0  0  0  0  0999 V2000     
   21.4411   19.2232   22.5972 N   0  3  0  0  0  0  0  0  0  0  0  0
   22.3442   19.6973   22.6994 H   0  0  0  0  0  0  0  0  0  0  0  0
   21.4486   18.4275   23.2424 H   0  0  0  0  0  0  0  0  0  0  0  0
   20.7210   19.8710   22.9268 H   0  0  0  0  0  0  0  0  0  0  0  0
   21.1920   18.7861   21.1665 C   0  0  0  0  0  0  0  0  0  0  0  0
   21.9993   18.0998   20.8966 H   0  0  0  0  0  0  0  0  0  0  0  0
   21.2629   19.6630   20.5173 H   0  0  0  0  0  0  0  0  0  0  0  0
   19.8374   18.0807   20.9453 C   0  0  0  0  0  0  0  0  0  0  0  0
   19.9152   17.4872   20.0247 H   0  0  0  0  0  0  0  0  0  0  0  0
   19.6527   17.3604   21.7532 H   0  0  0  0  0  0  0  0  0  0  0  0
   18.6301   19.0409   20.7926 C   0  0  0  0  0  0  0  0  0  0  0  0
   17.7436   18.4440   20.5361 H   0  0  0  0  0  0  0  0  0  0  0  0
   18.7993   19.7148   19.9411 H   0  0  0  0  0  0  0  0  0  0  0  0
   18.3134   19.8751   22.0547 C   0  0  0  0  0  0  0  0  0  0  0  0
   18.2321   19.2370   22.9442 H   0  0  0  0  0  0  0  0  0  0  0  0
   17.3572   20.4005   21.9334 H   0  0  0  0  0  0  0  0  0  0  0  0
   19.0793   20.6384   22.2350 H   0  0  0  0  0  0  0  0  0  0  0  0
  1  2  1  0  0  0  0
  1  3  1  0  0  0  0
  1  4  1  0  0  0  0
  1  5  1  0  0  0  0
  5  6  1  0  0  0  0
  5  7  1  0  0  0  0
  5  8  1  0  0  0  0
  8  9  1  0  0  0  0
  8 10  1  0  0  0  0
  8 11  1  0  0  0  0
 11 12  1  0  0  0  0
 11 13  1  0  0  0  0
 11 14  1  0  0  0  0
 14 15  1  0  0  0  0
 14 16  1  0  0  0  0
 14 17  1  0  0  0  0
M  END
> <VConfSearch Rank>
928

> <Conf_Id>
44

> <Delta U+W>
2.712

> <U+W>
-13.153

> <U>
47.423

> <W>
-60.576

> <W(PB)>
-62.262

> <W(SA)>
1.687

> <Valence>
2.414

> <Coulomb>
44.831

> <VdW>
0.178

> <VdW6>
-3.743

> <VdW12>
3.922

> <Bond>
0.138

> <Angle>
0.941

> <Pdih>
1.335

> <Idih>
0.000

> <Tether>
0.000

$$$$
VeraChem MOL file


 17 16  0  0  0  0  0  0  0  0999 V2000     
   20.6540   19.9356   23.2119 N   0  3  0  0  0  0  0  0  0  0  0  0
   19.8613   20.4980   22.8898 H   0  0  0  0  0  0  0  0  0  0  0  0
   21.5062   20.4609   22.9945 H   0  0  0  0  0  0  0  0  0  0  0  0
   20.5888   19.8838   24.2335 H   0  0  0  0  0  0  0  0  0  0  0  0
   20.6607   18.5585   22.5767 C   0  0  0  0  0  0  0  0  0  0  0  0
   19.7424   18.0442   22.8716 H   0  0  0  0  0  0  0  0  0  0  0  0
   21.5067   18.0042   22.9923 H   0  0  0  0  0  0  0  0  0  0  0  0
   20.7724   18.5828   21.0382 C   0  0  0  0  0  0  0  0  0  0  0  0
   21.7168   19.0649   20.7530 H   0  0  0  0  0  0  0  0  0  0  0  0
   20.8349   17.5487   20.6742 H   0  0  0  0  0  0  0  0  0  0  0  0
   19.5951   19.3008   20.3324 C   0  0  0  0  0  0  0  0  0  0  0  0
   19.7680   19.2808   19.2473 H   0  0  0  0  0  0  0  0  0  0  0  0
   19.5750   20.3617   20.6165 H   0  0  0  0  0  0  0  0  0  0  0  0
   18.2235   18.6549   20.6343 C   0  0  0  0  0  0  0  0  0  0  0  0
   18.2180   17.5926   20.3575 H   0  0  0  0  0  0  0  0  0  0  0  0
   17.4292   19.1534   20.0638 H   0  0  0  0  0  0  0  0  0  0  0  0
   17.9655   18.7330   21.6980 H   0  0  0  0  0  0  0  0  0  0  0  0
  1  2  1  0  0  0  0
  1  3  1  0  0  0  0
  1  4  1  0  0  0  0
  1  5  1  0  0  0  0
  5  6  1  0  0  0  0
  5  7  1  0  0  0  0
  5  8  1  0  0  0  0
  8  9  1  0  0  0  0
  8 10  1  0  0  0  0
  8 11  1  0  0  0  0
 11 12  1  0  0  0  0
 11 13  1  0  0  0  0
 11 14  1  0  0  0  0
 14 15  1  0  0  0  0
 14 16  1  0  0  0  0
 14 17  1  0  0  0  0
M  END
> <VConfSearch Rank>
929

> <Conf_Id>
1

> <Delta U+W>
0.685

> <U+W>
-15.179

> <U>
45.697

> <W>
-60.876

> <W(PB)>
-62.586

> <W(SA)>
1.710

> <Valence>
1.263

> <Coulomb>
44.179

> <VdW>
0.255

> <VdW6>
-3.552

> <VdW12>
3.807

> <Bond>
0.125

> <Angle>
0.616

> <Pdih>
0.521

> <Idih>
0.000

> <Tether>
0.000

$$$$
VeraChem MOL file


 17 16  0  0  0  0  0  0  0  0999 V2000     
   20.6797   18.7129   23.4094 N   0  3  0  0  0  0  0  0  0  0  0  0
   21.2663   17.8734   23.4306 H   0  0  0  0  0  0  0  0  0  0  0  0
   19.7045   18.4013   23.4307 H   0  0  0  0  0  0  0  0  0  0  0  0
   20.8515   19.2183   24.2844 H   0  0  0  0  0  0  0  0  0  0  0  0
   20.9679   19.5740   22.1948 C   0  0  0  0  0  0  0  0  0  0  0  0
   22.0098   19.8995   22.2571 H   0  0  0  0  0  0  0  0  0  0  0  0
   20.3328   20.4619   22.2497 H   0  0  0  0  0  0  0  0  0  0  0  0
   20.7378   18.8522   20.8509 C   0  0  0  0  0  0  0  0  0  0  0  0
   21.0315   19.5263   20.0353 H   0  0  0  0  0  0  0  0  0  0  0  0
   21.4091   17.9855   20.7877 H   0  0  0  0  0  0  0  0  0  0  0  0
   19.2770   18.3882   20.6269 C   0  0  0  0  0  0  0  0  0  0  0  0
   18.9977   17.6420   21.3831 H   0  0  0  0  0  0  0  0  0  0  0  0
   19.2134   17.8753   19.6570 H   0  0  0  0  0  0  0  0  0  0  0  0
   18.2617   19.5539   20.6460 C   0  0  0  0  0  0  0  0  0  0  0  0
   17.2518   19.1887   20.4188 H   0  0  0  0  0  0  0  0  0  0  0  0
   18.5192   20.3137   19.8967 H   0  0  0  0  0  0  0  0  0  0  0  0
   18.2242   20.0408   21.6286 H   0  0  0  0  0  0  0  0  0  0  0  0
  1  2  1  0  0  0  0
  1  3  1  0  0  0  0
  1  4  1  0  0  0  0
  1  5  1  0  0  0  0
  5  6  1  0  0  0  0
  5  7  1  0  0  0  0
  5  8  1  0  0  0  0
  8  9  1  0  0  0  0
  8 10  1  0  0  0  0
  8 11  1  0  0  0  0
 11 12  1  0  0  0  0
 11 13  1  0  0  0  0
 11 14  1  0  0  0  0
 14 15  1  0  0  0  0
 14 16  1  0  0  0  0
 14 17  1  0  0  0  0
M  END
> <VConfSearch Rank>
930

> <Conf_Id>
43

> <Delta U+W>
0.642

> <U+W>
-15.222

> <U>
45.697

> <W>
-60.919

> <W(PB)>
-62.631

> <W(SA)>
1.712

> <Valence>
1.262

> <Coulomb>
44.179

> <VdW>
0.255

> <VdW6>
-3.552

> <VdW12>
3.807

> <Bond>
0.125

> <Angle>
0.616

> <Pdih>
0.521

> <Idih>
0.000

> <Tether>
0.000

$$$$
VeraChem MOL file


 17 16  0  0  0  0  0  0  0  0999 V2000     
   21.8015   20.8389   21.4521 N   0  3  0  0  0  0  0  0  0  0  0  0
   22.3587   20.5196   22.2503 H   0  0  0  0  0  0  0  0  0  0  0  0
   21.2441   21.6360   21.7741 H   0  0  0  0  0  0  0  0  0  0  0  0
   22.4613   21.2008   20.7560 H   0  0  0  0  0  0  0  0  0  0  0  0
   20.9349   19.7321   20.8852 C   0  0  0  0  0  0  0  0  0  0  0  0
   21.5941   18.9331   20.5351 H   0  0  0  0  0  0  0  0  0  0  0  0
   20.3956   20.1337   20.0230 H   0  0  0  0  0  0  0  0  0  0  0  0
   19.9309   19.1649   21.9052 C   0  0  0  0  0  0  0  0  0  0  0  0
   20.4752   18.7766   22.7764 H   0  0  0  0  0  0  0  0  0  0  0  0
   19.2807   19.9730   22.2660 H   0  0  0  0  0  0  0  0  0  0  0  0
   19.0693   18.0414   21.2881 C   0  0  0  0  0  0  0  0  0  0  0  0
   19.7198   17.2336   20.9237 H   0  0  0  0  0  0  0  0  0  0  0  0
   18.5267   18.4285   20.4140 H   0  0  0  0  0  0  0  0  0  0  0  0
   18.0598   17.4674   22.3056 C   0  0  0  0  0  0  0  0  0  0  0  0
   17.4581   16.6714   21.8481 H   0  0  0  0  0  0  0  0  0  0  0  0
   17.3725   18.2455   22.6625 H   0  0  0  0  0  0  0  0  0  0  0  0
   18.5750   17.0412   23.1763 H   0  0  0  0  0  0  0  0  0  0  0  0
  1  2  1  0  0  0  0
  1  3  1  0  0  0  0
  1  4  1  0  0  0  0
  1  5  1  0  0  0  0
  5  6  1  0  0  0  0
  5  7  1  0  0  0  0
  5  8  1  0  0  0  0
  8  9  1  0  0  0  0
  8 10  1  0  0  0  0
  8 11  1  0  0  0  0
 11 12  1  0  0  0  0
 11 13  1  0  0  0  0
 11 14  1  0  0  0  0
 14 15  1  0  0  0  0
 14 16  1  0  0  0  0
 14 17  1  0  0  0  0
M  END
> <VConfSearch Rank>
931

> <Conf_Id>
7

> <Delta U+W>
0.000

> <U+W>
-15.865

> <U>
44.664

> <W>
-60.529

> <W(PB)>
-62.309

> <W(SA)>
1.780

> <Valence>
0.872

> <Coulomb>
43.648

> <VdW>
0.144

> <VdW6>
-2.370

> <VdW12>
2.515

> <Bond>
0.080

> <Angle>
0.376

> <Pdih>
0.416

> <Idih>
0.000

> <Tether>
0.000

$$$$
VeraChem MOL file


 17 16  0  0  0  0  0  0  0  0999 V2000     
   18.9004   19.2390   19.4408 N   0  3  0  0  0  0  0  0  0  0  0  0
   18.0221   19.7597   19.5255 H   0  0  0  0  0  0  0  0  0  0  0  0
   18.6548   18.2498   19.3369 H   0  0  0  0  0  0  0  0  0  0  0  0
   19.3339   19.5310   18.5590 H   0  0  0  0  0  0  0  0  0  0  0  0
   19.8168   19.4750   20.6248 C   0  0  0  0  0  0  0  0  0  0  0  0
   20.0605   20.5404   20.6565 H   0  0  0  0  0  0  0  0  0  0  0  0
   20.7405   18.9169   20.4510 H   0  0  0  0  0  0  0  0  0  0  0  0
   19.1954   19.0462   21.9679 C   0  0  0  0  0  0  0  0  0  0  0  0
   18.2485   19.5828   22.1139 H   0  0  0  0  0  0  0  0  0  0  0  0
   18.9491   17.9766   21.9355 H   0  0  0  0  0  0  0  0  0  0  0  0
   20.1243   19.3282   23.1719 C   0  0  0  0  0  0  0  0  0  0  0  0
   19.5924   19.0756   24.1000 H   0  0  0  0  0  0  0  0  0  0  0  0
   20.3450   20.4037   23.2255 H   0  0  0  0  0  0  0  0  0  0  0  0
   21.4465   18.5291   23.1152 C   0  0  0  0  0  0  0  0  0  0  0  0
   21.2537   17.4501   23.0551 H   0  0  0  0  0  0  0  0  0  0  0  0
   22.0459   18.7123   24.0164 H   0  0  0  0  0  0  0  0  0  0  0  0
   22.0553   18.8174   22.2490 H   0  0  0  0  0  0  0  0  0  0  0  0
  1  2  1  0  0  0  0
  1  3  1  0  0  0  0
  1  4  1  0  0  0  0
  1  5  1  0  0  0  0
  5  6  1  0  0  0  0
  5  7  1  0  0  0  0
  5  8  1  0  0  0  0
  8  9  1  0  0  0  0
  8 10  1  0  0  0  0
  8 11  1  0  0  0  0
 11 12  1  0  0  0  0
 11 13  1  0  0  0  0
 11 14  1  0  0  0  0
 14 15  1  0  0  0  0
 14 16  1  0  0  0  0
 14 17  1  0  0  0  0
M  END
> <VConfSearch Rank>
932

> <Conf_Id>
36

> <Delta U+W>
0.275

> <U+W>
-15.590

> <U>
45.174

> <W>
-60.765

> <W(PB)>
-62.518

> <W(SA)>
1.754

> <Valence>
1.161

> <Coulomb>
43.789

> <VdW>
0.224

> <VdW6>
-2.897

> <VdW12>
3.121

> <Bond>
0.100

> <Angle>
0.500

> <Pdih>
0.561

> <Idih>
0.000

> <Tether>
0.000

$$$$
VeraChem MOL file


 17 16  0  0  0  0  0  0  0  0999 V2000     
   21.1949   19.7217   22.7578 N   0  3  0  0  0  0  0  0  0  0  0  0
   20.9683   20.3671   21.9969 H   0  0  0  0  0  0  0  0  0  0  0  0
   22.0886   19.2800   22.5221 H   0  0  0  0  0  0  0  0  0  0  0  0
   21.3554   20.2879   23.5971 H   0  0  0  0  0  0  0  0  0  0  0  0
   20.0981   18.6961   22.9704 C   0  0  0  0  0  0  0  0  0  0  0  0
   19.1901   19.2175   23.2847 H   0  0  0  0  0  0  0  0  0  0  0  0
   20.4189   18.0507   23.7927 H   0  0  0  0  0  0  0  0  0  0  0  0
   19.7976   17.8230   21.7338 C   0  0  0  0  0  0  0  0  0  0  0  0
   20.7365   17.4973   21.2669 H   0  0  0  0  0  0  0  0  0  0  0  0
   19.3014   16.9077   22.0828 H   0  0  0  0  0  0  0  0  0  0  0  0
   18.8766   18.4931   20.6824 C   0  0  0  0  0  0  0  0  0  0  0  0
   17.9162   18.7572   21.1471 H   0  0  0  0  0  0  0  0  0  0  0  0
   18.6441   17.7526   19.9042 H   0  0  0  0  0  0  0  0  0  0  0  0
   19.4829   19.7438   20.0063 C   0  0  0  0  0  0  0  0  0  0  0  0
   19.5413   20.5888   20.7022 H   0  0  0  0  0  0  0  0  0  0  0  0
   18.8553   20.0629   19.1641 H   0  0  0  0  0  0  0  0  0  0  0  0
   20.4871   19.5374   19.6137 H   0  0  0  0  0  0  0  0  0  0  0  0
  1  2  1  0  0  0  0
  1  3  1  0  0  0  0
  1  4  1  0  0  0  0
  1  5  1  0  0  0  0
  5  6  1  0  0  0  0
  5  7  1  0  0  0  0
  5  8  1  0  0  0  0
  8  9  1  0  0  0  0
  8 10  1  0  0  0  0
  8 11  1  0  0  0  0
 11 12  1  0  0  0  0
 11 13  1  0  0  0  0
 11 14  1  0  0  0  0
 14 15  1  0  0  0  0
 14 16  1  0  0  0  0
 14 17  1  0  0  0  0
M  END
> <VConfSearch Rank>
933

> <Conf_Id>
19

> <Delta U+W>
2.662

> <U+W>
-13.203

> <U>
47.423

> <W>
-60.626

> <W(PB)>
-62.328

> <W(SA)>
1.702

> <Valence>
2.414

> <Coulomb>
44.831

> <VdW>
0.178

> <VdW6>
-3.743

> <VdW12>
3.921

> <Bond>
0.138

> <Angle>
0.941

> <Pdih>
1.335

> <Idih>
0.000

> <Tether>
0.000

$$$$
VeraChem MOL file


 17 16  0  0  0  0  0  0  0  0999 V2000     
   19.9175   19.8804   23.2687 N   0  3  0  0  0  0  0  0  0  0  0  0
   19.3683   20.2418   24.0552 H   0  0  0  0  0  0  0  0  0  0  0  0
   20.8786   20.2090   23.4017 H   0  0  0  0  0  0  0  0  0  0  0  0
   19.9334   18.8609   23.3547 H   0  0  0  0  0  0  0  0  0  0  0  0
   19.3501   20.3232   21.9338 C   0  0  0  0  0  0  0  0  0  0  0  0
   19.3711   21.4163   21.9242 H   0  0  0  0  0  0  0  0  0  0  0  0
   18.3058   20.0048   21.8765 H   0  0  0  0  0  0  0  0  0  0  0  0
   20.1252   19.7947   20.7083 C   0  0  0  0  0  0  0  0  0  0  0  0
   19.8931   20.4491   19.8576 H   0  0  0  0  0  0  0  0  0  0  0  0
   21.2059   19.8919   20.8769 H   0  0  0  0  0  0  0  0  0  0  0  0
   19.7715   18.3413   20.3020 C   0  0  0  0  0  0  0  0  0  0  0  0
   20.2963   18.1064   19.3653 H   0  0  0  0  0  0  0  0  0  0  0  0
   18.6984   18.2719   20.0746 H   0  0  0  0  0  0  0  0  0  0  0  0
   20.1446   17.2742   21.3561 C   0  0  0  0  0  0  0  0  0  0  0  0
   21.1897   17.3780   21.6757 H   0  0  0  0  0  0  0  0  0  0  0  0
   20.0231   16.2668   20.9372 H   0  0  0  0  0  0  0  0  0  0  0  0
   19.4966   17.3362   22.2381 H   0  0  0  0  0  0  0  0  0  0  0  0
  1  2  1  0  0  0  0
  1  3  1  0  0  0  0
  1  4  1  0  0  0  0
  1  5  1  0  0  0  0
  5  6  1  0  0  0  0
  5  7  1  0  0  0  0
  5  8  1  0  0  0  0
  8  9  1  0  0  0  0
  8 10  1  0  0  0  0
  8 11  1  0  0  0  0
 11 12  1  0  0  0  0
 11 13  1  0  0  0  0
 11 14  1  0  0  0  0
 14 15  1  0  0  0  0
 14 16  1  0  0  0  0
 14 17  1  0  0  0  0
M  END
> <VConfSearch Rank>
934

> <Conf_Id>
44

> <Delta U+W>
2.712

> <U+W>
-13.153

> <U>
47.423

> <W>
-60.576

> <W(PB)>
-62.262

> <W(SA)>
1.687

> <Valence>
2.414

> <Coulomb>
44.831

> <VdW>
0.178

> <VdW6>
-3.743

> <VdW12>
3.922

> <Bond>
0.138

> <Angle>
0.941

> <Pdih>
1.335

> <Idih>
0.000

> <Tether>
0.000

$$$$
VeraChem MOL file


 17 16  0  0  0  0  0  0  0  0999 V2000     
   18.5654   18.9870   20.1460 N   0  3  0  0  0  0  0  0  0  0  0  0
   18.5151   19.9171   20.5711 H   0  0  0  0  0  0  0  0  0  0  0  0
   17.7247   18.4770   20.4330 H   0  0  0  0  0  0  0  0  0  0  0  0
   18.5022   19.1179   19.1313 H   0  0  0  0  0  0  0  0  0  0  0  0
   19.8336   18.2559   20.5424 C   0  0  0  0  0  0  0  0  0  0  0  0
   20.6868   18.8364   20.1820 H   0  0  0  0  0  0  0  0  0  0  0  0
   19.8379   17.2924   20.0255 H   0  0  0  0  0  0  0  0  0  0  0  0
   19.9683   18.0213   22.0612 C   0  0  0  0  0  0  0  0  0  0  0  0
   19.1287   17.4035   22.4063 H   0  0  0  0  0  0  0  0  0  0  0  0
   20.8769   17.4332   22.2465 H   0  0  0  0  0  0  0  0  0  0  0  0
   20.0256   19.3241   22.8973 C   0  0  0  0  0  0  0  0  0  0  0  0
   20.1063   19.0586   23.9607 H   0  0  0  0  0  0  0  0  0  0  0  0
   19.0840   19.8804   22.7945 H   0  0  0  0  0  0  0  0  0  0  0  0
   21.2138   20.2365   22.5159 C   0  0  0  0  0  0  0  0  0  0  0  0
   22.1681   19.7025   22.6117 H   0  0  0  0  0  0  0  0  0  0  0  0
   21.2532   21.1131   23.1754 H   0  0  0  0  0  0  0  0  0  0  0  0
   21.1278   20.6019   21.4848 H   0  0  0  0  0  0  0  0  0  0  0  0
  1  2  1  0  0  0  0
  1  3  1  0  0  0  0
  1  4  1  0  0  0  0
  1  5  1  0  0  0  0
  5  6  1  0  0  0  0
  5  7  1  0  0  0  0
  5  8  1  0  0  0  0
  8  9  1  0  0  0  0
  8 10  1  0  0  0  0
  8 11  1  0  0  0  0
 11 12  1  0  0  0  0
 11 13  1  0  0  0  0
 11 14  1  0  0  0  0
 14 15  1  0  0  0  0
 14 16  1  0  0  0  0
 14 17  1  0  0  0  0
M  END
> <VConfSearch Rank>
935

> <Conf_Id>
1

> <Delta U+W>
0.685

> <U+W>
-15.179

> <U>
45.697

> <W>
-60.876

> <W(PB)>
-62.586

> <W(SA)>
1.710

> <Valence>
1.263

> <Coulomb>
44.179

> <VdW>
0.255

> <VdW6>
-3.552

> <VdW12>
3.807

> <Bond>
0.125

> <Angle>
0.616

> <Pdih>
0.521

> <Idih>
0.000

> <Tether>
0.000

$$$$
VeraChem MOL file


 17 16  0  0  0  0  0  0  0  0999 V2000     
   21.6875   18.7289   20.7328 N   0  3  0  0  0  0  0  0  0  0  0  0
   21.8272   19.3578   19.9364 H   0  0  0  0  0  0  0  0  0  0  0  0
   21.0660   17.9777   20.4200 H   0  0  0  0  0  0  0  0  0  0  0  0
   22.5960   18.3002   20.9365 H   0  0  0  0  0  0  0  0  0  0  0  0
   21.1252   19.4582   21.9378 C   0  0  0  0  0  0  0  0  0  0  0  0
   21.8537   20.2162   22.2380 H   0  0  0  0  0  0  0  0  0  0  0  0
   21.0294   18.7392   22.7555 H   0  0  0  0  0  0  0  0  0  0  0  0
   19.7631   20.1339   21.6769 C   0  0  0  0  0  0  0  0  0  0  0  0
   19.4673   20.6874   22.5780 H   0  0  0  0  0  0  0  0  0  0  0  0
   19.8787   20.8829   20.8824 H   0  0  0  0  0  0  0  0  0  0  0  0
   18.6334   19.1464   21.2921 C   0  0  0  0  0  0  0  0  0  0  0  0
   18.8728   18.6506   20.3416 H   0  0  0  0  0  0  0  0  0  0  0  0
   17.7111   19.7166   21.1126 H   0  0  0  0  0  0  0  0  0  0  0  0
   18.3622   18.0826   22.3804 C   0  0  0  0  0  0  0  0  0  0  0  0
   17.5135   17.4475   22.0951 H   0  0  0  0  0  0  0  0  0  0  0  0
   18.1190   18.5543   23.3414 H   0  0  0  0  0  0  0  0  0  0  0  0
   19.2298   17.4277   22.5302 H   0  0  0  0  0  0  0  0  0  0  0  0
  1  2  1  0  0  0  0
  1  3  1  0  0  0  0
  1  4  1  0  0  0  0
  1  5  1  0  0  0  0
  5  6  1  0  0  0  0
  5  7  1  0  0  0  0
  5  8  1  0  0  0  0
  8  9  1  0  0  0  0
  8 10  1  0  0  0  0
  8 11  1  0  0  0  0
 11 12  1  0  0  0  0
 11 13  1  0  0  0  0
 11 14  1  0  0  0  0
 14 15  1  0  0  0  0
 14 16  1  0  0  0  0
 14 17  1  0  0  0  0
M  END
> <VConfSearch Rank>
936

> <Conf_Id>
43

> <Delta U+W>
0.642

> <U+W>
-15.222

> <U>
45.697

> <W>
-60.919

> <W(PB)>
-62.631

> <W(SA)>
1.712

> <Valence>
1.262

> <Coulomb>
44.179

> <VdW>
0.255

> <VdW6>
-3.552

> <VdW12>
3.807

> <Bond>
0.125

> <Angle>
0.616

> <Pdih>
0.521

> <Idih>
0.000

> <Tether>
0.000

$$$$
VeraChem MOL file


 17 16  0  0  0  0  0  0  0  0999 V2000     
   21.1187   21.2504   22.2685 N   0  3  0  0  0  0  0  0  0  0  0  0
   20.2755   21.7805   22.5086 H   0  0  0  0  0  0  0  0  0  0  0  0
   21.3999   21.5428   21.3277 H   0  0  0  0  0  0  0  0  0  0  0  0
   21.8566   21.5618   22.9084 H   0  0  0  0  0  0  0  0  0  0  0  0
   20.8926   19.7541   22.3544 C   0  0  0  0  0  0  0  0  0  0  0  0
   20.6274   19.5115   23.3870 H   0  0  0  0  0  0  0  0  0  0  0  0
   21.8366   19.2559   22.1171 H   0  0  0  0  0  0  0  0  0  0  0  0
   19.7896   19.2517   21.4052 C   0  0  0  0  0  0  0  0  0  0  0  0
   18.8469   19.7655   21.6362 H   0  0  0  0  0  0  0  0  0  0  0  0
   20.0519   19.5106   20.3707 H   0  0  0  0  0  0  0  0  0  0  0  0
   19.5915   17.7246   21.5241 C   0  0  0  0  0  0  0  0  0  0  0  0
   19.3321   17.4644   22.5601 H   0  0  0  0  0  0  0  0  0  0  0  0
   20.5357   17.2099   21.2961 H   0  0  0  0  0  0  0  0  0  0  0  0
   18.4864   17.2133   20.5748 C   0  0  0  0  0  0  0  0  0  0  0  0
   18.3613   16.1273   20.6745 H   0  0  0  0  0  0  0  0  0  0  0  0
   18.7344   17.4285   19.5272 H   0  0  0  0  0  0  0  0  0  0  0  0
   17.5213   17.6851   20.8012 H   0  0  0  0  0  0  0  0  0  0  0  0
  1  2  1  0  0  0  0
  1  3  1  0  0  0  0
  1  4  1  0  0  0  0
  1  5  1  0  0  0  0
  5  6  1  0  0  0  0
  5  7  1  0  0  0  0
  5  8  1  0  0  0  0
  8  9  1  0  0  0  0
  8 10  1  0  0  0  0
  8 11  1  0  0  0  0
 11 12  1  0  0  0  0
 11 13  1  0  0  0  0
 11 14  1  0  0  0  0
 14 15  1  0  0  0  0
 14 16  1  0  0  0  0
 14 17  1  0  0  0  0
M  END
> <VConfSearch Rank>
937

> <Conf_Id>
7

> <Delta U+W>
0.000

> <U+W>
-15.865

> <U>
44.664

> <W>
-60.529

> <W(PB)>
-62.309

> <W(SA)>
1.780

> <Valence>
0.872

> <Coulomb>
43.648

> <VdW>
0.144

> <VdW6>
-2.370

> <VdW12>
2.515

> <Bond>
0.080

> <Angle>
0.376

> <Pdih>
0.416

> <Idih>
0.000

> <Tether>
0.000

$$$$
VeraChem MOL file


 17 16  0  0  0  0  0  0  0  0999 V2000     
   19.5530   20.1105   23.7785 N   0  3  0  0  0  0  0  0  0  0  0  0
   18.9665   19.4841   24.3381 H   0  0  0  0  0  0  0  0  0  0  0  0
   18.9565   20.8834   23.4678 H   0  0  0  0  0  0  0  0  0  0  0  0
   20.2498   20.5111   24.4148 H   0  0  0  0  0  0  0  0  0  0  0  0
   20.2018   19.3904   22.6131 C   0  0  0  0  0  0  0  0  0  0  0  0
   20.8434   18.6028   23.0174 H   0  0  0  0  0  0  0  0  0  0  0  0
   20.8330   20.1089   22.0838 H   0  0  0  0  0  0  0  0  0  0  0  0
   19.1815   18.7759   21.6357 C   0  0  0  0  0  0  0  0  0  0  0  0
   18.5271   18.0862   22.1853 H   0  0  0  0  0  0  0  0  0  0  0  0
   18.5361   19.5667   21.2309 H   0  0  0  0  0  0  0  0  0  0  0  0
   19.8557   18.0108   20.4729 C   0  0  0  0  0  0  0  0  0  0  0  0
   19.0775   17.5322   19.8619 H   0  0  0  0  0  0  0  0  0  0  0  0
   20.4761   17.1975   20.8751 H   0  0  0  0  0  0  0  0  0  0  0  0
   20.7169   18.9223   19.5687 C   0  0  0  0  0  0  0  0  0  0  0  0
   20.1212   19.7480   19.1582 H   0  0  0  0  0  0  0  0  0  0  0  0
   21.1250   18.3519   18.7243 H   0  0  0  0  0  0  0  0  0  0  0  0
   21.5642   19.3512   20.1184 H   0  0  0  0  0  0  0  0  0  0  0  0
  1  2  1  0  0  0  0
  1  3  1  0  0  0  0
  1  4  1  0  0  0  0
  1  5  1  0  0  0  0
  5  6  1  0  0  0  0
  5  7  1  0  0  0  0
  5  8  1  0  0  0  0
  8  9  1  0  0  0  0
  8 10  1  0  0  0  0
  8 11  1  0  0  0  0
 11 12  1  0  0  0  0
 11 13  1  0  0  0  0
 11 14  1  0  0  0  0
 14 15  1  0  0  0  0
 14 16  1  0  0  0  0
 14 17  1  0  0  0  0
M  END
> <VConfSearch Rank>
938

> <Conf_Id>
36

> <Delta U+W>
0.275

> <U+W>
-15.590

> <U>
45.174

> <W>
-60.765

> <W(PB)>
-62.518

> <W(SA)>
1.754

> <Valence>
1.161

> <Coulomb>
43.789

> <VdW>
0.224

> <VdW6>
-2.897

> <VdW12>
3.121

> <Bond>
0.100

> <Angle>
0.500

> <Pdih>
0.561

> <Idih>
0.000

> <Tether>
0.000

$$$$
VeraChem MOL file


 17 16  0  0  0  0  0  0  0  0999 V2000     
   18.3850   19.2687   22.5827 N   0  3  0  0  0  0  0  0  0  0  0  0
   18.4043   18.3287   22.1792 H   0  0  0  0  0  0  0  0  0  0  0  0
   17.7748   19.8389   21.9894 H   0  0  0  0  0  0  0  0  0  0  0  0
   17.9271   19.1961   23.4970 H   0  0  0  0  0  0  0  0  0  0  0  0
   19.7765   19.8614   22.6942 C   0  0  0  0  0  0  0  0  0  0  0  0
   20.3597   19.2522   23.3900 H   0  0  0  0  0  0  0  0  0  0  0  0
   19.6656   20.8584   23.1293 H   0  0  0  0  0  0  0  0  0  0  0  0
   20.5252   19.9800   21.3499 C   0  0  0  0  0  0  0  0  0  0  0  0
   19.8497   20.3700   20.5770 H   0  0  0  0  0  0  0  0  0  0  0  0
   21.3127   20.7357   21.4707 H   0  0  0  0  0  0  0  0  0  0  0  0
   21.1943   18.6672   20.8688 C   0  0  0  0  0  0  0  0  0  0  0  0
   21.9144   18.3213   21.6236 H   0  0  0  0  0  0  0  0  0  0  0  0
   21.7822   18.8888   19.9670 H   0  0  0  0  0  0  0  0  0  0  0  0
   20.2030   17.5272   20.5422 C   0  0  0  0  0  0  0  0  0  0  0  0
   19.7390   17.1250   21.4502 H   0  0  0  0  0  0  0  0  0  0  0  0
   20.7271   16.6959   20.0528 H   0  0  0  0  0  0  0  0  0  0  0  0
   19.4125   17.8691   19.8614 H   0  0  0  0  0  0  0  0  0  0  0  0
  1  2  1  0  0  0  0
  1  3  1  0  0  0  0
  1  4  1  0  0  0  0
  1  5  1  0  0  0  0
  5  6  1  0  0  0  0
  5  7  1  0  0  0  0
  5  8  1  0  0  0  0
  8  9  1  0  0  0  0
  8 10  1  0  0  0  0
  8 11  1  0  0  0  0
 11 12  1  0  0  0  0
 11 13  1  0  0  0  0
 11 14  1  0  0  0  0
 14 15  1  0  0  0  0
 14 16  1  0  0  0  0
 14 17  1  0  0  0  0
M  END
> <VConfSearch Rank>
939

> <Conf_Id>
19

> <Delta U+W>
2.662

> <U+W>
-13.203

> <U>
47.423

> <W>
-60.626

> <W(PB)>
-62.328

> <W(SA)>
1.702

> <Valence>
2.414

> <Coulomb>
44.831

> <VdW>
0.178

> <VdW6>
-3.743

> <VdW12>
3.921

> <Bond>
0.138

> <Angle>
0.941

> <Pdih>
1.335

> <Idih>
0.000

> <Tether>
0.000

$$$$
VeraChem MOL file


 17 16  0  0  0  0  0  0  0  0999 V2000     
   19.0271   20.4438   22.5038 N   0  3  0  0  0  0  0  0  0  0  0  0
   18.1835   21.0209   22.5814 H   0  0  0  0  0  0  0  0  0  0  0  0
   19.7434   20.8846   23.0887 H   0  0  0  0  0  0  0  0  0  0  0  0
   18.8117   19.5363   22.9244 H   0  0  0  0  0  0  0  0  0  0  0  0
   19.4835   20.3022   21.0645 C   0  0  0  0  0  0  0  0  0  0  0  0
   19.6930   21.3097   20.6949 H   0  0  0  0  0  0  0  0  0  0  0  0
   18.6584   19.8916   20.4764 H   0  0  0  0  0  0  0  0  0  0  0  0
   20.7417   19.4276   20.8810 C   0  0  0  0  0  0  0  0  0  0  0  0
   21.1962   19.6929   19.9172 H   0  0  0  0  0  0  0  0  0  0  0  0
   21.4887   19.6791   21.6456 H   0  0  0  0  0  0  0  0  0  0  0  0
   20.4686   17.9018   20.8753 C   0  0  0  0  0  0  0  0  0  0  0  0
   21.4072   17.3832   20.6343 H   0  0  0  0  0  0  0  0  0  0  0  0
   19.7683   17.6548   20.0650 H   0  0  0  0  0  0  0  0  0  0  0  0
   19.9274   17.3445   22.2114 C   0  0  0  0  0  0  0  0  0  0  0  0
   20.5554   17.6551   23.0565 H   0  0  0  0  0  0  0  0  0  0  0  0
   19.9176   16.2469   22.1898 H   0  0  0  0  0  0  0  0  0  0  0  0
   18.8976   17.6718   22.3963 H   0  0  0  0  0  0  0  0  0  0  0  0
  1  2  1  0  0  0  0
  1  3  1  0  0  0  0
  1  4  1  0  0  0  0
  1  5  1  0  0  0  0
  5  6  1  0  0  0  0
  5  7  1  0  0  0  0
  5  8  1  0  0  0  0
  8  9  1  0  0  0  0
  8 10  1  0  0  0  0
  8 11  1  0  0  0  0
 11 12  1  0  0  0  0
 11 13  1  0  0  0  0
 11 14  1  0  0  0  0
 14 15  1  0  0  0  0
 14 16  1  0  0  0  0
 14 17  1  0  0  0  0
M  END
> <VConfSearch Rank>
940

> <Conf_Id>
44

> <Delta U+W>
2.712

> <U+W>
-13.153

> <U>
47.423

> <W>
-60.576

> <W(PB)>
-62.262

> <W(SA)>
1.687

> <Valence>
2.414

> <Coulomb>
44.831

> <VdW>
0.178

> <VdW6>
-3.743

> <VdW12>
3.922

> <Bond>
0.138

> <Angle>
0.941

> <Pdih>
1.335

> <Idih>
0.000

> <Tether>
0.000

$$$$
VeraChem MOL file


 17 16  0  0  0  0  0  0  0  0999 V2000     
   18.9828   17.2875   21.6537 N   0  3  0  0  0  0  0  0  0  0  0  0
   18.6611   17.7747   20.8125 H   0  0  0  0  0  0  0  0  0  0  0  0
   18.2079   17.2959   22.3236 H   0  0  0  0  0  0  0  0  0  0  0  0
   19.1390   16.3090   21.3914 H   0  0  0  0  0  0  0  0  0  0  0  0
   20.2339   17.9241   22.2277 C   0  0  0  0  0  0  0  0  0  0  0  0
   21.0250   17.8553   21.4765 H   0  0  0  0  0  0  0  0  0  0  0  0
   20.5398   17.3335   23.0955 H   0  0  0  0  0  0  0  0  0  0  0  0
   20.0456   19.3954   22.6517 C   0  0  0  0  0  0  0  0  0  0  0  0
   19.2780   19.4492   23.4351 H   0  0  0  0  0  0  0  0  0  0  0  0
   20.9773   19.7503   23.1119 H   0  0  0  0  0  0  0  0  0  0  0  0
   19.6596   20.3420   21.4879 C   0  0  0  0  0  0  0  0  0  0  0  0
   19.5335   21.3587   21.8858 H   0  0  0  0  0  0  0  0  0  0  0  0
   18.6827   20.0547   21.0757 H   0  0  0  0  0  0  0  0  0  0  0  0
   20.7133   20.3723   20.3572 C   0  0  0  0  0  0  0  0  0  0  0  0
   21.6997   20.6584   20.7447 H   0  0  0  0  0  0  0  0  0  0  0  0
   20.4314   21.1027   19.5877 H   0  0  0  0  0  0  0  0  0  0  0  0
   20.8080   19.3952   19.8670 H   0  0  0  0  0  0  0  0  0  0  0  0
  1  2  1  0  0  0  0
  1  3  1  0  0  0  0
  1  4  1  0  0  0  0
  1  5  1  0  0  0  0
  5  6  1  0  0  0  0
  5  7  1  0  0  0  0
  5  8  1  0  0  0  0
  8  9  1  0  0  0  0
  8 10  1  0  0  0  0
  8 11  1  0  0  0  0
 11 12  1  0  0  0  0
 11 13  1  0  0  0  0
 11 14  1  0  0  0  0
 14 15  1  0  0  0  0
 14 16  1  0  0  0  0
 14 17  1  0  0  0  0
M  END
> <VConfSearch Rank>
941

> <Conf_Id>
1

> <Delta U+W>
0.685

> <U+W>
-15.179

> <U>
45.697

> <W>
-60.876

> <W(PB)>
-62.586

> <W(SA)>
1.710

> <Valence>
1.263

> <Coulomb>
44.179

> <VdW>
0.255

> <VdW6>
-3.552

> <VdW12>
3.807

> <Bond>
0.125

> <Angle>
0.616

> <Pdih>
0.521

> <Idih>
0.000

> <Tether>
0.000

$$$$
VeraChem MOL file


 17 16  0  0  0  0  0  0  0  0999 V2000     
   19.9793   18.8773   19.6196 N   0  3  0  0  0  0  0  0  0  0  0  0
   19.1760   18.3525   19.2610 H   0  0  0  0  0  0  0  0  0  0  0  0
   20.6451   18.1944   19.9923 H   0  0  0  0  0  0  0  0  0  0  0  0
   20.4279   19.3229   18.8128 H   0  0  0  0  0  0  0  0  0  0  0  0
   19.5692   19.8925   20.6688 C   0  0  0  0  0  0  0  0  0  0  0  0
   18.8919   20.6074   20.1937 H   0  0  0  0  0  0  0  0  0  0  0  0
   20.4643   20.4343   20.9852 H   0  0  0  0  0  0  0  0  0  0  0  0
   18.8752   19.2713   21.8987 C   0  0  0  0  0  0  0  0  0  0  0  0
   18.5584   20.0810   22.5694 H   0  0  0  0  0  0  0  0  0  0  0  0
   17.9561   18.7644   21.5761 H   0  0  0  0  0  0  0  0  0  0  0  0
   19.7623   18.2752   22.6864 C   0  0  0  0  0  0  0  0  0  0  0  0
   20.0124   17.4116   22.0552 H   0  0  0  0  0  0  0  0  0  0  0  0
   19.1824   17.8760   23.5303 H   0  0  0  0  0  0  0  0  0  0  0  0
   21.0600   18.9174   23.2279 C   0  0  0  0  0  0  0  0  0  0  0  0
   21.6236   18.1953   23.8327 H   0  0  0  0  0  0  0  0  0  0  0  0
   20.8359   19.7838   23.8638 H   0  0  0  0  0  0  0  0  0  0  0  0
   21.7160   19.2506   22.4139 H   0  0  0  0  0  0  0  0  0  0  0  0
  1  2  1  0  0  0  0
  1  3  1  0  0  0  0
  1  4  1  0  0  0  0
  1  5  1  0  0  0  0
  5  6  1  0  0  0  0
  5  7  1  0  0  0  0
  5  8  1  0  0  0  0
  8  9  1  0  0  0  0
  8 10  1  0  0  0  0
  8 11  1  0  0  0  0
 11 12  1  0  0  0  0
 11 13  1  0  0  0  0
 11 14  1  0  0  0  0
 14 15  1  0  0  0  0
 14 16  1  0  0  0  0
 14 17  1  0  0  0  0
M  END
> <VConfSearch Rank>
942

> <Conf_Id>
43

> <Delta U+W>
0.642

> <U+W>
-15.222

> <U>
45.697

> <W>
-60.919

> <W(PB)>
-62.631

> <W(SA)>
1.712

> <Valence>
1.262

> <Coulomb>
44.179

> <VdW>
0.255

> <VdW6>
-3.552

> <VdW12>
3.807

> <Bond>
0.125

> <Angle>
0.616

> <Pdih>
0.521

> <Idih>
0.000

> <Tether>
0.000

$$$$
VeraChem MOL file


 17 16  0  0  0  0  0  0  0  0999 V2000     
   21.1637   16.8169   21.9093 N   0  3  0  0  0  0  0  0  0  0  0  0
   22.0981   17.1934   22.0960 H   0  0  0  0  0  0  0  0  0  0  0  0
   21.1485   16.5229   20.9280 H   0  0  0  0  0  0  0  0  0  0  0  0
   21.0684   15.9671   22.4747 H   0  0  0  0  0  0  0  0  0  0  0  0
   20.0736   17.8239   22.2174 C   0  0  0  0  0  0  0  0  0  0  0  0
   20.1299   18.0674   23.2818 H   0  0  0  0  0  0  0  0  0  0  0  0
   19.1088   17.3463   22.0259 H   0  0  0  0  0  0  0  0  0  0  0  0
   20.1865   19.1140   21.3849 C   0  0  0  0  0  0  0  0  0  0  0  0
   21.1626   19.5827   21.5679 H   0  0  0  0  0  0  0  0  0  0  0  0
   20.1449   18.8641   20.3163 H   0  0  0  0  0  0  0  0  0  0  0  0
   19.0587   20.1115   21.7292 C   0  0  0  0  0  0  0  0  0  0  0  0
   19.0977   20.3595   22.7994 H   0  0  0  0  0  0  0  0  0  0  0  0
   18.0812   19.6418   21.5493 H   0  0  0  0  0  0  0  0  0  0  0  0
   19.1655   21.4082   20.8980 C   0  0  0  0  0  0  0  0  0  0  0  0
   18.3561   22.1030   21.1573 H   0  0  0  0  0  0  0  0  0  0  0  0
   19.0949   21.1958   19.8232 H   0  0  0  0  0  0  0  0  0  0  0  0
   20.1194   21.9191   21.0832 H   0  0  0  0  0  0  0  0  0  0  0  0
  1  2  1  0  0  0  0
  1  3  1  0  0  0  0
  1  4  1  0  0  0  0
  1  5  1  0  0  0  0
  5  6  1  0  0  0  0
  5  7  1  0  0  0  0
  5  8  1  0  0  0  0
  8  9  1  0  0  0  0
  8 10  1  0  0  0  0
  8 11  1  0  0  0  0
 11 12  1  0  0  0  0
 11 13  1  0  0  0  0
 11 14  1  0  0  0  0
 14 15  1  0  0  0  0
 14 16  1  0  0  0  0
 14 17  1  0  0  0  0
M  END
> <VConfSearch Rank>
943

> <Conf_Id>
7

> <Delta U+W>
0.000

> <U+W>
-15.865

> <U>
44.664

> <W>
-60.529

> <W(PB)>
-62.309

> <W(SA)>
1.780

> <Valence>
0.872

> <Coulomb>
43.648

> <VdW>
0.144

> <VdW6>
-2.370

> <VdW12>
2.515

> <Bond>
0.080

> <Angle>
0.376

> <Pdih>
0.416

> <Idih>
0.000

> <Tether>
0.000

$$$$
VeraChem MOL file


 17 16  0  0  0  0  0  0  0  0999 V2000     
   21.6086   17.4029   21.9920 N   0  3  0  0  0  0  0  0  0  0  0  0
   22.1836   17.6810   22.7930 H   0  0  0  0  0  0  0  0  0  0  0  0
   22.1659   17.5713   21.1489 H   0  0  0  0  0  0  0  0  0  0  0  0
   21.4749   16.3889   22.0612 H   0  0  0  0  0  0  0  0  0  0  0  0
   20.2873   18.1447   21.9566 C   0  0  0  0  0  0  0  0  0  0  0  0
   19.7357   17.8961   22.8673 H   0  0  0  0  0  0  0  0  0  0  0  0
   19.7180   17.7759   21.0995 H   0  0  0  0  0  0  0  0  0  0  0  0
   20.4521   19.6730   21.8523 C   0  0  0  0  0  0  0  0  0  0  0  0
   21.0589   20.0279   22.6960 H   0  0  0  0  0  0  0  0  0  0  0  0
   21.0075   19.9225   20.9385 H   0  0  0  0  0  0  0  0  0  0  0  0
   19.0982   20.4206   21.8567 C   0  0  0  0  0  0  0  0  0  0  0  0
   19.2882   21.5032   21.8617 H   0  0  0  0  0  0  0  0  0  0  0  0
   18.5553   20.1982   22.7863 H   0  0  0  0  0  0  0  0  0  0  0  0
   18.2105   20.0702   20.6405 C   0  0  0  0  0  0  0  0  0  0  0  0
   18.7326   20.2778   19.6974 H   0  0  0  0  0  0  0  0  0  0  0  0
   17.2893   20.6672   20.6516 H   0  0  0  0  0  0  0  0  0  0  0  0
   17.9189   19.0123   20.6453 H   0  0  0  0  0  0  0  0  0  0  0  0
  1  2  1  0  0  0  0
  1  3  1  0  0  0  0
  1  4  1  0  0  0  0
  1  5  1  0  0  0  0
  5  6  1  0  0  0  0
  5  7  1  0  0  0  0
  5  8  1  0  0  0  0
  8  9  1  0  0  0  0
  8 10  1  0  0  0  0
  8 11  1  0  0  0  0
 11 12  1  0  0  0  0
 11 13  1  0  0  0  0
 11 14  1  0  0  0  0
 14 15  1  0  0  0  0
 14 16  1  0  0  0  0
 14 17  1  0  0  0  0
M  END
> <VConfSearch Rank>
944

> <Conf_Id>
36

> <Delta U+W>
0.275

> <U+W>
-15.590

> <U>
45.174

> <W>
-60.765

> <W(PB)>
-62.518

> <W(SA)>
1.754

> <Valence>
1.161

> <Coulomb>
43.789

> <VdW>
0.224

> <VdW6>
-2.897

> <VdW12>
3.121

> <Bond>
0.100

> <Angle>
0.500

> <Pdih>
0.561

> <Idih>
0.000

> <Tether>
0.000

$$$$
VeraChem MOL file


 17 16  0  0  0  0  0  0  0  0999 V2000     
   18.5492   18.7991   20.3809 N   0  3  0  0  0  0  0  0  0  0  0  0
   18.7069   17.9321   20.9009 H   0  0  0  0  0  0  0  0  0  0  0  0
   18.9916   18.6852   19.4640 H   0  0  0  0  0  0  0  0  0  0  0  0
   17.5401   18.8742   20.2169 H   0  0  0  0  0  0  0  0  0  0  0  0
   19.0915   20.0059   21.1223 C   0  0  0  0  0  0  0  0  0  0  0  0
   18.5379   20.1170   22.0585 H   0  0  0  0  0  0  0  0  0  0  0  0
   18.8848   20.8820   20.5016 H   0  0  0  0  0  0  0  0  0  0  0  0
   20.6055   19.9430   21.4150 C   0  0  0  0  0  0  0  0  0  0  0  0
   21.1451   19.5870   20.5275 H   0  0  0  0  0  0  0  0  0  0  0  0
   20.9558   20.9691   21.5890 H   0  0  0  0  0  0  0  0  0  0  0  0
   20.9858   19.0931   22.6542 C   0  0  0  0  0  0  0  0  0  0  0  0
   20.4888   19.4983   23.5469 H   0  0  0  0  0  0  0  0  0  0  0  0
   22.0650   19.2029   22.8312 H   0  0  0  0  0  0  0  0  0  0  0  0
   20.6595   17.5882   22.5216 C   0  0  0  0  0  0  0  0  0  0  0  0
   19.5789   17.4066   22.5517 H   0  0  0  0  0  0  0  0  0  0  0  0
   21.1037   17.0277   23.3544 H   0  0  0  0  0  0  0  0  0  0  0  0
   21.0630   17.1735   21.5886 H   0  0  0  0  0  0  0  0  0  0  0  0
  1  2  1  0  0  0  0
  1  3  1  0  0  0  0
  1  4  1  0  0  0  0
  1  5  1  0  0  0  0
  5  6  1  0  0  0  0
  5  7  1  0  0  0  0
  5  8  1  0  0  0  0
  8  9  1  0  0  0  0
  8 10  1  0  0  0  0
  8 11  1  0  0  0  0
 11 12  1  0  0  0  0
 11 13  1  0  0  0  0
 11 14  1  0  0  0  0
 14 15  1  0  0  0  0
 14 16  1  0  0  0  0
 14 17  1  0  0  0  0
M  END
> <VConfSearch Rank>
945

> <Conf_Id>
19

> <Delta U+W>
2.662

> <U+W>
-13.203

> <U>
47.423

> <W>
-60.626

> <W(PB)>
-62.328

> <W(SA)>
1.702

> <Valence>
2.414

> <Coulomb>
44.831

> <VdW>
0.178

> <VdW6>
-3.743

> <VdW12>
3.921

> <Bond>
0.138

> <Angle>
0.941

> <Pdih>
1.335

> <Idih>
0.000

> <Tether>
0.000

$$$$
VeraChem MOL file


 17 16  0  0  0  0  0  0  0  0999 V2000     
   19.1947   17.3343   21.5636 N   0  3  0  0  0  0  0  0  0  0  0  0
   18.6651   16.6146   22.0659 H   0  0  0  0  0  0  0  0  0  0  0  0
   19.6241   16.8764   20.7540 H   0  0  0  0  0  0  0  0  0  0  0  0
   18.5173   18.0108   21.2025 H   0  0  0  0  0  0  0  0  0  0  0  0
   20.2308   17.9956   22.4520 C   0  0  0  0  0  0  0  0  0  0  0  0
   20.9107   17.2091   22.7905 H   0  0  0  0  0  0  0  0  0  0  0  0
   19.7253   18.4062   23.3302 H   0  0  0  0  0  0  0  0  0  0  0  0
   21.0498   19.1028   21.7556 C   0  0  0  0  0  0  0  0  0  0  0  0
   21.9805   19.2377   22.3226 H   0  0  0  0  0  0  0  0  0  0  0  0
   21.3530   18.7718   20.7535 H   0  0  0  0  0  0  0  0  0  0  0  0
   20.3366   20.4768   21.6768 C   0  0  0  0  0  0  0  0  0  0  0  0
   21.0428   21.2100   21.2626 H   0  0  0  0  0  0  0  0  0  0  0  0
   20.0951   20.8266   22.6904 H   0  0  0  0  0  0  0  0  0  0  0  0
   19.0562   20.4833   20.8111 C   0  0  0  0  0  0  0  0  0  0  0  0
   19.2429   20.0500   19.8198 H   0  0  0  0  0  0  0  0  0  0  0  0
   18.7020   21.5119   20.6634 H   0  0  0  0  0  0  0  0  0  0  0  0
   18.2422   19.9288   21.2924 H   0  0  0  0  0  0  0  0  0  0  0  0
  1  2  1  0  0  0  0
  1  3  1  0  0  0  0
  1  4  1  0  0  0  0
  1  5  1  0  0  0  0
  5  6  1  0  0  0  0
  5  7  1  0  0  0  0
  5  8  1  0  0  0  0
  8  9  1  0  0  0  0
  8 10  1  0  0  0  0
  8 11  1  0  0  0  0
 11 12  1  0  0  0  0
 11 13  1  0  0  0  0
 11 14  1  0  0  0  0
 14 15  1  0  0  0  0
 14 16  1  0  0  0  0
 14 17  1  0  0  0  0
M  END
> <VConfSearch Rank>
946

> <Conf_Id>
44

> <Delta U+W>
2.712

> <U+W>
-13.153

> <U>
47.423

> <W>
-60.576

> <W(PB)>
-62.262

> <W(SA)>
1.687

> <Valence>
2.414

> <Coulomb>
44.831

> <VdW>
0.178

> <VdW6>
-3.743

> <VdW12>
3.922

> <Bond>
0.138

> <Angle>
0.941

> <Pdih>
1.335

> <Idih>
0.000

> <Tether>
0.000

$$$$
VeraChem MOL file


 17 16  0  0  0  0  0  0  0  0999 V2000     
   20.7146   17.4543   22.4947 N   0  3  0  0  0  0  0  0  0  0  0  0
   21.0421   17.4478   21.5245 H   0  0  0  0  0  0  0  0  0  0  0  0
   20.0340   16.6946   22.5897 H   0  0  0  0  0  0  0  0  0  0  0  0
   21.5175   17.2099   23.0831 H   0  0  0  0  0  0  0  0  0  0  0  0
   20.1218   18.7963   22.8785 C   0  0  0  0  0  0  0  0  0  0  0  0
   20.9048   19.5531   22.7834 H   0  0  0  0  0  0  0  0  0  0  0  0
   19.8299   18.7426   23.9309 H   0  0  0  0  0  0  0  0  0  0  0  0
   18.8995   19.2029   22.0297 C   0  0  0  0  0  0  0  0  0  0  0  0
   18.1038   18.4582   22.1637 H   0  0  0  0  0  0  0  0  0  0  0  0
   18.5009   20.1493   22.4186 H   0  0  0  0  0  0  0  0  0  0  0  0
   19.2059   19.3617   20.5195 C   0  0  0  0  0  0  0  0  0  0  0  0
   18.2787   19.6364   19.9974 H   0  0  0  0  0  0  0  0  0  0  0  0
   19.5189   18.3984   20.0945 H   0  0  0  0  0  0  0  0  0  0  0  0
   20.2819   20.4331   20.2294 C   0  0  0  0  0  0  0  0  0  0  0  0
   19.9910   21.4069   20.6442 H   0  0  0  0  0  0  0  0  0  0  0  0
   20.4192   20.5577   19.1475 H   0  0  0  0  0  0  0  0  0  0  0  0
   21.2538   20.1554   20.6564 H   0  0  0  0  0  0  0  0  0  0  0  0
  1  2  1  0  0  0  0
  1  3  1  0  0  0  0
  1  4  1  0  0  0  0
  1  5  1  0  0  0  0
  5  6  1  0  0  0  0
  5  7  1  0  0  0  0
  5  8  1  0  0  0  0
  8  9  1  0  0  0  0
  8 10  1  0  0  0  0
  8 11  1  0  0  0  0
 11 12  1  0  0  0  0
 11 13  1  0  0  0  0
 11 14  1  0  0  0  0
 14 15  1  0  0  0  0
 14 16  1  0  0  0  0
 14 17  1  0  0  0  0
M  END
> <VConfSearch Rank>
947

> <Conf_Id>
1

> <Delta U+W>
0.685

> <U+W>
-15.179

> <U>
45.697

> <W>
-60.876

> <W(PB)>
-62.586

> <W(SA)>
1.710

> <Valence>
1.263

> <Coulomb>
44.179

> <VdW>
0.255

> <VdW6>
-3.552

> <VdW12>
3.807

> <Bond>
0.125

> <Angle>
0.616

> <Pdih>
0.521

> <Idih>
0.000

> <Tether>
0.000

$$$$
VeraChem MOL file


 17 16  0  0  0  0  0  0  0  0999 V2000     
   18.2578   18.2530   20.8508 N   0  3  0  0  0  0  0  0  0  0  0  0
   17.7389   18.9402   20.2959 H   0  0  0  0  0  0  0  0  0  0  0  0
   18.0768   18.4613   21.8368 H   0  0  0  0  0  0  0  0  0  0  0  0
   17.8401   17.3373   20.6568 H   0  0  0  0  0  0  0  0  0  0  0  0
   19.7410   18.2746   20.5352 C   0  0  0  0  0  0  0  0  0  0  0  0
   19.8611   18.0082   19.4815 H   0  0  0  0  0  0  0  0  0  0  0  0
   20.2273   17.5020   21.1364 H   0  0  0  0  0  0  0  0  0  0  0  0
   20.4136   19.6380   20.7972 C   0  0  0  0  0  0  0  0  0  0  0  0
   21.4637   19.5780   20.4815 H   0  0  0  0  0  0  0  0  0  0  0  0
   19.9457   20.3993   20.1590 H   0  0  0  0  0  0  0  0  0  0  0  0
   20.3516   20.0974   22.2752 C   0  0  0  0  0  0  0  0  0  0  0  0
   19.3073   20.2510   22.5794 H   0  0  0  0  0  0  0  0  0  0  0  0
   20.8399   21.0783   22.3616 H   0  0  0  0  0  0  0  0  0  0  0  0
   21.0365   19.1083   23.2460 C   0  0  0  0  0  0  0  0  0  0  0  0
   21.0263   19.5043   24.2697 H   0  0  0  0  0  0  0  0  0  0  0  0
   22.0836   18.9390   22.9631 H   0  0  0  0  0  0  0  0  0  0  0  0
   20.5247   18.1379   23.2616 H   0  0  0  0  0  0  0  0  0  0  0  0
  1  2  1  0  0  0  0
  1  3  1  0  0  0  0
  1  4  1  0  0  0  0
  1  5  1  0  0  0  0
  5  6  1  0  0  0  0
  5  7  1  0  0  0  0
  5  8  1  0  0  0  0
  8  9  1  0  0  0  0
  8 10  1  0  0  0  0
  8 11  1  0  0  0  0
 11 12  1  0  0  0  0
 11 13  1  0  0  0  0
 11 14  1  0  0  0  0
 14 15  1  0  0  0  0
 14 16  1  0  0  0  0
 14 17  1  0  0  0  0
M  END
> <VConfSearch Rank>
948

> <Conf_Id>
43

> <Delta U+W>
0.642

> <U+W>
-15.222

> <U>
45.697

> <W>
-60.919

> <W(PB)>
-62.631

> <W(SA)>
1.712

> <Valence>
1.262

> <Coulomb>
44.179

> <VdW>
0.255

> <VdW6>
-3.552

> <VdW12>
3.807

> <Bond>
0.125

> <Angle>
0.616

> <Pdih>
0.521

> <Idih>
0.000

> <Tether>
0.000

$$$$
VeraChem MOL file


 17 16  0  0  0  0  0  0  0  0999 V2000     
   19.6459   18.0106   19.2812 N   0  3  0  0  0  0  0  0  0  0  0  0
   19.2896   18.8447   18.8048 H   0  0  0  0  0  0  0  0  0  0  0  0
   18.8364   17.4249   19.5079 H   0  0  0  0  0  0  0  0  0  0  0  0
   20.2033   17.4925   18.5944 H   0  0  0  0  0  0  0  0  0  0  0  0
   20.4551   18.3625   20.5136 C   0  0  0  0  0  0  0  0  0  0  0  0
   21.3144   18.9585   20.1943 H   0  0  0  0  0  0  0  0  0  0  0  0
   20.8271   17.4318   20.9503 H   0  0  0  0  0  0  0  0  0  0  0  0
   19.6477   19.1421   21.5674 C   0  0  0  0  0  0  0  0  0  0  0  0
   19.2627   20.0686   21.1208 H   0  0  0  0  0  0  0  0  0  0  0  0
   18.7772   18.5471   21.8743 H   0  0  0  0  0  0  0  0  0  0  0  0
   20.5081   19.4803   22.8046 C   0  0  0  0  0  0  0  0  0  0  0  0
   21.3813   20.0732   22.4976 H   0  0  0  0  0  0  0  0  0  0  0  0
   20.8963   18.5535   23.2502 H   0  0  0  0  0  0  0  0  0  0  0  0
   19.7047   20.2625   23.8661 C   0  0  0  0  0  0  0  0  0  0  0  0
   20.3332   20.4929   24.7362 H   0  0  0  0  0  0  0  0  0  0  0  0
   18.8433   19.6802   24.2184 H   0  0  0  0  0  0  0  0  0  0  0  0
   19.3321   21.2118   23.4597 H   0  0  0  0  0  0  0  0  0  0  0  0
  1  2  1  0  0  0  0
  1  3  1  0  0  0  0
  1  4  1  0  0  0  0
  1  5  1  0  0  0  0
  5  6  1  0  0  0  0
  5  7  1  0  0  0  0
  5  8  1  0  0  0  0
  8  9  1  0  0  0  0
  8 10  1  0  0  0  0
  8 11  1  0  0  0  0
 11 12  1  0  0  0  0
 11 13  1  0  0  0  0
 11 14  1  0  0  0  0
 14 15  1  0  0  0  0
 14 16  1  0  0  0  0
 14 17  1  0  0  0  0
M  END
> <VConfSearch Rank>
949

> <Conf_Id>
7

> <Delta U+W>
0.000

> <U+W>
-15.865

> <U>
44.664

> <W>
-60.529

> <W(PB)>
-62.309

> <W(SA)>
1.780

> <Valence>
0.872

> <Coulomb>
43.648

> <VdW>
0.144

> <VdW6>
-2.370

> <VdW12>
2.515

> <Bond>
0.080

> <Angle>
0.376

> <Pdih>
0.416

> <Idih>
0.000

> <Tether>
0.000

$$$$
VeraChem MOL file


 17 16  0  0  0  0  0  0  0  0999 V2000     
   18.5882   17.8526   20.0439 N   0  3  0  0  0  0  0  0  0  0  0  0
   19.1000   17.7853   19.1589 H   0  0  0  0  0  0  0  0  0  0  0  0
   17.8476   18.5479   19.9109 H   0  0  0  0  0  0  0  0  0  0  0  0
   18.1247   16.9496   20.1874 H   0  0  0  0  0  0  0  0  0  0  0  0
   19.4998   18.2086   21.2014 C   0  0  0  0  0  0  0  0  0  0  0  0
   20.2427   17.4129   21.3035 H   0  0  0  0  0  0  0  0  0  0  0  0
   18.8943   18.2312   22.1111 H   0  0  0  0  0  0  0  0  0  0  0  0
   20.2131   19.5619   21.0179 C   0  0  0  0  0  0  0  0  0  0  0  0
   20.7862   19.5426   20.0814 H   0  0  0  0  0  0  0  0  0  0  0  0
   19.4669   20.3608   20.9136 H   0  0  0  0  0  0  0  0  0  0  0  0
   21.1698   19.8952   22.1865 C   0  0  0  0  0  0  0  0  0  0  0  0
   21.7034   20.8280   21.9561 H   0  0  0  0  0  0  0  0  0  0  0  0
   21.9375   19.1131   22.2711 H   0  0  0  0  0  0  0  0  0  0  0  0
   20.4388   20.0536   23.5395 C   0  0  0  0  0  0  0  0  0  0  0  0
   19.6611   20.8262   23.4803 H   0  0  0  0  0  0  0  0  0  0  0  0
   21.1450   20.3493   24.3262 H   0  0  0  0  0  0  0  0  0  0  0  0
   19.9663   19.1149   23.8551 H   0  0  0  0  0  0  0  0  0  0  0  0
  1  2  1  0  0  0  0
  1  3  1  0  0  0  0
  1  4  1  0  0  0  0
  1  5  1  0  0  0  0
  5  6  1  0  0  0  0
  5  7  1  0  0  0  0
  5  8  1  0  0  0  0
  8  9  1  0  0  0  0
  8 10  1  0  0  0  0
  8 11  1  0  0  0  0
 11 12  1  0  0  0  0
 11 13  1  0  0  0  0
 11 14  1  0  0  0  0
 14 15  1  0  0  0  0
 14 16  1  0  0  0  0
 14 17  1  0  0  0  0
M  END
> <VConfSearch Rank>
950

> <Conf_Id>
36

> <Delta U+W>
0.275

> <U+W>
-15.590

> <U>
45.174

> <W>
-60.765

> <W(PB)>
-62.518

> <W(SA)>
1.754

> <Valence>
1.161

> <Coulomb>
43.789

> <VdW>
0.224

> <VdW6>
-2.897

> <VdW12>
3.121

> <Bond>
0.100

> <Angle>
0.500

> <Pdih>
0.561

> <Idih>
0.000

> <Tether>
0.000

$$$$
VeraChem MOL file


 17 16  0  0  0  0  0  0  0  0999 V2000     
   20.1791   20.7240   20.9841 N   0  3  0  0  0  0  0  0  0  0  0  0
   19.2392   20.5926   21.3663 H   0  0  0  0  0  0  0  0  0  0  0  0
   20.0991   20.6754   19.9640 H   0  0  0  0  0  0  0  0  0  0  0  0
   20.4683   21.6801   21.2144 H   0  0  0  0  0  0  0  0  0  0  0  0
   21.1541   19.6946   21.5226 C   0  0  0  0  0  0  0  0  0  0  0  0
   21.2505   19.8378   22.6022 H   0  0  0  0  0  0  0  0  0  0  0  0
   22.1251   19.9043   21.0659 H   0  0  0  0  0  0  0  0  0  0  0  0
   20.7627   18.2323   21.2226 C   0  0  0  0  0  0  0  0  0  0  0  0
   20.4244   18.1399   20.1820 H   0  0  0  0  0  0  0  0  0  0  0  0
   21.6710   17.6200   21.2995 H   0  0  0  0  0  0  0  0  0  0  0  0
   19.7049   17.6390   22.1880 C   0  0  0  0  0  0  0  0  0  0  0  0
   20.0820   17.6797   23.2196 H   0  0  0  0  0  0  0  0  0  0  0  0
   19.5804   16.5728   21.9519 H   0  0  0  0  0  0  0  0  0  0  0  0
   18.3209   18.3234   22.1182 C   0  0  0  0  0  0  0  0  0  0  0  0
   18.3496   19.3335   22.5432 H   0  0  0  0  0  0  0  0  0  0  0  0
   17.5839   17.7513   22.6968 H   0  0  0  0  0  0  0  0  0  0  0  0
   17.9578   18.3839   21.0840 H   0  0  0  0  0  0  0  0  0  0  0  0
  1  2  1  0  0  0  0
  1  3  1  0  0  0  0
  1  4  1  0  0  0  0
  1  5  1  0  0  0  0
  5  6  1  0  0  0  0
  5  7  1  0  0  0  0
  5  8  1  0  0  0  0
  8  9  1  0  0  0  0
  8 10  1  0  0  0  0
  8 11  1  0  0  0  0
 11 12  1  0  0  0  0
 11 13  1  0  0  0  0
 11 14  1  0  0  0  0
 14 15  1  0  0  0  0
 14 16  1  0  0  0  0
 14 17  1  0  0  0  0
M  END
> <VConfSearch Rank>
951

> <Conf_Id>
19

> <Delta U+W>
2.662

> <U+W>
-13.203

> <U>
47.423

> <W>
-60.626

> <W(PB)>
-62.328

> <W(SA)>
1.702

> <Valence>
2.414

> <Coulomb>
44.831

> <VdW>
0.178

> <VdW6>
-3.743

> <VdW12>
3.921

> <Bond>
0.138

> <Angle>
0.941

> <Pdih>
1.335

> <Idih>
0.000

> <Tether>
0.000

$$$$
VeraChem MOL file


 17 16  0  0  0  0  0  0  0  0999 V2000     
   21.6326   19.4491   21.1154 N   0  3  0  0  0  0  0  0  0  0  0  0
   22.4753   19.9950   21.3219 H   0  0  0  0  0  0  0  0  0  0  0  0
   21.7705   19.0279   20.1917 H   0  0  0  0  0  0  0  0  0  0  0  0
   21.5954   18.6832   21.7928 H   0  0  0  0  0  0  0  0  0  0  0  0
   20.3808   20.3038   21.1637 C   0  0  0  0  0  0  0  0  0  0  0  0
   20.5014   21.0903   20.4138 H   0  0  0  0  0  0  0  0  0  0  0  0
   20.3221   20.7800   22.1462 H   0  0  0  0  0  0  0  0  0  0  0  0
   19.0747   19.5329   20.8782 C   0  0  0  0  0  0  0  0  0  0  0  0
   18.3170   20.2627   20.5635 H   0  0  0  0  0  0  0  0  0  0  0  0
   19.2161   18.8581   20.0235 H   0  0  0  0  0  0  0  0  0  0  0  0
   18.5098   18.7533   22.0930 C   0  0  0  0  0  0  0  0  0  0  0  0
   17.5341   18.3331   21.8111 H   0  0  0  0  0  0  0  0  0  0  0  0
   18.3131   19.4498   22.9201 H   0  0  0  0  0  0  0  0  0  0  0  0
   19.4150   17.6040   22.5918 C   0  0  0  0  0  0  0  0  0  0  0  0
   19.7083   16.9411   21.7673 H   0  0  0  0  0  0  0  0  0  0  0  0
   18.8830   16.9958   23.3348 H   0  0  0  0  0  0  0  0  0  0  0  0
   20.3201   17.9867   23.0777 H   0  0  0  0  0  0  0  0  0  0  0  0
  1  2  1  0  0  0  0
  1  3  1  0  0  0  0
  1  4  1  0  0  0  0
  1  5  1  0  0  0  0
  5  6  1  0  0  0  0
  5  7  1  0  0  0  0
  5  8  1  0  0  0  0
  8  9  1  0  0  0  0
  8 10  1  0  0  0  0
  8 11  1  0  0  0  0
 11 12  1  0  0  0  0
 11 13  1  0  0  0  0
 11 14  1  0  0  0  0
 14 15  1  0  0  0  0
 14 16  1  0  0  0  0
 14 17  1  0  0  0  0
M  END
> <VConfSearch Rank>
952

> <Conf_Id>
44

> <Delta U+W>
2.712

> <U+W>
-13.153

> <U>
47.423

> <W>
-60.576

> <W(PB)>
-62.262

> <W(SA)>
1.687

> <Valence>
2.414

> <Coulomb>
44.831

> <VdW>
0.178

> <VdW6>
-3.743

> <VdW12>
3.922

> <Bond>
0.138

> <Angle>
0.941

> <Pdih>
1.335

> <Idih>
0.000

> <Tether>
0.000

$$$$
VeraChem MOL file


 17 16  0  0  0  0  0  0  0  0999 V2000     
   21.2205   19.9459   20.4041 N   0  3  0  0  0  0  0  0  0  0  0  0
   21.7255   19.1964   20.8854 H   0  0  0  0  0  0  0  0  0  0  0  0
   21.5426   20.8328   20.8029 H   0  0  0  0  0  0  0  0  0  0  0  0
   21.5254   19.9315   19.4255 H   0  0  0  0  0  0  0  0  0  0  0  0
   19.7181   19.7816   20.5292 C   0  0  0  0  0  0  0  0  0  0  0  0
   19.4400   18.8343   20.0602 H   0  0  0  0  0  0  0  0  0  0  0  0
   19.2465   20.5899   19.9637 H   0  0  0  0  0  0  0  0  0  0  0  0
   19.2076   19.8112   21.9847 C   0  0  0  0  0  0  0  0  0  0  0  0
   19.4559   20.7819   22.4341 H   0  0  0  0  0  0  0  0  0  0  0  0
   18.1112   19.7512   21.9736 H   0  0  0  0  0  0  0  0  0  0  0  0
   19.7709   18.6742   22.8732 C   0  0  0  0  0  0  0  0  0  0  0  0
   19.3655   18.7850   23.8887 H   0  0  0  0  0  0  0  0  0  0  0  0
   20.8605   18.7747   22.9693 H   0  0  0  0  0  0  0  0  0  0  0  0
   19.4227   17.2638   22.3446 C   0  0  0  0  0  0  0  0  0  0  0  0
   18.3372   17.1382   22.2408 H   0  0  0  0  0  0  0  0  0  0  0  0
   19.7840   16.4929   23.0376 H   0  0  0  0  0  0  0  0  0  0  0  0
   19.8846   17.0732   21.3678 H   0  0  0  0  0  0  0  0  0  0  0  0
  1  2  1  0  0  0  0
  1  3  1  0  0  0  0
  1  4  1  0  0  0  0
  1  5  1  0  0  0  0
  5  6  1  0  0  0  0
  5  7  1  0  0  0  0
  5  8  1  0  0  0  0
  8  9  1  0  0  0  0
  8 10  1  0  0  0  0
  8 11  1  0  0  0  0
 11 12  1  0  0  0  0
 11 13  1  0  0  0  0
 11 14  1  0  0  0  0
 14 15  1  0  0  0  0
 14 16  1  0  0  0  0
 14 17  1  0  0  0  0
M  END
> <VConfSearch Rank>
953

> <Conf_Id>
1

> <Delta U+W>
0.685

> <U+W>
-15.179

> <U>
45.697

> <W>
-60.876

> <W(PB)>
-62.586

> <W(SA)>
1.710

> <Valence>
1.263

> <Coulomb>
44.179

> <VdW>
0.255

> <VdW6>
-3.552

> <VdW12>
3.807

> <Bond>
0.125

> <Angle>
0.616

> <Pdih>
0.521

> <Idih>
0.000

> <Tether>
0.000

$$$$
VeraChem MOL file


 17 16  0  0  0  0  0  0  0  0999 V2000     
   19.8985   19.2389   23.5744 N   0  3  0  0  0  0  0  0  0  0  0  0
   20.3653   20.1023   23.8676 H   0  0  0  0  0  0  0  0  0  0  0  0
   20.6313   18.5586   23.3537 H   0  0  0  0  0  0  0  0  0  0  0  0
   19.3942   18.8809   24.3918 H   0  0  0  0  0  0  0  0  0  0  0  0
   18.9719   19.4687   22.3960 C   0  0  0  0  0  0  0  0  0  0  0  0
   18.1977   20.1724   22.7136 H   0  0  0  0  0  0  0  0  0  0  0  0
   18.4871   18.5191   22.1553 H   0  0  0  0  0  0  0  0  0  0  0  0
   19.6826   20.0222   21.1436 C   0  0  0  0  0  0  0  0  0  0  0  0
   18.9288   20.2167   20.3692 H   0  0  0  0  0  0  0  0  0  0  0  0
   20.1315   20.9949   21.3844 H   0  0  0  0  0  0  0  0  0  0  0  0
   20.7713   19.0815   20.5697 C   0  0  0  0  0  0  0  0  0  0  0  0
   21.5805   18.9502   21.3008 H   0  0  0  0  0  0  0  0  0  0  0  0
   21.2291   19.5630   19.6942 H   0  0  0  0  0  0  0  0  0  0  0  0
   20.2185   17.6999   20.1511 C   0  0  0  0  0  0  0  0  0  0  0  0
   21.0086   17.0923   19.6911 H   0  0  0  0  0  0  0  0  0  0  0  0
   19.4077   17.8048   19.4185 H   0  0  0  0  0  0  0  0  0  0  0  0
   19.8314   17.1418   21.0128 H   0  0  0  0  0  0  0  0  0  0  0  0
  1  2  1  0  0  0  0
  1  3  1  0  0  0  0
  1  4  1  0  0  0  0
  1  5  1  0  0  0  0
  5  6  1  0  0  0  0
  5  7  1  0  0  0  0
  5  8  1  0  0  0  0
  8  9  1  0  0  0  0
  8 10  1  0  0  0  0
  8 11  1  0  0  0  0
 11 12  1  0  0  0  0
 11 13  1  0  0  0  0
 11 14  1  0  0  0  0
 14 15  1  0  0  0  0
 14 16  1  0  0  0  0
 14 17  1  0  0  0  0
M  END
> <VConfSearch Rank>
954

> <Conf_Id>
43

> <Delta U+W>
0.642

> <U+W>
-15.222

> <U>
45.697

> <W>
-60.919

> <W(PB)>
-62.631

> <W(SA)>
1.712

> <Valence>
1.262

> <Coulomb>
44.179

> <VdW>
0.255

> <VdW6>
-3.552

> <VdW12>
3.807

> <Bond>
0.125

> <Angle>
0.616

> <Pdih>
0.521

> <Idih>
0.000

> <Tether>
0.000

$$$$
VeraChem MOL file


 17 16  0  0  0  0  0  0  0  0999 V2000     
   18.9877   17.4527   23.3525 N   0  3  0  0  0  0  0  0  0  0  0  0
   18.7717   16.6790   22.7165 H   0  0  0  0  0  0  0  0  0  0  0  0
   18.1112   17.9550   23.5235 H   0  0  0  0  0  0  0  0  0  0  0  0
   19.2676   17.0331   24.2450 H   0  0  0  0  0  0  0  0  0  0  0  0
   20.0643   18.3625   22.7952 C   0  0  0  0  0  0  0  0  0  0  0  0
   20.9743   17.7699   22.6677 H   0  0  0  0  0  0  0  0  0  0  0  0
   20.2641   19.1419   23.5355 H   0  0  0  0  0  0  0  0  0  0  0  0
   19.6764   19.0104   21.4536 C   0  0  0  0  0  0  0  0  0  0  0  0
   19.4615   18.2247   20.7171 H   0  0  0  0  0  0  0  0  0  0  0  0
   18.7538   19.5921   21.5820 H   0  0  0  0  0  0  0  0  0  0  0  0
   20.7992   19.9279   20.9216 C   0  0  0  0  0  0  0  0  0  0  0  0
   21.7238   19.3469   20.7960 H   0  0  0  0  0  0  0  0  0  0  0  0
   21.0170   20.7127   21.6598 H   0  0  0  0  0  0  0  0  0  0  0  0
   20.4172   20.5814   19.5758 C   0  0  0  0  0  0  0  0  0  0  0  0
   21.2272   21.2286   19.2152 H   0  0  0  0  0  0  0  0  0  0  0  0
   19.5145   21.1977   19.6777 H   0  0  0  0  0  0  0  0  0  0  0  0
   20.2268   19.8212   18.8071 H   0  0  0  0  0  0  0  0  0  0  0  0
  1  2  1  0  0  0  0
  1  3  1  0  0  0  0
  1  4  1  0  0  0  0
  1  5  1  0  0  0  0
  5  6  1  0  0  0  0
  5  7  1  0  0  0  0
  5  8  1  0  0  0  0
  8  9  1  0  0  0  0
  8 10  1  0  0  0  0
  8 11  1  0  0  0  0
 11 12  1  0  0  0  0
 11 13  1  0  0  0  0
 11 14  1  0  0  0  0
 14 15  1  0  0  0  0
 14 16  1  0  0  0  0
 14 17  1  0  0  0  0
M  END
> <VConfSearch Rank>
955

> <Conf_Id>
7

> <Delta U+W>
0.000

> <U+W>
-15.865

> <U>
44.664

> <W>
-60.529

> <W(PB)>
-62.309

> <W(SA)>
1.780

> <Valence>
0.872

> <Coulomb>
43.648

> <VdW>
0.144

> <VdW6>
-2.370

> <VdW12>
2.515

> <Bond>
0.080

> <Angle>
0.376

> <Pdih>
0.416

> <Idih>
0.000

> <Tether>
0.000

$$$$
VeraChem MOL file


 17 16  0  0  0  0  0  0  0  0999 V2000     
   20.9271   17.3389   20.3001 N   0  3  0  0  0  0  0  0  0  0  0  0
   21.9461   17.4381   20.3384 H   0  0  0  0  0  0  0  0  0  0  0  0
   20.6273   17.6693   19.3778 H   0  0  0  0  0  0  0  0  0  0  0  0
   20.7257   16.3344   20.3350 H   0  0  0  0  0  0  0  0  0  0  0  0
   20.2409   18.0908   21.4231 C   0  0  0  0  0  0  0  0  0  0  0  0
   20.5833   17.6681   22.3715 H   0  0  0  0  0  0  0  0  0  0  0  0
   19.1655   17.9144   21.3373 H   0  0  0  0  0  0  0  0  0  0  0  0
   20.5226   19.6054   21.4000 C   0  0  0  0  0  0  0  0  0  0  0  0
   21.6073   19.7704   21.4462 H   0  0  0  0  0  0  0  0  0  0  0  0
   20.1802   20.0297   20.4468 H   0  0  0  0  0  0  0  0  0  0  0  0
   19.8491   20.3553   22.5731 C   0  0  0  0  0  0  0  0  0  0  0  0
   20.1540   21.4108   22.5441 H   0  0  0  0  0  0  0  0  0  0  0  0
   20.2160   19.9541   23.5285 H   0  0  0  0  0  0  0  0  0  0  0  0
   18.3057   20.2753   22.5349 C   0  0  0  0  0  0  0  0  0  0  0  0
   17.9133   20.6650   21.5866 H   0  0  0  0  0  0  0  0  0  0  0  0
   17.8691   20.8702   23.3475 H   0  0  0  0  0  0  0  0  0  0  0  0
   17.9522   19.2433   22.6539 H   0  0  0  0  0  0  0  0  0  0  0  0
  1  2  1  0  0  0  0
  1  3  1  0  0  0  0
  1  4  1  0  0  0  0
  1  5  1  0  0  0  0
  5  6  1  0  0  0  0
  5  7  1  0  0  0  0
  5  8  1  0  0  0  0
  8  9  1  0  0  0  0
  8 10  1  0  0  0  0
  8 11  1  0  0  0  0
 11 12  1  0  0  0  0
 11 13  1  0  0  0  0
 11 14  1  0  0  0  0
 14 15  1  0  0  0  0
 14 16  1  0  0  0  0
 14 17  1  0  0  0  0
M  END
> <VConfSearch Rank>
956

> <Conf_Id>
36

> <Delta U+W>
0.275

> <U+W>
-15.590

> <U>
45.174

> <W>
-60.765

> <W(PB)>
-62.518

> <W(SA)>
1.754

> <Valence>
1.161

> <Coulomb>
43.789

> <VdW>
0.224

> <VdW6>
-2.897

> <VdW12>
3.121

> <Bond>
0.100

> <Angle>
0.500

> <Pdih>
0.561

> <Idih>
0.000

> <Tether>
0.000

$$$$
VeraChem MOL file


 17 16  0  0  0  0  0  0  0  0999 V2000     
   19.3951   20.6847   21.0735 N   0  3  0  0  0  0  0  0  0  0  0  0
   18.6164   20.1517   21.4690 H   0  0  0  0  0  0  0  0  0  0  0  0
   19.2992   20.6469   20.0543 H   0  0  0  0  0  0  0  0  0  0  0  0
   19.2624   21.6633   21.3485 H   0  0  0  0  0  0  0  0  0  0  0  0
   20.7362   20.1463   21.5337 C   0  0  0  0  0  0  0  0  0  0  0  0
   20.8095   20.2743   22.6170 H   0  0  0  0  0  0  0  0  0  0  0  0
   21.5067   20.7663   21.0674 H   0  0  0  0  0  0  0  0  0  0  0  0
   20.9875   18.6692   21.1641 C   0  0  0  0  0  0  0  0  0  0  0  0
   20.6755   18.4831   20.1278 H   0  0  0  0  0  0  0  0  0  0  0  0
   22.0719   18.4980   21.1875 H   0  0  0  0  0  0  0  0  0  0  0  0
   20.3227   17.6455   22.1194 C   0  0  0  0  0  0  0  0  0  0  0  0
   20.6913   17.8018   23.1430 H   0  0  0  0  0  0  0  0  0  0  0  0
   20.6508   16.6375   21.8290 H   0  0  0  0  0  0  0  0  0  0  0  0
   18.7775   17.6797   22.1177 C   0  0  0  0  0  0  0  0  0  0  0  0
   18.3946   18.5887   22.5958 H   0  0  0  0  0  0  0  0  0  0  0  0
   18.3774   16.8265   22.6808 H   0  0  0  0  0  0  0  0  0  0  0  0
   18.3786   17.6210   21.0966 H   0  0  0  0  0  0  0  0  0  0  0  0
  1  2  1  0  0  0  0
  1  3  1  0  0  0  0
  1  4  1  0  0  0  0
  1  5  1  0  0  0  0
  5  6  1  0  0  0  0
  5  7  1  0  0  0  0
  5  8  1  0  0  0  0
  8  9  1  0  0  0  0
  8 10  1  0  0  0  0
  8 11  1  0  0  0  0
 11 12  1  0  0  0  0
 11 13  1  0  0  0  0
 11 14  1  0  0  0  0
 14 15  1  0  0  0  0
 14 16  1  0  0  0  0
 14 17  1  0  0  0  0
M  END
> <VConfSearch Rank>
957

> <Conf_Id>
19

> <Delta U+W>
2.662

> <U+W>
-13.203

> <U>
47.423

> <W>
-60.626

> <W(PB)>
-62.328

> <W(SA)>
1.702

> <Valence>
2.414

> <Coulomb>
44.831

> <VdW>
0.178

> <VdW6>
-3.743

> <VdW12>
3.921

> <Bond>
0.138

> <Angle>
0.941

> <Pdih>
1.335

> <Idih>
0.000

> <Tether>
0.000

$$$$
VeraChem MOL file


 17 16  0  0  0  0  0  0  0  0999 V2000     
   19.2285   20.6007   22.4134 N   0  3  0  0  0  0  0  0  0  0  0  0
   18.8771   21.0275   23.2766 H   0  0  0  0  0  0  0  0  0  0  0  0
   19.0317   21.2602   21.6545 H   0  0  0  0  0  0  0  0  0  0  0  0
   20.2460   20.5371   22.5004 H   0  0  0  0  0  0  0  0  0  0  0  0
   18.6001   19.2442   22.1582 C   0  0  0  0  0  0  0  0  0  0  0  0
   17.5212   19.4019   22.0768 H   0  0  0  0  0  0  0  0  0  0  0  0
   18.7837   18.6066   23.0272 H   0  0  0  0  0  0  0  0  0  0  0  0
   19.1036   18.5422   20.8795 C   0  0  0  0  0  0  0  0  0  0  0  0
   18.3509   17.7979   20.5876 H   0  0  0  0  0  0  0  0  0  0  0  0
   19.1532   19.2612   20.0510 H   0  0  0  0  0  0  0  0  0  0  0  0
   20.4604   17.8101   21.0400 C   0  0  0  0  0  0  0  0  0  0  0  0
   20.6700   17.2622   20.1106 H   0  0  0  0  0  0  0  0  0  0  0  0
   20.3789   17.0495   21.8292 H   0  0  0  0  0  0  0  0  0  0  0  0
   21.6567   18.7406   21.3432 C   0  0  0  0  0  0  0  0  0  0  0  0
   21.7094   19.5691   20.6248 H   0  0  0  0  0  0  0  0  0  0  0  0
   22.5995   18.1821   21.2769 H   0  0  0  0  0  0  0  0  0  0  0  0
   21.5982   19.1538   22.3568 H   0  0  0  0  0  0  0  0  0  0  0  0
  1  2  1  0  0  0  0
  1  3  1  0  0  0  0
  1  4  1  0  0  0  0
  1  5  1  0  0  0  0
  5  6  1  0  0  0  0
  5  7  1  0  0  0  0
  5  8  1  0  0  0  0
  8  9  1  0  0  0  0
  8 10  1  0  0  0  0
  8 11  1  0  0  0  0
 11 12  1  0  0  0  0
 11 13  1  0  0  0  0
 11 14  1  0  0  0  0
 14 15  1  0  0  0  0
 14 16  1  0  0  0  0
 14 17  1  0  0  0  0
M  END
> <VConfSearch Rank>
958

> <Conf_Id>
44

> <Delta U+W>
2.712

> <U+W>
-13.153

> <U>
47.423

> <W>
-60.576

> <W(PB)>
-62.262

> <W(SA)>
1.687

> <Valence>
2.414

> <Coulomb>
44.831

> <VdW>
0.178

> <VdW6>
-3.743

> <VdW12>
3.922

> <Bond>
0.138

> <Angle>
0.941

> <Pdih>
1.335

> <Idih>
0.000

> <Tether>
0.000

$$$$
VeraChem MOL file


 17 16  0  0  0  0  0  0  0  0999 V2000     
   21.4671   18.1049   20.7768 N   0  3  0  0  0  0  0  0  0  0  0  0
   21.8426   18.7521   21.4757 H   0  0  0  0  0  0  0  0  0  0  0  0
   21.6925   18.4905   19.8549 H   0  0  0  0  0  0  0  0  0  0  0  0
   21.9905   17.2284   20.8689 H   0  0  0  0  0  0  0  0  0  0  0  0
   19.9758   17.8922   20.9519 C   0  0  0  0  0  0  0  0  0  0  0  0
   19.8090   17.4539   21.9392 H   0  0  0  0  0  0  0  0  0  0  0  0
   19.6526   17.1661   20.2010 H   0  0  0  0  0  0  0  0  0  0  0  0
   19.1416   19.1819   20.8075 C   0  0  0  0  0  0  0  0  0  0  0  0
   19.2841   19.5922   19.7990 H   0  0  0  0  0  0  0  0  0  0  0  0
   18.0774   18.9223   20.8842 H   0  0  0  0  0  0  0  0  0  0  0  0
   19.4774   20.2702   21.8574 C   0  0  0  0  0  0  0  0  0  0  0  0
   18.8481   21.1510   21.6676 H   0  0  0  0  0  0  0  0  0  0  0  0
   20.5155   20.6072   21.7333 H   0  0  0  0  0  0  0  0  0  0  0  0
   19.2539   19.7975   23.3122 C   0  0  0  0  0  0  0  0  0  0  0  0
   18.2214   19.4561   23.4620 H   0  0  0  0  0  0  0  0  0  0  0  0
   19.4404   20.6183   24.0167 H   0  0  0  0  0  0  0  0  0  0  0  0
   19.9288   18.9740   23.5775 H   0  0  0  0  0  0  0  0  0  0  0  0
  1  2  1  0  0  0  0
  1  3  1  0  0  0  0
  1  4  1  0  0  0  0
  1  5  1  0  0  0  0
  5  6  1  0  0  0  0
  5  7  1  0  0  0  0
  5  8  1  0  0  0  0
  8  9  1  0  0  0  0
  8 10  1  0  0  0  0
  8 11  1  0  0  0  0
 11 12  1  0  0  0  0
 11 13  1  0  0  0  0
 11 14  1  0  0  0  0
 14 15  1  0  0  0  0
 14 16  1  0  0  0  0
 14 17  1  0  0  0  0
M  END
> <VConfSearch Rank>
959

> <Conf_Id>
1

> <Delta U+W>
0.685

> <U+W>
-15.179

> <U>
45.697

> <W>
-60.876

> <W(PB)>
-62.586

> <W(SA)>
1.710

> <Valence>
1.263

> <Coulomb>
44.179

> <VdW>
0.255

> <VdW6>
-3.552

> <VdW12>
3.807

> <Bond>
0.125

> <Angle>
0.616

> <Pdih>
0.521

> <Idih>
0.000

> <Tether>
0.000

$$$$
VeraChem MOL file


 17 16  0  0  0  0  0  0  0  0999 V2000     
   18.1761   19.2007   20.6744 N   0  3  0  0  0  0  0  0  0  0  0  0
   18.1656   18.6822   19.7909 H   0  0  0  0  0  0  0  0  0  0  0  0
   18.6903   20.0705   20.5088 H   0  0  0  0  0  0  0  0  0  0  0  0
   17.2059   19.4608   20.8783 H   0  0  0  0  0  0  0  0  0  0  0  0
   18.7910   18.3899   21.7989 C   0  0  0  0  0  0  0  0  0  0  0  0
   18.1726   17.5000   21.9444 H   0  0  0  0  0  0  0  0  0  0  0  0
   18.7437   18.9872   22.7132 H   0  0  0  0  0  0  0  0  0  0  0  0
   20.2487   17.9610   21.5325 C   0  0  0  0  0  0  0  0  0  0  0  0
   20.5865   17.3290   22.3645 H   0  0  0  0  0  0  0  0  0  0  0  0
   20.2800   17.3281   20.6357 H   0  0  0  0  0  0  0  0  0  0  0  0
   21.2324   19.1452   21.3605 C   0  0  0  0  0  0  0  0  0  0  0  0
   20.9609   19.7361   20.4752 H   0  0  0  0  0  0  0  0  0  0  0  0
   22.2365   18.7449   21.1616 H   0  0  0  0  0  0  0  0  0  0  0  0
   21.2953   20.0652   22.6013 C   0  0  0  0  0  0  0  0  0  0  0  0
   22.0502   20.8497   22.4610 H   0  0  0  0  0  0  0  0  0  0  0  0
   21.5664   19.4969   23.5005 H   0  0  0  0  0  0  0  0  0  0  0  0
   20.3339   20.5605   22.7860 H   0  0  0  0  0  0  0  0  0  0  0  0
  1  2  1  0  0  0  0
  1  3  1  0  0  0  0
  1  4  1  0  0  0  0
  1  5  1  0  0  0  0
  5  6  1  0  0  0  0
  5  7  1  0  0  0  0
  5  8  1  0  0  0  0
  8  9  1  0  0  0  0
  8 10  1  0  0  0  0
  8 11  1  0  0  0  0
 11 12  1  0  0  0  0
 11 13  1  0  0  0  0
 11 14  1  0  0  0  0
 14 15  1  0  0  0  0
 14 16  1  0  0  0  0
 14 17  1  0  0  0  0
M  END
> <VConfSearch Rank>
960

> <Conf_Id>
43

> <Delta U+W>
0.642

> <U+W>
-15.222

> <U>
45.697

> <W>
-60.919

> <W(PB)>
-62.631

> <W(SA)>
1.712

> <Valence>
1.262

> <Coulomb>
44.179

> <VdW>
0.255

> <VdW6>
-3.552

> <VdW12>
3.807

> <Bond>
0.125

> <Angle>
0.616

> <Pdih>
0.521

> <Idih>
0.000

> <Tether>
0.000

$$$$
VeraChem MOL file


 17 16  0  0  0  0  0  0  0  0999 V2000     
   21.3072   17.4197   20.1640 N   0  3  0  0  0  0  0  0  0  0  0  0
   21.4676   16.7111   20.8865 H   0  0  0  0  0  0  0  0  0  0  0  0
   22.1636   17.9777   20.0948 H   0  0  0  0  0  0  0  0  0  0  0  0
   21.2073   16.9189   19.2751 H   0  0  0  0  0  0  0  0  0  0  0  0
   20.0942   18.2762   20.4679 C   0  0  0  0  0  0  0  0  0  0  0  0
   19.2180   17.6226   20.4962 H   0  0  0  0  0  0  0  0  0  0  0  0
   19.9665   18.9846   19.6449 H   0  0  0  0  0  0  0  0  0  0  0  0
   20.2108   19.0433   21.7976 C   0  0  0  0  0  0  0  0  0  0  0  0
   20.3544   18.3295   22.6197 H   0  0  0  0  0  0  0  0  0  0  0  0
   21.1002   19.6869   21.7712 H   0  0  0  0  0  0  0  0  0  0  0  0
   18.9560   19.9021   22.0685 C   0  0  0  0  0  0  0  0  0  0  0  0
   18.0649   19.2588   22.0917 H   0  0  0  0  0  0  0  0  0  0  0  0
   18.8098   20.6146   21.2443 H   0  0  0  0  0  0  0  0  0  0  0  0
   19.0657   20.6745   23.4009 C   0  0  0  0  0  0  0  0  0  0  0  0
   18.1653   21.2779   23.5748 H   0  0  0  0  0  0  0  0  0  0  0  0
   19.9289   21.3528   23.3947 H   0  0  0  0  0  0  0  0  0  0  0  0
   19.1782   19.9863   24.2488 H   0  0  0  0  0  0  0  0  0  0  0  0
  1  2  1  0  0  0  0
  1  3  1  0  0  0  0
  1  4  1  0  0  0  0
  1  5  1  0  0  0  0
  5  6  1  0  0  0  0
  5  7  1  0  0  0  0
  5  8  1  0  0  0  0
  8  9  1  0  0  0  0
  8 10  1  0  0  0  0
  8 11  1  0  0  0  0
 11 12  1  0  0  0  0
 11 13  1  0  0  0  0
 11 14  1  0  0  0  0
 14 15  1  0  0  0  0
 14 16  1  0  0  0  0
 14 17  1  0  0  0  0
M  END
> <VConfSearch Rank>
961

> <Conf_Id>
7

> <Delta U+W>
0.000

> <U+W>
-15.865

> <U>
44.664

> <W>
-60.529

> <W(PB)>
-62.309

> <W(SA)>
1.780

> <Valence>
0.872

> <Coulomb>
43.648

> <VdW>
0.144

> <VdW6>
-2.370

> <VdW12>
2.515

> <Bond>
0.080

> <Angle>
0.376

> <Pdih>
0.416

> <Idih>
0.000

> <Tether>
0.000

$$$$
VeraChem MOL file


 17 16  0  0  0  0  0  0  0  0999 V2000     
   18.9368   20.6702   20.0820 N   0  3  0  0  0  0  0  0  0  0  0  0
   18.1434   21.1252   20.5438 H   0  0  0  0  0  0  0  0  0  0  0  0
   18.5499   19.9923   19.4183 H   0  0  0  0  0  0  0  0  0  0  0  0
   19.4100   21.3910   19.5276 H   0  0  0  0  0  0  0  0  0  0  0  0
   19.8753   20.0178   21.0775 C   0  0  0  0  0  0  0  0  0  0  0  0
   20.2714   20.7998   21.7310 H   0  0  0  0  0  0  0  0  0  0  0  0
   20.7082   19.5833   20.5187 H   0  0  0  0  0  0  0  0  0  0  0  0
   19.1953   18.9279   21.9282 C   0  0  0  0  0  0  0  0  0  0  0  0
   18.3362   19.3656   22.4539 H   0  0  0  0  0  0  0  0  0  0  0  0
   18.7959   18.1434   21.2717 H   0  0  0  0  0  0  0  0  0  0  0  0
   20.1528   18.2976   22.9664 C   0  0  0  0  0  0  0  0  0  0  0  0
   19.5878   17.5905   23.5898 H   0  0  0  0  0  0  0  0  0  0  0  0
   20.5276   19.0766   23.6453 H   0  0  0  0  0  0  0  0  0  0  0  0
   21.3447   17.5570   22.3177 C   0  0  0  0  0  0  0  0  0  0  0  0
   20.9970   16.7761   21.6289 H   0  0  0  0  0  0  0  0  0  0  0  0
   21.9624   17.0746   23.0862 H   0  0  0  0  0  0  0  0  0  0  0  0
   21.9908   18.2450   21.7579 H   0  0  0  0  0  0  0  0  0  0  0  0
  1  2  1  0  0  0  0
  1  3  1  0  0  0  0
  1  4  1  0  0  0  0
  1  5  1  0  0  0  0
  5  6  1  0  0  0  0
  5  7  1  0  0  0  0
  5  8  1  0  0  0  0
  8  9  1  0  0  0  0
  8 10  1  0  0  0  0
  8 11  1  0  0  0  0
 11 12  1  0  0  0  0
 11 13  1  0  0  0  0
 11 14  1  0  0  0  0
 14 15  1  0  0  0  0
 14 16  1  0  0  0  0
 14 17  1  0  0  0  0
M  END
> <VConfSearch Rank>
962

> <Conf_Id>
36

> <Delta U+W>
0.275

> <U+W>
-15.590

> <U>
45.174

> <W>
-60.765

> <W(PB)>
-62.518

> <W(SA)>
1.754

> <Valence>
1.161

> <Coulomb>
43.789

> <VdW>
0.224

> <VdW6>
-2.897

> <VdW12>
3.121

> <Bond>
0.100

> <Angle>
0.500

> <Pdih>
0.561

> <Idih>
0.000

> <Tether>
0.000

$$$$
VeraChem MOL file


 17 16  0  0  0  0  0  0  0  0999 V2000     
   21.1678   17.7103   21.0420 N   0  3  0  0  0  0  0  0  0  0  0  0
   20.5637   17.3450   21.7826 H   0  0  0  0  0  0  0  0  0  0  0  0
   22.0589   17.9651   21.4784 H   0  0  0  0  0  0  0  0  0  0  0  0
   21.3621   16.9351   20.4001 H   0  0  0  0  0  0  0  0  0  0  0  0
   20.5328   18.8882   20.3282 C   0  0  0  0  0  0  0  0  0  0  0  0
   19.6248   18.5429   19.8265 H   0  0  0  0  0  0  0  0  0  0  0  0
   21.2392   19.2156   19.5606 H   0  0  0  0  0  0  0  0  0  0  0  0
   20.1997   20.0824   21.2472 C   0  0  0  0  0  0  0  0  0  0  0  0
   21.0361   20.2737   21.9325 H   0  0  0  0  0  0  0  0  0  0  0  0
   20.1166   20.9774   20.6163 H   0  0  0  0  0  0  0  0  0  0  0  0
   18.8762   19.9337   22.0402 C   0  0  0  0  0  0  0  0  0  0  0  0
   18.0384   19.8061   21.3403 H   0  0  0  0  0  0  0  0  0  0  0  0
   18.6852   20.8752   22.5742 H   0  0  0  0  0  0  0  0  0  0  0  0
   18.8718   18.7769   23.0652 C   0  0  0  0  0  0  0  0  0  0  0  0
   18.8500   17.7997   22.5689 H   0  0  0  0  0  0  0  0  0  0  0  0
   17.9789   18.8353   23.7011 H   0  0  0  0  0  0  0  0  0  0  0  0
   19.7510   18.8221   23.7210 H   0  0  0  0  0  0  0  0  0  0  0  0
  1  2  1  0  0  0  0
  1  3  1  0  0  0  0
  1  4  1  0  0  0  0
  1  5  1  0  0  0  0
  5  6  1  0  0  0  0
  5  7  1  0  0  0  0
  5  8  1  0  0  0  0
  8  9  1  0  0  0  0
  8 10  1  0  0  0  0
  8 11  1  0  0  0  0
 11 12  1  0  0  0  0
 11 13  1  0  0  0  0
 11 14  1  0  0  0  0
 14 15  1  0  0  0  0
 14 16  1  0  0  0  0
 14 17  1  0  0  0  0
M  END
> <VConfSearch Rank>
963

> <Conf_Id>
19

> <Delta U+W>
2.662

> <U+W>
-13.203

> <U>
47.423

> <W>
-60.626

> <W(PB)>
-62.328

> <W(SA)>
1.702

> <Valence>
2.414

> <Coulomb>
44.831

> <VdW>
0.178

> <VdW6>
-3.743

> <VdW12>
3.921

> <Bond>
0.138

> <Angle>
0.941

> <Pdih>
1.335

> <Idih>
0.000

> <Tether>
0.000

$$$$
VeraChem MOL file


 17 16  0  0  0  0  0  0  0  0999 V2000     
   18.1627   18.3831   21.3914 N   0  3  0  0  0  0  0  0  0  0  0  0
   17.5892   17.5610   21.1765 H   0  0  0  0  0  0  0  0  0  0  0  0
   17.5384   19.1950   21.3684 H   0  0  0  0  0  0  0  0  0  0  0  0
   18.4878   18.2806   22.3561 H   0  0  0  0  0  0  0  0  0  0  0  0
   19.3188   18.5336   20.4215 C   0  0  0  0  0  0  0  0  0  0  0  0
   18.8867   18.6387   19.4226 H   0  0  0  0  0  0  0  0  0  0  0  0
   19.9098   17.6139   20.4388 H   0  0  0  0  0  0  0  0  0  0  0  0
   20.2309   19.7459   20.7048 C   0  0  0  0  0  0  0  0  0  0  0  0
   20.7689   19.9840   19.7776 H   0  0  0  0  0  0  0  0  0  0  0  0
   19.6207   20.6294   20.9343 H   0  0  0  0  0  0  0  0  0  0  0  0
   21.2824   19.5125   21.8194 C   0  0  0  0  0  0  0  0  0  0  0  0
   21.9398   20.3921   21.8646 H   0  0  0  0  0  0  0  0  0  0  0  0
   21.9273   18.6650   21.5476 H   0  0  0  0  0  0  0  0  0  0  0  0
   20.6828   19.2736   23.2238 C   0  0  0  0  0  0  0  0  0  0  0  0
   19.9593   20.0563   23.4867 H   0  0  0  0  0  0  0  0  0  0  0  0
   21.4757   19.2846   23.9830 H   0  0  0  0  0  0  0  0  0  0  0  0
   20.1882   18.2975   23.2894 H   0  0  0  0  0  0  0  0  0  0  0  0
  1  2  1  0  0  0  0
  1  3  1  0  0  0  0
  1  4  1  0  0  0  0
  1  5  1  0  0  0  0
  5  6  1  0  0  0  0
  5  7  1  0  0  0  0
  5  8  1  0  0  0  0
  8  9  1  0  0  0  0
  8 10  1  0  0  0  0
  8 11  1  0  0  0  0
 11 12  1  0  0  0  0
 11 13  1  0  0  0  0
 11 14  1  0  0  0  0
 14 15  1  0  0  0  0
 14 16  1  0  0  0  0
 14 17  1  0  0  0  0
M  END
> <VConfSearch Rank>
964

> <Conf_Id>
44

> <Delta U+W>
2.712

> <U+W>
-13.153

> <U>
47.423

> <W>
-60.576

> <W(PB)>
-62.262

> <W(SA)>
1.687

> <Valence>
2.414

> <Coulomb>
44.831

> <VdW>
0.178

> <VdW6>
-3.743

> <VdW12>
3.922

> <Bond>
0.138

> <Angle>
0.941

> <Pdih>
1.335

> <Idih>
0.000

> <Tether>
0.000

$$$$
VeraChem MOL file


 17 16  0  0  0  0  0  0  0  0999 V2000     
   18.5358   18.0779   22.6527 N   0  3  0  0  0  0  0  0  0  0  0  0
   18.9964   18.7347   23.2889 H   0  0  0  0  0  0  0  0  0  0  0  0
   18.8467   17.1368   22.9117 H   0  0  0  0  0  0  0  0  0  0  0  0
   17.5311   18.1243   22.8505 H   0  0  0  0  0  0  0  0  0  0  0  0
   18.8400   18.3947   21.2011 C   0  0  0  0  0  0  0  0  0  0  0  0
   18.4577   19.3957   20.9849 H   0  0  0  0  0  0  0  0  0  0  0  0
   18.2889   17.6816   20.5821 H   0  0  0  0  0  0  0  0  0  0  0  0
   20.3404   18.3237   20.8495 C   0  0  0  0  0  0  0  0  0  0  0  0
   20.7053   17.3041   21.0315 H   0  0  0  0  0  0  0  0  0  0  0  0
   20.4575   18.5024   19.7724 H   0  0  0  0  0  0  0  0  0  0  0  0
   21.2192   19.3315   21.6315 C   0  0  0  0  0  0  0  0  0  0  0  0
   22.2668   19.1978   21.3272 H   0  0  0  0  0  0  0  0  0  0  0  0
   21.1850   19.1077   22.7063 H   0  0  0  0  0  0  0  0  0  0  0  0
   20.8109   20.8033   21.3928 C   0  0  0  0  0  0  0  0  0  0  0  0
   20.8384   21.0521   20.3240 H   0  0  0  0  0  0  0  0  0  0  0  0
   21.4989   21.4828   21.9123 H   0  0  0  0  0  0  0  0  0  0  0  0
   19.7995   21.0076   21.7661 H   0  0  0  0  0  0  0  0  0  0  0  0
  1  2  1  0  0  0  0
  1  3  1  0  0  0  0
  1  4  1  0  0  0  0
  1  5  1  0  0  0  0
  5  6  1  0  0  0  0
  5  7  1  0  0  0  0
  5  8  1  0  0  0  0
  8  9  1  0  0  0  0
  8 10  1  0  0  0  0
  8 11  1  0  0  0  0
 11 12  1  0  0  0  0
 11 13  1  0  0  0  0
 11 14  1  0  0  0  0
 14 15  1  0  0  0  0
 14 16  1  0  0  0  0
 14 17  1  0  0  0  0
M  END
> <VConfSearch Rank>
965

> <Conf_Id>
1

> <Delta U+W>
0.685

> <U+W>
-15.179

> <U>
45.697

> <W>
-60.876

> <W(PB)>
-62.586

> <W(SA)>
1.710

> <Valence>
1.263

> <Coulomb>
44.179

> <VdW>
0.255

> <VdW6>
-3.552

> <VdW12>
3.807

> <Bond>
0.125

> <Angle>
0.616

> <Pdih>
0.521

> <Idih>
0.000

> <Tether>
0.000

$$$$
VeraChem MOL file


 17 16  0  0  0  0  0  0  0  0999 V2000     
   19.1968   20.8251   22.0369 N   0  3  0  0  0  0  0  0  0  0  0  0
   19.4401   21.1073   22.9911 H   0  0  0  0  0  0  0  0  0  0  0  0
   18.4212   20.1602   22.1064 H   0  0  0  0  0  0  0  0  0  0  0  0
   18.8347   21.6588   21.5632 H   0  0  0  0  0  0  0  0  0  0  0  0
   20.3830   20.2299   21.3030 C   0  0  0  0  0  0  0  0  0  0  0  0
   21.1535   21.0026   21.2336 H   0  0  0  0  0  0  0  0  0  0  0  0
   20.0634   19.9794   20.2882 H   0  0  0  0  0  0  0  0  0  0  0  0
   20.9741   18.9792   21.9859 C   0  0  0  0  0  0  0  0  0  0  0  0
   21.8612   18.6584   21.4239 H   0  0  0  0  0  0  0  0  0  0  0  0
   21.3293   19.2502   22.9890 H   0  0  0  0  0  0  0  0  0  0  0  0
   19.9836   17.7932   22.0944 C   0  0  0  0  0  0  0  0  0  0  0  0
   19.1323   18.0692   22.7314 H   0  0  0  0  0  0  0  0  0  0  0  0
   20.4854   16.9586   22.6038 H   0  0  0  0  0  0  0  0  0  0  0  0
   19.4692   17.3063   20.7203 C   0  0  0  0  0  0  0  0  0  0  0  0
   18.8241   16.4263   20.8404 H   0  0  0  0  0  0  0  0  0  0  0  0
   20.3028   17.0230   20.0646 H   0  0  0  0  0  0  0  0  0  0  0  0
   18.8812   18.0805   20.2116 H   0  0  0  0  0  0  0  0  0  0  0  0
  1  2  1  0  0  0  0
  1  3  1  0  0  0  0
  1  4  1  0  0  0  0
  1  5  1  0  0  0  0
  5  6  1  0  0  0  0
  5  7  1  0  0  0  0
  5  8  1  0  0  0  0
  8  9  1  0  0  0  0
  8 10  1  0  0  0  0
  8 11  1  0  0  0  0
 11 12  1  0  0  0  0
 11 13  1  0  0  0  0
 11 14  1  0  0  0  0
 14 15  1  0  0  0  0
 14 16  1  0  0  0  0
 14 17  1  0  0  0  0
M  END
> <VConfSearch Rank>
966

> <Conf_Id>
43

> <Delta U+W>
0.642

> <U+W>
-15.222

> <U>
45.697

> <W>
-60.919

> <W(PB)>
-62.631

> <W(SA)>
1.712

> <Valence>
1.262

> <Coulomb>
44.179

> <VdW>
0.255

> <VdW6>
-3.552

> <VdW12>
3.807

> <Bond>
0.125

> <Angle>
0.616

> <Pdih>
0.521

> <Idih>
0.000

> <Tether>
0.000

$$$$
VeraChem MOL file


 17 16  0  0  0  0  0  0  0  0999 V2000     
   21.1436   16.9670   20.7117 N   0  3  0  0  0  0  0  0  0  0  0  0
   20.4960   16.2732   21.0975 H   0  0  0  0  0  0  0  0  0  0  0  0
   21.9559   16.9997   21.3352 H   0  0  0  0  0  0  0  0  0  0  0  0
   21.4738   16.5973   19.8143 H   0  0  0  0  0  0  0  0  0  0  0  0
   20.4923   18.3267   20.5556 C   0  0  0  0  0  0  0  0  0  0  0  0
   19.6575   18.2230   19.8571 H   0  0  0  0  0  0  0  0  0  0  0  0
   21.2274   19.0043   20.1127 H   0  0  0  0  0  0  0  0  0  0  0  0
   19.9843   18.9124   21.8857 C   0  0  0  0  0  0  0  0  0  0  0  0
   19.2580   18.2221   22.3351 H   0  0  0  0  0  0  0  0  0  0  0  0
   20.8225   19.0008   22.5898 H   0  0  0  0  0  0  0  0  0  0  0  0
   19.3287   20.2960   21.6823 C   0  0  0  0  0  0  0  0  0  0  0  0
   18.4917   20.2088   20.9751 H   0  0  0  0  0  0  0  0  0  0  0  0
   20.0542   20.9866   21.2295 H   0  0  0  0  0  0  0  0  0  0  0  0
   18.8166   20.8897   23.0124 C   0  0  0  0  0  0  0  0  0  0  0  0
   18.3548   21.8717   22.8465 H   0  0  0  0  0  0  0  0  0  0  0  0
   19.6379   21.0212   23.7289 H   0  0  0  0  0  0  0  0  0  0  0  0
   18.0631   20.2372   23.4725 H   0  0  0  0  0  0  0  0  0  0  0  0
  1  2  1  0  0  0  0
  1  3  1  0  0  0  0
  1  4  1  0  0  0  0
  1  5  1  0  0  0  0
  5  6  1  0  0  0  0
  5  7  1  0  0  0  0
  5  8  1  0  0  0  0
  8  9  1  0  0  0  0
  8 10  1  0  0  0  0
  8 11  1  0  0  0  0
 11 12  1  0  0  0  0
 11 13  1  0  0  0  0
 11 14  1  0  0  0  0
 14 15  1  0  0  0  0
 14 16  1  0  0  0  0
 14 17  1  0  0  0  0
M  END
> <VConfSearch Rank>
967

> <Conf_Id>
7

> <Delta U+W>
0.000

> <U+W>
-15.865

> <U>
44.664

> <W>
-60.529

> <W(PB)>
-62.309

> <W(SA)>
1.780

> <Valence>
0.872

> <Coulomb>
43.648

> <VdW>
0.144

> <VdW6>
-2.370

> <VdW12>
2.515

> <Bond>
0.080

> <Angle>
0.376

> <Pdih>
0.416

> <Idih>
0.000

> <Tether>
0.000

$$$$
VeraChem MOL file


 17 16  0  0  0  0  0  0  0  0999 V2000     
   18.6340   19.8723   23.5043 N   0  3  0  0  0  0  0  0  0  0  0  0
   17.6722   20.0415   23.1945 H   0  0  0  0  0  0  0  0  0  0  0  0
   19.0804   20.7880   23.6130 H   0  0  0  0  0  0  0  0  0  0  0  0
   18.5752   19.4582   24.4402 H   0  0  0  0  0  0  0  0  0  0  0  0
   19.3926   18.9818   22.5405 C   0  0  0  0  0  0  0  0  0  0  0  0
   18.8800   18.0171   22.4968 H   0  0  0  0  0  0  0  0  0  0  0  0
   20.3934   18.8202   22.9493 H   0  0  0  0  0  0  0  0  0  0  0  0
   19.5001   19.5752   21.1226 C   0  0  0  0  0  0  0  0  0  0  0  0
   18.4906   19.7709   20.7370 H   0  0  0  0  0  0  0  0  0  0  0  0
   20.0135   20.5449   21.1666 H   0  0  0  0  0  0  0  0  0  0  0  0
   20.2418   18.6399   20.1392 C   0  0  0  0  0  0  0  0  0  0  0  0
   20.2129   19.0835   19.1341 H   0  0  0  0  0  0  0  0  0  0  0  0
   19.7103   17.6803   20.0686 H   0  0  0  0  0  0  0  0  0  0  0  0
   21.7144   18.3897   20.5376 C   0  0  0  0  0  0  0  0  0  0  0  0
   22.2671   19.3345   20.6211 H   0  0  0  0  0  0  0  0  0  0  0  0
   22.2181   17.7729   19.7820 H   0  0  0  0  0  0  0  0  0  0  0  0
   21.7888   17.8630   21.4974 H   0  0  0  0  0  0  0  0  0  0  0  0
  1  2  1  0  0  0  0
  1  3  1  0  0  0  0
  1  4  1  0  0  0  0
  1  5  1  0  0  0  0
  5  6  1  0  0  0  0
  5  7  1  0  0  0  0
  5  8  1  0  0  0  0
  8  9  1  0  0  0  0
  8 10  1  0  0  0  0
  8 11  1  0  0  0  0
 11 12  1  0  0  0  0
 11 13  1  0  0  0  0
 11 14  1  0  0  0  0
 14 15  1  0  0  0  0
 14 16  1  0  0  0  0
 14 17  1  0  0  0  0
M  END
> <VConfSearch Rank>
968

> <Conf_Id>
36

> <Delta U+W>
0.275

> <U+W>
-15.590

> <U>
45.174

> <W>
-60.765

> <W(PB)>
-62.518

> <W(SA)>
1.754

> <Valence>
1.161

> <Coulomb>
43.789

> <VdW>
0.224

> <VdW6>
-2.897

> <VdW12>
3.121

> <Bond>
0.100

> <Angle>
0.500

> <Pdih>
0.561

> <Idih>
0.000

> <Tether>
0.000

$$$$
VeraChem MOL file


 17 16  0  0  0  0  0  0  0  0999 V2000     
   18.1021   18.7893   21.3923 N   0  3  0  0  0  0  0  0  0  0  0  0
   18.3222   19.3951   22.1868 H   0  0  0  0  0  0  0  0  0  0  0  0
   17.8720   17.8660   21.7719 H   0  0  0  0  0  0  0  0  0  0  0  0
   17.2471   19.1548   20.9609 H   0  0  0  0  0  0  0  0  0  0  0  0
   19.2490   18.7215   20.4022 C   0  0  0  0  0  0  0  0  0  0  0  0
   19.4043   19.7182   19.9807 H   0  0  0  0  0  0  0  0  0  0  0  0
   18.9337   18.0577   19.5926 H   0  0  0  0  0  0  0  0  0  0  0  0
   20.5713   18.1945   20.9983 C   0  0  0  0  0  0  0  0  0  0  0  0
   20.3750   17.3207   21.6337 H   0  0  0  0  0  0  0  0  0  0  0  0
   21.1910   17.8301   20.1682 H   0  0  0  0  0  0  0  0  0  0  0  0
   21.3926   19.2537   21.7768 C   0  0  0  0  0  0  0  0  0  0  0  0
   21.6367   20.0941   21.1119 H   0  0  0  0  0  0  0  0  0  0  0  0
   22.3538   18.8042   22.0634 H   0  0  0  0  0  0  0  0  0  0  0  0
   20.7004   19.7892   23.0508 C   0  0  0  0  0  0  0  0  0  0  0  0
   19.8435   20.4272   22.8052 H   0  0  0  0  0  0  0  0  0  0  0  0
   21.4001   20.4005   23.6356 H   0  0  0  0  0  0  0  0  0  0  0  0
   20.3584   18.9678   23.6938 H   0  0  0  0  0  0  0  0  0  0  0  0
  1  2  1  0  0  0  0
  1  3  1  0  0  0  0
  1  4  1  0  0  0  0
  1  5  1  0  0  0  0
  5  6  1  0  0  0  0
  5  7  1  0  0  0  0
  5  8  1  0  0  0  0
  8  9  1  0  0  0  0
  8 10  1  0  0  0  0
  8 11  1  0  0  0  0
 11 12  1  0  0  0  0
 11 13  1  0  0  0  0
 11 14  1  0  0  0  0
 14 15  1  0  0  0  0
 14 16  1  0  0  0  0
 14 17  1  0  0  0  0
M  END
> <VConfSearch Rank>
969

> <Conf_Id>
19

> <Delta U+W>
2.662

> <U+W>
-13.203

> <U>
47.423

> <W>
-60.626

> <W(PB)>
-62.328

> <W(SA)>
1.702

> <Valence>
2.414

> <Coulomb>
44.831

> <VdW>
0.178

> <VdW6>
-3.743

> <VdW12>
3.921

> <Bond>
0.138

> <Angle>
0.941

> <Pdih>
1.335

> <Idih>
0.000

> <Tether>
0.000

$$$$
VeraChem MOL file


 17 16  0  0  0  0  0  0  0  0999 V2000     
   20.4466   20.8320   21.5907 N   0  3  0  0  0  0  0  0  0  0  0  0
   20.1928   21.8091   21.4125 H   0  0  0  0  0  0  0  0  0  0  0  0
   21.4653   20.8042   21.6956 H   0  0  0  0  0  0  0  0  0  0  0  0
   20.0439   20.5757   22.4957 H   0  0  0  0  0  0  0  0  0  0  0  0
   19.9689   19.9138   20.4823 C   0  0  0  0  0  0  0  0  0  0  0  0
   20.4444   20.2536   19.5583 H   0  0  0  0  0  0  0  0  0  0  0  0
   18.8882   20.0358   20.3708 H   0  0  0  0  0  0  0  0  0  0  0  0
   20.3064   18.4241   20.7030 C   0  0  0  0  0  0  0  0  0  0  0  0
   20.2743   17.9251   19.7253 H   0  0  0  0  0  0  0  0  0  0  0  0
   21.3399   18.3219   21.0595 H   0  0  0  0  0  0  0  0  0  0  0  0
   19.3328   17.6781   21.6508 C   0  0  0  0  0  0  0  0  0  0  0  0
   19.6007   16.6121   21.6528 H   0  0  0  0  0  0  0  0  0  0  0  0
   18.3111   17.7338   21.2496 H   0  0  0  0  0  0  0  0  0  0  0  0
   19.3422   18.1906   23.1089 C   0  0  0  0  0  0  0  0  0  0  0  0
   20.3636   18.2372   23.5085 H   0  0  0  0  0  0  0  0  0  0  0  0
   18.7632   17.5161   23.7531 H   0  0  0  0  0  0  0  0  0  0  0  0
   18.8848   19.1836   23.1893 H   0  0  0  0  0  0  0  0  0  0  0  0
  1  2  1  0  0  0  0
  1  3  1  0  0  0  0
  1  4  1  0  0  0  0
  1  5  1  0  0  0  0
  5  6  1  0  0  0  0
  5  7  1  0  0  0  0
  5  8  1  0  0  0  0
  8  9  1  0  0  0  0
  8 10  1  0  0  0  0
  8 11  1  0  0  0  0
 11 12  1  0  0  0  0
 11 13  1  0  0  0  0
 11 14  1  0  0  0  0
 14 15  1  0  0  0  0
 14 16  1  0  0  0  0
 14 17  1  0  0  0  0
M  END
> <VConfSearch Rank>
970

> <Conf_Id>
44

> <Delta U+W>
2.712

> <U+W>
-13.153

> <U>
47.423

> <W>
-60.576

> <W(PB)>
-62.262

> <W(SA)>
1.687

> <Valence>
2.414

> <Coulomb>
44.831

> <VdW>
0.178

> <VdW6>
-3.743

> <VdW12>
3.922

> <Bond>
0.138

> <Angle>
0.941

> <Pdih>
1.335

> <Idih>
0.000

> <Tether>
0.000

$$$$
VeraChem MOL file


 17 16  0  0  0  0  0  0  0  0999 V2000     
   20.6238   18.7630   23.4356 N   0  3  0  0  0  0  0  0  0  0  0  0
   20.5561   17.8400   22.9975 H   0  0  0  0  0  0  0  0  0  0  0  0
   19.8793   18.8206   24.1369 H   0  0  0  0  0  0  0  0  0  0  0  0
   21.5137   18.7885   23.9436 H   0  0  0  0  0  0  0  0  0  0  0  0
   20.5256   19.8788   22.4133 C   0  0  0  0  0  0  0  0  0  0  0  0
   21.3618   19.7756   21.7169 H   0  0  0  0  0  0  0  0  0  0  0  0
   20.6429   20.8277   22.9438 H   0  0  0  0  0  0  0  0  0  0  0  0
   19.1959   19.8918   21.6313 C   0  0  0  0  0  0  0  0  0  0  0  0
   18.3654   20.0365   22.3349 H   0  0  0  0  0  0  0  0  0  0  0  0
   19.1883   20.7651   20.9658 H   0  0  0  0  0  0  0  0  0  0  0  0
   18.9442   18.6122   20.7953 C   0  0  0  0  0  0  0  0  0  0  0  0
   17.9734   18.7060   20.2885 H   0  0  0  0  0  0  0  0  0  0  0  0
   18.8574   17.7398   21.4570 H   0  0  0  0  0  0  0  0  0  0  0  0
   20.0407   18.3554   19.7363 C   0  0  0  0  0  0  0  0  0  0  0  0
   20.1459   19.2144   19.0609 H   0  0  0  0  0  0  0  0  0  0  0  0
   19.7886   17.4787   19.1257 H   0  0  0  0  0  0  0  0  0  0  0  0
   21.0156   18.1647   20.2023 H   0  0  0  0  0  0  0  0  0  0  0  0
  1  2  1  0  0  0  0
  1  3  1  0  0  0  0
  1  4  1  0  0  0  0
  1  5  1  0  0  0  0
  5  6  1  0  0  0  0
  5  7  1  0  0  0  0
  5  8  1  0  0  0  0
  8  9  1  0  0  0  0
  8 10  1  0  0  0  0
  8 11  1  0  0  0  0
 11 12  1  0  0  0  0
 11 13  1  0  0  0  0
 11 14  1  0  0  0  0
 14 15  1  0  0  0  0
 14 16  1  0  0  0  0
 14 17  1  0  0  0  0
M  END
> <VConfSearch Rank>
971

> <Conf_Id>
1

> <Delta U+W>
0.685

> <U+W>
-15.179

> <U>
45.697

> <W>
-60.876

> <W(PB)>
-62.586

> <W(SA)>
1.710

> <Valence>
1.263

> <Coulomb>
44.179

> <VdW>
0.255

> <VdW6>
-3.552

> <VdW12>
3.807

> <Bond>
0.125

> <Angle>
0.616

> <Pdih>
0.521

> <Idih>
0.000

> <Tether>
0.000

$$$$
VeraChem MOL file


 17 16  0  0  0  0  0  0  0  0999 V2000     
   19.5515   20.5084   20.3267 N   0  3  0  0  0  0  0  0  0  0  0  0
   18.7118   21.0309   20.5937 H   0  0  0  0  0  0  0  0  0  0  0  0
   19.2394   19.6412   19.8807 H   0  0  0  0  0  0  0  0  0  0  0  0
   20.0289   21.0601   19.6067 H   0  0  0  0  0  0  0  0  0  0  0  0
   20.4507   20.2359   21.5171 C   0  0  0  0  0  0  0  0  0  0  0  0
   20.7741   21.2005   21.9178 H   0  0  0  0  0  0  0  0  0  0  0  0
   21.3364   19.7048   21.1590 H   0  0  0  0  0  0  0  0  0  0  0  0
   19.7718   19.4197   22.6364 C   0  0  0  0  0  0  0  0  0  0  0  0
   20.4714   19.3277   23.4778 H   0  0  0  0  0  0  0  0  0  0  0  0
   18.9076   19.9798   23.0174 H   0  0  0  0  0  0  0  0  0  0  0  0
   19.3151   18.0062   22.1970 C   0  0  0  0  0  0  0  0  0  0  0  0
   18.5453   18.0836   21.4172 H   0  0  0  0  0  0  0  0  0  0  0  0
   18.8331   17.5089   23.0504 H   0  0  0  0  0  0  0  0  0  0  0  0
   20.4795   17.1230   21.6933 C   0  0  0  0  0  0  0  0  0  0  0  0
   20.1216   16.1129   21.4555 H   0  0  0  0  0  0  0  0  0  0  0  0
   21.2627   17.0294   22.4568 H   0  0  0  0  0  0  0  0  0  0  0  0
   20.9351   17.5351   20.7841 H   0  0  0  0  0  0  0  0  0  0  0  0
  1  2  1  0  0  0  0
  1  3  1  0  0  0  0
  1  4  1  0  0  0  0
  1  5  1  0  0  0  0
  5  6  1  0  0  0  0
  5  7  1  0  0  0  0
  5  8  1  0  0  0  0
  8  9  1  0  0  0  0
  8 10  1  0  0  0  0
  8 11  1  0  0  0  0
 11 12  1  0  0  0  0
 11 13  1  0  0  0  0
 11 14  1  0  0  0  0
 14 15  1  0  0  0  0
 14 16  1  0  0  0  0
 14 17  1  0  0  0  0
M  END
> <VConfSearch Rank>
972

> <Conf_Id>
43

> <Delta U+W>
0.642

> <U+W>
-15.222

> <U>
45.697

> <W>
-60.919

> <W(PB)>
-62.631

> <W(SA)>
1.712

> <Valence>
1.262

> <Coulomb>
44.179

> <VdW>
0.255

> <VdW6>
-3.552

> <VdW12>
3.807

> <Bond>
0.125

> <Angle>
0.616

> <Pdih>
0.521

> <Idih>
0.000

> <Tether>
0.000

$$$$
VeraChem MOL file


 17 16  0  0  0  0  0  0  0  0999 V2000     
   21.6491   20.7579   20.6842 N   0  3  0  0  0  0  0  0  0  0  0  0
   21.1893   21.6051   21.0314 H   0  0  0  0  0  0  0  0  0  0  0  0
   21.4039   20.6671   19.6936 H   0  0  0  0  0  0  0  0  0  0  0  0
   22.6587   20.9310   20.7247 H   0  0  0  0  0  0  0  0  0  0  0  0
   21.2553   19.5305   21.4816 C   0  0  0  0  0  0  0  0  0  0  0  0
   21.5733   19.6839   22.5164 H   0  0  0  0  0  0  0  0  0  0  0  0
   21.8041   18.6753   21.0779 H   0  0  0  0  0  0  0  0  0  0  0  0
   19.7438   19.2407   21.4423 C   0  0  0  0  0  0  0  0  0  0  0  0
   19.1953   20.1077   21.8340 H   0  0  0  0  0  0  0  0  0  0  0  0
   19.4253   19.1024   20.4005 H   0  0  0  0  0  0  0  0  0  0  0  0
   19.3859   17.9842   22.2661 C   0  0  0  0  0  0  0  0  0  0  0  0
   19.7075   18.1207   23.3083 H   0  0  0  0  0  0  0  0  0  0  0  0
   19.9371   17.1166   21.8765 H   0  0  0  0  0  0  0  0  0  0  0  0
   17.8711   17.6872   22.2313 C   0  0  0  0  0  0  0  0  0  0  0  0
   17.6378   16.7918   22.8219 H   0  0  0  0  0  0  0  0  0  0  0  0
   17.5261   17.5118   21.2040 H   0  0  0  0  0  0  0  0  0  0  0  0
   17.2946   18.5238   22.6471 H   0  0  0  0  0  0  0  0  0  0  0  0
  1  2  1  0  0  0  0
  1  3  1  0  0  0  0
  1  4  1  0  0  0  0
  1  5  1  0  0  0  0
  5  6  1  0  0  0  0
  5  7  1  0  0  0  0
  5  8  1  0  0  0  0
  8  9  1  0  0  0  0
  8 10  1  0  0  0  0
  8 11  1  0  0  0  0
 11 12  1  0  0  0  0
 11 13  1  0  0  0  0
 11 14  1  0  0  0  0
 14 15  1  0  0  0  0
 14 16  1  0  0  0  0
 14 17  1  0  0  0  0
M  END
> <VConfSearch Rank>
973

> <Conf_Id>
7

> <Delta U+W>
0.000

> <U+W>
-15.865

> <U>
44.664

> <W>
-60.529

> <W(PB)>
-62.309

> <W(SA)>
1.780

> <Valence>
0.872

> <Coulomb>
43.648

> <VdW>
0.144

> <VdW6>
-2.370

> <VdW12>
2.515

> <Bond>
0.080

> <Angle>
0.376

> <Pdih>
0.416

> <Idih>
0.000

> <Tether>
0.000

$$$$
VeraChem MOL file


 17 16  0  0  0  0  0  0  0  0999 V2000     
   18.7470   18.2457   23.5460 N   0  3  0  0  0  0  0  0  0  0  0  0
   19.4193   17.7847   24.1666 H   0  0  0  0  0  0  0  0  0  0  0  0
   18.2199   17.5063   23.0714 H   0  0  0  0  0  0  0  0  0  0  0  0
   18.0827   18.7442   24.1468 H   0  0  0  0  0  0  0  0  0  0  0  0
   19.4277   19.1776   22.5634 C   0  0  0  0  0  0  0  0  0  0  0  0
   19.9427   19.9542   23.1355 H   0  0  0  0  0  0  0  0  0  0  0  0
   18.6512   19.6545   21.9597 H   0  0  0  0  0  0  0  0  0  0  0  0
   20.4337   18.4597   21.6434 C   0  0  0  0  0  0  0  0  0  0  0  0
   21.1861   17.9509   22.2607 H   0  0  0  0  0  0  0  0  0  0  0  0
   19.9168   17.6786   21.0702 H   0  0  0  0  0  0  0  0  0  0  0  0
   21.1500   19.4274   20.6726 C   0  0  0  0  0  0  0  0  0  0  0  0
   21.9069   18.8680   20.1049 H   0  0  0  0  0  0  0  0  0  0  0  0
   21.6955   20.1904   21.2457 H   0  0  0  0  0  0  0  0  0  0  0  0
   20.1828   20.1149   19.6818 C   0  0  0  0  0  0  0  0  0  0  0  0
   19.6202   19.3733   19.0999 H   0  0  0  0  0  0  0  0  0  0  0  0
   20.7392   20.7433   18.9742 H   0  0  0  0  0  0  0  0  0  0  0  0
   19.4636   20.7600   20.2020 H   0  0  0  0  0  0  0  0  0  0  0  0
  1  2  1  0  0  0  0
  1  3  1  0  0  0  0
  1  4  1  0  0  0  0
  1  5  1  0  0  0  0
  5  6  1  0  0  0  0
  5  7  1  0  0  0  0
  5  8  1  0  0  0  0
  8  9  1  0  0  0  0
  8 10  1  0  0  0  0
  8 11  1  0  0  0  0
 11 12  1  0  0  0  0
 11 13  1  0  0  0  0
 11 14  1  0  0  0  0
 14 15  1  0  0  0  0
 14 16  1  0  0  0  0
 14 17  1  0  0  0  0
M  END
> <VConfSearch Rank>
974

> <Conf_Id>
36

> <Delta U+W>
0.275

> <U+W>
-15.590

> <U>
45.174

> <W>
-60.765

> <W(PB)>
-62.518

> <W(SA)>
1.754

> <Valence>
1.161

> <Coulomb>
43.789

> <VdW>
0.224

> <VdW6>
-2.897

> <VdW12>
3.121

> <Bond>
0.100

> <Angle>
0.500

> <Pdih>
0.561

> <Idih>
0.000

> <Tether>
0.000

$$$$
VeraChem MOL file


 17 16  0  0  0  0  0  0  0  0999 V2000     
   19.4856   20.4327   22.6789 N   0  3  0  0  0  0  0  0  0  0  0  0
   20.4724   20.4644   22.4103 H   0  0  0  0  0  0  0  0  0  0  0  0
   19.4454   20.0704   23.6363 H   0  0  0  0  0  0  0  0  0  0  0  0
   19.1502   21.4008   22.7132 H   0  0  0  0  0  0  0  0  0  0  0  0
   18.6691   19.5863   21.7214 C   0  0  0  0  0  0  0  0  0  0  0  0
   18.6926   20.0563   20.7345 H   0  0  0  0  0  0  0  0  0  0  0  0
   17.6362   19.6043   22.0796 H   0  0  0  0  0  0  0  0  0  0  0  0
   19.1380   18.1200   21.6128 C   0  0  0  0  0  0  0  0  0  0  0  0
   19.3543   17.7199   22.6123 H   0  0  0  0  0  0  0  0  0  0  0  0
   18.2980   17.5275   21.2266 H   0  0  0  0  0  0  0  0  0  0  0  0
   20.3490   17.9005   20.6705 C   0  0  0  0  0  0  0  0  0  0  0  0
   20.0973   18.2473   19.6583 H   0  0  0  0  0  0  0  0  0  0  0  0
   20.5297   16.8198   20.5852 H   0  0  0  0  0  0  0  0  0  0  0  0
   21.6548   18.5823   21.1386 C   0  0  0  0  0  0  0  0  0  0  0  0
   21.5963   19.6727   21.0422 H   0  0  0  0  0  0  0  0  0  0  0  0
   22.5000   18.2493   20.5222 H   0  0  0  0  0  0  0  0  0  0  0  0
   21.8841   18.3303   22.1822 H   0  0  0  0  0  0  0  0  0  0  0  0
  1  2  1  0  0  0  0
  1  3  1  0  0  0  0
  1  4  1  0  0  0  0
  1  5  1  0  0  0  0
  5  6  1  0  0  0  0
  5  7  1  0  0  0  0
  5  8  1  0  0  0  0
  8  9  1  0  0  0  0
  8 10  1  0  0  0  0
  8 11  1  0  0  0  0
 11 12  1  0  0  0  0
 11 13  1  0  0  0  0
 11 14  1  0  0  0  0
 14 15  1  0  0  0  0
 14 16  1  0  0  0  0
 14 17  1  0  0  0  0
M  END
> <VConfSearch Rank>
975

> <Conf_Id>
19

> <Delta U+W>
2.662

> <U+W>
-13.203

> <U>
47.423

> <W>
-60.626

> <W(PB)>
-62.328

> <W(SA)>
1.702

> <Valence>
2.414

> <Coulomb>
44.831

> <VdW>
0.178

> <VdW6>
-3.743

> <VdW12>
3.921

> <Bond>
0.138

> <Angle>
0.941

> <Pdih>
1.335

> <Idih>
0.000

> <Tether>
0.000

$$$$
VeraChem MOL file


 17 16  0  0  0  0  0  0  0  0999 V2000     
   20.8527   17.9680   22.7467 N   0  3  0  0  0  0  0  0  0  0  0  0
   21.7436   17.4922   22.9224 H   0  0  0  0  0  0  0  0  0  0  0  0
   20.1785   17.5951   23.4219 H   0  0  0  0  0  0  0  0  0  0  0  0
   20.9888   18.9567   22.9721 H   0  0  0  0  0  0  0  0  0  0  0  0
   20.3833   17.7766   21.3173 C   0  0  0  0  0  0  0  0  0  0  0  0
   20.2618   16.7011   21.1619 H   0  0  0  0  0  0  0  0  0  0  0  0
   21.1685   18.1287   20.6430 H   0  0  0  0  0  0  0  0  0  0  0  0
   19.0534   18.4859   20.9860 C   0  0  0  0  0  0  0  0  0  0  0  0
   18.6221   17.9939   20.1041 H   0  0  0  0  0  0  0  0  0  0  0  0
   18.3324   18.3315   21.7997 H   0  0  0  0  0  0  0  0  0  0  0  0
   19.1925   19.9967   20.6684 C   0  0  0  0  0  0  0  0  0  0  0  0
   18.2118   20.3742   20.3461 H   0  0  0  0  0  0  0  0  0  0  0  0
   19.8672   20.1337   19.8116 H   0  0  0  0  0  0  0  0  0  0  0  0
   19.6852   20.8564   21.8546 C   0  0  0  0  0  0  0  0  0  0  0  0
   19.0880   20.6705   22.7568 H   0  0  0  0  0  0  0  0  0  0  0  0
   19.5993   21.9237   21.6125 H   0  0  0  0  0  0  0  0  0  0  0  0
   20.7399   20.6619   22.0816 H   0  0  0  0  0  0  0  0  0  0  0  0
  1  2  1  0  0  0  0
  1  3  1  0  0  0  0
  1  4  1  0  0  0  0
  1  5  1  0  0  0  0
  5  6  1  0  0  0  0
  5  7  1  0  0  0  0
  5  8  1  0  0  0  0
  8  9  1  0  0  0  0
  8 10  1  0  0  0  0
  8 11  1  0  0  0  0
 11 12  1  0  0  0  0
 11 13  1  0  0  0  0
 11 14  1  0  0  0  0
 14 15  1  0  0  0  0
 14 16  1  0  0  0  0
 14 17  1  0  0  0  0
M  END
> <VConfSearch Rank>
976

> <Conf_Id>
44

> <Delta U+W>
2.712

> <U+W>
-13.153

> <U>
47.423

> <W>
-60.576

> <W(PB)>
-62.262

> <W(SA)>
1.687

> <Valence>
2.414

> <Coulomb>
44.831

> <VdW>
0.178

> <VdW6>
-3.743

> <VdW12>
3.922

> <Bond>
0.138

> <Angle>
0.941

> <Pdih>
1.335

> <Idih>
0.000

> <Tether>
0.000

$$$$
VeraChem MOL file


 17 16  0  0  0  0  0  0  0  0999 V2000     
   17.9595   19.1454   21.9090 N   0  3  0  0  0  0  0  0  0  0  0  0
   18.2296   19.9895   21.3961 H   0  0  0  0  0  0  0  0  0  0  0  0
   17.7456   19.4301   22.8695 H   0  0  0  0  0  0  0  0  0  0  0  0
   17.0832   18.8115   21.4953 H   0  0  0  0  0  0  0  0  0  0  0  0
   19.0450   18.0875   21.8609 C   0  0  0  0  0  0  0  0  0  0  0  0
   19.2019   17.8093   20.8155 H   0  0  0  0  0  0  0  0  0  0  0  0
   18.6753   17.2067   22.3930 H   0  0  0  0  0  0  0  0  0  0  0  0
   20.3817   18.5379   22.4857 C   0  0  0  0  0  0  0  0  0  0  0  0
   20.2220   18.7760   23.5456 H   0  0  0  0  0  0  0  0  0  0  0  0
   21.0819   17.6922   22.4646 H   0  0  0  0  0  0  0  0  0  0  0  0
   21.0301   19.7536   21.7777 C   0  0  0  0  0  0  0  0  0  0  0  0
   21.9638   20.0093   22.2980 H   0  0  0  0  0  0  0  0  0  0  0  0
   20.3807   20.6347   21.8700 H   0  0  0  0  0  0  0  0  0  0  0  0
   21.3419   19.4904   20.2866 C   0  0  0  0  0  0  0  0  0  0  0  0
   21.9916   18.6135   20.1681 H   0  0  0  0  0  0  0  0  0  0  0  0
   21.8583   20.3518   19.8434 H   0  0  0  0  0  0  0  0  0  0  0  0
   20.4264   19.3193   19.7066 H   0  0  0  0  0  0  0  0  0  0  0  0
  1  2  1  0  0  0  0
  1  3  1  0  0  0  0
  1  4  1  0  0  0  0
  1  5  1  0  0  0  0
  5  6  1  0  0  0  0
  5  7  1  0  0  0  0
  5  8  1  0  0  0  0
  8  9  1  0  0  0  0
  8 10  1  0  0  0  0
  8 11  1  0  0  0  0
 11 12  1  0  0  0  0
 11 13  1  0  0  0  0
 11 14  1  0  0  0  0
 14 15  1  0  0  0  0
 14 16  1  0  0  0  0
 14 17  1  0  0  0  0
M  END
> <VConfSearch Rank>
977

> <Conf_Id>
1

> <Delta U+W>
0.685

> <U+W>
-15.179

> <U>
45.697

> <W>
-60.876

> <W(PB)>
-62.586

> <W(SA)>
1.710

> <Valence>
1.263

> <Coulomb>
44.179

> <VdW>
0.255

> <VdW6>
-3.552

> <VdW12>
3.807

> <Bond>
0.125

> <Angle>
0.616

> <Pdih>
0.521

> <Idih>
0.000

> <Tether>
0.000

$$$$
VeraChem MOL file


 17 16  0  0  0  0  0  0  0  0999 V2000     
   19.0803   17.9277   23.0191 N   0  3  0  0  0  0  0  0  0  0  0  0
   19.7030   17.1776   23.3337 H   0  0  0  0  0  0  0  0  0  0  0  0
   18.6755   17.6309   22.1267 H   0  0  0  0  0  0  0  0  0  0  0  0
   18.3109   17.9786   23.6945 H   0  0  0  0  0  0  0  0  0  0  0  0
   19.8084   19.2520   22.8930 C   0  0  0  0  0  0  0  0  0  0  0  0
   20.1796   19.5237   23.8850 H   0  0  0  0  0  0  0  0  0  0  0  0
   19.0837   20.0099   22.5844 H   0  0  0  0  0  0  0  0  0  0  0  0
   20.9864   19.2226   21.8974 C   0  0  0  0  0  0  0  0  0  0  0  0
   21.4901   20.1981   21.9202 H   0  0  0  0  0  0  0  0  0  0  0  0
   21.7279   18.4878   22.2379 H   0  0  0  0  0  0  0  0  0  0  0  0
   20.5721   18.8975   20.4406 C   0  0  0  0  0  0  0  0  0  0  0  0
   20.1492   17.8852   20.3853 H   0  0  0  0  0  0  0  0  0  0  0  0
   21.4729   18.8845   19.8111 H   0  0  0  0  0  0  0  0  0  0  0  0
   19.5656   19.9148   19.8560 C   0  0  0  0  0  0  0  0  0  0  0  0
   19.3513   19.6836   18.8045 H   0  0  0  0  0  0  0  0  0  0  0  0
   19.9665   20.9358   19.8991 H   0  0  0  0  0  0  0  0  0  0  0  0
   18.6125   19.8979   20.3993 H   0  0  0  0  0  0  0  0  0  0  0  0
  1  2  1  0  0  0  0
  1  3  1  0  0  0  0
  1  4  1  0  0  0  0
  1  5  1  0  0  0  0
  5  6  1  0  0  0  0
  5  7  1  0  0  0  0
  5  8  1  0  0  0  0
  8  9  1  0  0  0  0
  8 10  1  0  0  0  0
  8 11  1  0  0  0  0
 11 12  1  0  0  0  0
 11 13  1  0  0  0  0
 11 14  1  0  0  0  0
 14 15  1  0  0  0  0
 14 16  1  0  0  0  0
 14 17  1  0  0  0  0
M  END
> <VConfSearch Rank>
978

> <Conf_Id>
43

> <Delta U+W>
0.642

> <U+W>
-15.222

> <U>
45.697

> <W>
-60.919

> <W(PB)>
-62.631

> <W(SA)>
1.712

> <Valence>
1.262

> <Coulomb>
44.179

> <VdW>
0.255

> <VdW6>
-3.552

> <VdW12>
3.807

> <Bond>
0.125

> <Angle>
0.616

> <Pdih>
0.521

> <Idih>
0.000

> <Tether>
0.000

$$$$
VeraChem MOL file


 17 16  0  0  0  0  0  0  0  0999 V2000     
   22.3311   18.2664   22.1655 N   0  3  0  0  0  0  0  0  0  0  0  0
   22.6099   17.9987   21.2166 H   0  0  0  0  0  0  0  0  0  0  0  0
   22.0701   17.4058   22.6563 H   0  0  0  0  0  0  0  0  0  0  0  0
   23.1702   18.6292   22.6294 H   0  0  0  0  0  0  0  0  0  0  0  0
   21.2057   19.2817   22.1617 C   0  0  0  0  0  0  0  0  0  0  0  0
   21.5634   20.1803   21.6518 H   0  0  0  0  0  0  0  0  0  0  0  0
   20.9831   19.5427   23.1999 H   0  0  0  0  0  0  0  0  0  0  0  0
   19.9284   18.7690   21.4718 C   0  0  0  0  0  0  0  0  0  0  0  0
   20.1592   18.4934   20.4342 H   0  0  0  0  0  0  0  0  0  0  0  0
   19.5808   17.8581   21.9770 H   0  0  0  0  0  0  0  0  0  0  0  0
   18.8085   19.8326   21.4899 C   0  0  0  0  0  0  0  0  0  0  0  0
   19.1571   20.7459   20.9872 H   0  0  0  0  0  0  0  0  0  0  0  0
   18.5793   20.1113   22.5282 H   0  0  0  0  0  0  0  0  0  0  0  0
   17.5240   19.3254   20.7994 C   0  0  0  0  0  0  0  0  0  0  0  0
   16.7414   20.0948   20.8228 H   0  0  0  0  0  0  0  0  0  0  0  0
   17.1318   18.4315   21.3017 H   0  0  0  0  0  0  0  0  0  0  0  0
   17.7141   19.0710   19.7485 H   0  0  0  0  0  0  0  0  0  0  0  0
  1  2  1  0  0  0  0
  1  3  1  0  0  0  0
  1  4  1  0  0  0  0
  1  5  1  0  0  0  0
  5  6  1  0  0  0  0
  5  7  1  0  0  0  0
  5  8  1  0  0  0  0
  8  9  1  0  0  0  0
  8 10  1  0  0  0  0
  8 11  1  0  0  0  0
 11 12  1  0  0  0  0
 11 13  1  0  0  0  0
 11 14  1  0  0  0  0
 14 15  1  0  0  0  0
 14 16  1  0  0  0  0
 14 17  1  0  0  0  0
M  END
> <VConfSearch Rank>
979

> <Conf_Id>
7

> <Delta U+W>
0.000

> <U+W>
-15.865

> <U>
44.664

> <W>
-60.529

> <W(PB)>
-62.309

> <W(SA)>
1.780

> <Valence>
0.872

> <Coulomb>
43.648

> <VdW>
0.144

> <VdW6>
-2.370

> <VdW12>
2.515

> <Bond>
0.080

> <Angle>
0.376

> <Pdih>
0.416

> <Idih>
0.000

> <Tether>
0.000

$$$$
VeraChem MOL file


 17 16  0  0  0  0  0  0  0  0999 V2000     
   18.9168   16.9068   21.7240 N   0  3  0  0  0  0  0  0  0  0  0  0
   19.5978   16.2144   21.3978 H   0  0  0  0  0  0  0  0  0  0  0  0
   18.2326   17.0331   20.9719 H   0  0  0  0  0  0  0  0  0  0  0  0
   18.4165   16.4819   22.5115 H   0  0  0  0  0  0  0  0  0  0  0  0
   19.5781   18.2133   22.1151 C   0  0  0  0  0  0  0  0  0  0  0  0
   20.2689   18.0095   22.9377 H   0  0  0  0  0  0  0  0  0  0  0  0
   18.7993   18.8877   22.4805 H   0  0  0  0  0  0  0  0  0  0  0  0
   20.3395   18.8796   20.9531 C   0  0  0  0  0  0  0  0  0  0  0  0
   21.0920   18.1791   20.5674 H   0  0  0  0  0  0  0  0  0  0  0  0
   19.6459   19.0829   20.1263 H   0  0  0  0  0  0  0  0  0  0  0  0
   21.0422   20.1913   21.3748 C   0  0  0  0  0  0  0  0  0  0  0  0
   21.6294   20.5702   20.5266 H   0  0  0  0  0  0  0  0  0  0  0  0
   21.7612   19.9839   22.1799 H   0  0  0  0  0  0  0  0  0  0  0  0
   20.0523   21.2871   21.8323 C   0  0  0  0  0  0  0  0  0  0  0  0
   19.3182   21.5091   21.0469 H   0  0  0  0  0  0  0  0  0  0  0  0
   20.5875   22.2173   22.0628 H   0  0  0  0  0  0  0  0  0  0  0  0
   19.5072   20.9866   22.7360 H   0  0  0  0  0  0  0  0  0  0  0  0
  1  2  1  0  0  0  0
  1  3  1  0  0  0  0
  1  4  1  0  0  0  0
  1  5  1  0  0  0  0
  5  6  1  0  0  0  0
  5  7  1  0  0  0  0
  5  8  1  0  0  0  0
  8  9  1  0  0  0  0
  8 10  1  0  0  0  0
  8 11  1  0  0  0  0
 11 12  1  0  0  0  0
 11 13  1  0  0  0  0
 11 14  1  0  0  0  0
 14 15  1  0  0  0  0
 14 16  1  0  0  0  0
 14 17  1  0  0  0  0
M  END
> <VConfSearch Rank>
980

> <Conf_Id>
36

> <Delta U+W>
0.275

> <U+W>
-15.590

> <U>
45.174

> <W>
-60.765

> <W(PB)>
-62.518

> <W(SA)>
1.754

> <Valence>
1.161

> <Coulomb>
43.789

> <VdW>
0.224

> <VdW6>
-2.897

> <VdW12>
3.121

> <Bond>
0.100

> <Angle>
0.500

> <Pdih>
0.561

> <Idih>
0.000

> <Tether>
0.000

$$$$
VeraChem MOL file


 17 16  0  0  0  0  0  0  0  0999 V2000     
   21.2541   18.7072   20.3187 N   0  3  0  0  0  0  0  0  0  0  0  0
   21.3603   19.6211   20.7663 H   0  0  0  0  0  0  0  0  0  0  0  0
   20.8040   18.8661   19.4123 H   0  0  0  0  0  0  0  0  0  0  0  0
   22.1967   18.3541   20.1247 H   0  0  0  0  0  0  0  0  0  0  0  0
   20.4587   17.7472   21.1823 C   0  0  0  0  0  0  0  0  0  0  0  0
   21.0178   17.5628   22.1035 H   0  0  0  0  0  0  0  0  0  0  0  0
   20.3914   16.8040   20.6333 H   0  0  0  0  0  0  0  0  0  0  0  0
   19.0342   18.2327   21.5240 C   0  0  0  0  0  0  0  0  0  0  0  0
   18.5557   18.6525   20.6293 H   0  0  0  0  0  0  0  0  0  0  0  0
   18.4378   17.3530   21.7999 H   0  0  0  0  0  0  0  0  0  0  0  0
   18.9638   19.2431   22.6974 C   0  0  0  0  0  0  0  0  0  0  0  0
   19.3886   18.7879   23.6031 H   0  0  0  0  0  0  0  0  0  0  0  0
   17.9059   19.4382   22.9230 H   0  0  0  0  0  0  0  0  0  0  0  0
   19.6651   20.5926   22.4217 C   0  0  0  0  0  0  0  0  0  0  0  0
   20.7554   20.4815   22.3959 H   0  0  0  0  0  0  0  0  0  0  0  0
   19.4333   21.3116   23.2182 H   0  0  0  0  0  0  0  0  0  0  0  0
   19.3305   21.0290   21.4716 H   0  0  0  0  0  0  0  0  0  0  0  0
  1  2  1  0  0  0  0
  1  3  1  0  0  0  0
  1  4  1  0  0  0  0
  1  5  1  0  0  0  0
  5  6  1  0  0  0  0
  5  7  1  0  0  0  0
  5  8  1  0  0  0  0
  8  9  1  0  0  0  0
  8 10  1  0  0  0  0
  8 11  1  0  0  0  0
 11 12  1  0  0  0  0
 11 13  1  0  0  0  0
 11 14  1  0  0  0  0
 14 15  1  0  0  0  0
 14 16  1  0  0  0  0
 14 17  1  0  0  0  0
M  END
> <VConfSearch Rank>
981

> <Conf_Id>
19

> <Delta U+W>
2.662

> <U+W>
-13.203

> <U>
47.423

> <W>
-60.626

> <W(PB)>
-62.328

> <W(SA)>
1.702

> <Valence>
2.414

> <Coulomb>
44.831

> <VdW>
0.178

> <VdW6>
-3.743

> <VdW12>
3.921

> <Bond>
0.138

> <Angle>
0.941

> <Pdih>
1.335

> <Idih>
0.000

> <Tether>
0.000

$$$$
VeraChem MOL file


 17 16  0  0  0  0  0  0  0  0999 V2000     
   19.6097   17.8731   23.0037 N   0  3  0  0  0  0  0  0  0  0  0  0
   18.9282   17.4293   23.6277 H   0  0  0  0  0  0  0  0  0  0  0  0
   20.5386   17.6668   23.3833 H   0  0  0  0  0  0  0  0  0  0  0  0
   19.5428   17.4007   22.0986 H   0  0  0  0  0  0  0  0  0  0  0  0
   19.3711   19.3655   22.8779 C   0  0  0  0  0  0  0  0  0  0  0  0
   19.4621   19.7896   23.8816 H   0  0  0  0  0  0  0  0  0  0  0  0
   18.3455   19.5264   22.5350 H   0  0  0  0  0  0  0  0  0  0  0  0
   20.3565   20.0883   21.9355 C   0  0  0  0  0  0  0  0  0  0  0  0
   20.3539   21.1537   22.2015 H   0  0  0  0  0  0  0  0  0  0  0  0
   21.3797   19.7346   22.1190 H   0  0  0  0  0  0  0  0  0  0  0  0
   20.0079   19.9724   20.4296 C   0  0  0  0  0  0  0  0  0  0  0  0
   20.7058   20.6049   19.8632 H   0  0  0  0  0  0  0  0  0  0  0  0
   19.0065   20.3879   20.2490 H   0  0  0  0  0  0  0  0  0  0  0  0
   20.0783   18.5349   19.8662 C   0  0  0  0  0  0  0  0  0  0  0  0
   21.0348   18.0562   20.1135 H   0  0  0  0  0  0  0  0  0  0  0  0
   19.9866   18.5500   18.7723 H   0  0  0  0  0  0  0  0  0  0  0  0
   19.2612   17.9123   20.2489 H   0  0  0  0  0  0  0  0  0  0  0  0
  1  2  1  0  0  0  0
  1  3  1  0  0  0  0
  1  4  1  0  0  0  0
  1  5  1  0  0  0  0
  5  6  1  0  0  0  0
  5  7  1  0  0  0  0
  5  8  1  0  0  0  0
  8  9  1  0  0  0  0
  8 10  1  0  0  0  0
  8 11  1  0  0  0  0
 11 12  1  0  0  0  0
 11 13  1  0  0  0  0
 11 14  1  0  0  0  0
 14 15  1  0  0  0  0
 14 16  1  0  0  0  0
 14 17  1  0  0  0  0
M  END
> <VConfSearch Rank>
982

> <Conf_Id>
44

> <Delta U+W>
2.712

> <U+W>
-13.153

> <U>
47.423

> <W>
-60.576

> <W(PB)>
-62.262

> <W(SA)>
1.687

> <Valence>
2.414

> <Coulomb>
44.831

> <VdW>
0.178

> <VdW6>
-3.743

> <VdW12>
3.922

> <Bond>
0.138

> <Angle>
0.941

> <Pdih>
1.335

> <Idih>
0.000

> <Tether>
0.000

$$$$
VeraChem MOL file


 17 16  0  0  0  0  0  0  0  0999 V2000     
   19.5720   19.7163   19.7643 N   0  3  0  0  0  0  0  0  0  0  0  0
   19.2169   20.4205   20.4173 H   0  0  0  0  0  0  0  0  0  0  0  0
   18.7593   19.2581   19.3415 H   0  0  0  0  0  0  0  0  0  0  0  0
   20.0535   20.2207   19.0131 H   0  0  0  0  0  0  0  0  0  0  0  0
   20.4872   18.7223   20.4531 C   0  0  0  0  0  0  0  0  0  0  0  0
   21.3436   19.2707   20.8540 H   0  0  0  0  0  0  0  0  0  0  0  0
   20.8563   18.0279   19.6935 H   0  0  0  0  0  0  0  0  0  0  0  0
   19.8036   17.9262   21.5839 C   0  0  0  0  0  0  0  0  0  0  0  0
   18.9702   17.3473   21.1642 H   0  0  0  0  0  0  0  0  0  0  0  0
   20.5182   17.1915   21.9779 H   0  0  0  0  0  0  0  0  0  0  0  0
   19.2835   18.8058   22.7481 C   0  0  0  0  0  0  0  0  0  0  0  0
   18.8026   18.1573   23.4939 H   0  0  0  0  0  0  0  0  0  0  0  0
   18.4997   19.4854   22.3870 H   0  0  0  0  0  0  0  0  0  0  0  0
   20.4018   19.6205   23.4377 C   0  0  0  0  0  0  0  0  0  0  0  0
   21.1980   18.9623   23.8089 H   0  0  0  0  0  0  0  0  0  0  0  0
   20.0004   20.1764   24.2950 H   0  0  0  0  0  0  0  0  0  0  0  0
   20.8518   20.3495   22.7522 H   0  0  0  0  0  0  0  0  0  0  0  0
  1  2  1  0  0  0  0
  1  3  1  0  0  0  0
  1  4  1  0  0  0  0
  1  5  1  0  0  0  0
  5  6  1  0  0  0  0
  5  7  1  0  0  0  0
  5  8  1  0  0  0  0
  8  9  1  0  0  0  0
  8 10  1  0  0  0  0
  8 11  1  0  0  0  0
 11 12  1  0  0  0  0
 11 13  1  0  0  0  0
 11 14  1  0  0  0  0
 14 15  1  0  0  0  0
 14 16  1  0  0  0  0
 14 17  1  0  0  0  0
M  END
> <VConfSearch Rank>
983

> <Conf_Id>
1

> <Delta U+W>
0.685

> <U+W>
-15.179

> <U>
45.697

> <W>
-60.876

> <W(PB)>
-62.586

> <W(SA)>
1.710

> <Valence>
1.263

> <Coulomb>
44.179

> <VdW>
0.255

> <VdW6>
-3.552

> <VdW12>
3.807

> <Bond>
0.125

> <Angle>
0.616

> <Pdih>
0.521

> <Idih>
0.000

> <Tether>
0.000

$$$$
VeraChem MOL file


 17 16  0  0  0  0  0  0  0  0999 V2000     
   21.3648   20.3964   21.5157 N   0  3  0  0  0  0  0  0  0  0  0  0
   21.7716   20.4571   20.5775 H   0  0  0  0  0  0  0  0  0  0  0  0
   21.7630   19.5670   21.9651 H   0  0  0  0  0  0  0  0  0  0  0  0
   21.7011   21.2109   22.0392 H   0  0  0  0  0  0  0  0  0  0  0  0
   19.8499   20.3395   21.4730 C   0  0  0  0  0  0  0  0  0  0  0  0
   19.4946   21.2678   21.0174 H   0  0  0  0  0  0  0  0  0  0  0  0
   19.4824   20.3060   22.5018 H   0  0  0  0  0  0  0  0  0  0  0  0
   19.2939   19.1372   20.6824 C   0  0  0  0  0  0  0  0  0  0  0  0
   18.1989   19.2138   20.6506 H   0  0  0  0  0  0  0  0  0  0  0  0
   19.6351   19.2019   19.6407 H   0  0  0  0  0  0  0  0  0  0  0  0
   19.6912   17.7595   21.2688 C   0  0  0  0  0  0  0  0  0  0  0  0
   20.7810   17.6296   21.2227 H   0  0  0  0  0  0  0  0  0  0  0  0
   19.2646   16.9691   20.6354 H   0  0  0  0  0  0  0  0  0  0  0  0
   19.2036   17.5566   22.7217 C   0  0  0  0  0  0  0  0  0  0  0  0
   19.4493   16.5459   23.0726 H   0  0  0  0  0  0  0  0  0  0  0  0
   18.1153   17.6805   22.7937 H   0  0  0  0  0  0  0  0  0  0  0  0
   19.6757   18.2693   23.4095 H   0  0  0  0  0  0  0  0  0  0  0  0
  1  2  1  0  0  0  0
  1  3  1  0  0  0  0
  1  4  1  0  0  0  0
  1  5  1  0  0  0  0
  5  6  1  0  0  0  0
  5  7  1  0  0  0  0
  5  8  1  0  0  0  0
  8  9  1  0  0  0  0
  8 10  1  0  0  0  0
  8 11  1  0  0  0  0
 11 12  1  0  0  0  0
 11 13  1  0  0  0  0
 11 14  1  0  0  0  0
 14 15  1  0  0  0  0
 14 16  1  0  0  0  0
 14 17  1  0  0  0  0
M  END
> <VConfSearch Rank>
984

> <Conf_Id>
43

> <Delta U+W>
0.642

> <U+W>
-15.222

> <U>
45.697

> <W>
-60.919

> <W(PB)>
-62.631

> <W(SA)>
1.712

> <Valence>
1.262

> <Coulomb>
44.179

> <VdW>
0.255

> <VdW6>
-3.552

> <VdW12>
3.807

> <Bond>
0.125

> <Angle>
0.616

> <Pdih>
0.521

> <Idih>
0.000

> <Tether>
0.000

$$$$
VeraChem MOL file


 17 16  0  0  0  0  0  0  0  0999 V2000     
   21.8453   20.3849   22.7282 N   0  3  0  0  0  0  0  0  0  0  0  0
   22.2992   19.5953   23.1975 H   0  0  0  0  0  0  0  0  0  0  0  0
   21.2722   20.8628   23.4302 H   0  0  0  0  0  0  0  0  0  0  0  0
   22.5892   21.0369   22.4593 H   0  0  0  0  0  0  0  0  0  0  0  0
   21.0260   19.9405   21.5330 C   0  0  0  0  0  0  0  0  0  0  0  0
   21.7035   19.4692   20.8157 H   0  0  0  0  0  0  0  0  0  0  0  0
   20.5991   20.8322   21.0660 H   0  0  0  0  0  0  0  0  0  0  0  0
   19.8983   18.9592   21.9014 C   0  0  0  0  0  0  0  0  0  0  0  0
   20.3294   18.0720   22.3841 H   0  0  0  0  0  0  0  0  0  0  0  0
   19.2287   19.4303   22.6333 H   0  0  0  0  0  0  0  0  0  0  0  0
   19.0894   18.5321   20.6569 C   0  0  0  0  0  0  0  0  0  0  0  0
   19.7597   18.0635   19.9225 H   0  0  0  0  0  0  0  0  0  0  0  0
   18.6604   19.4202   20.1715 H   0  0  0  0  0  0  0  0  0  0  0  0
   17.9564   17.5476   21.0188 C   0  0  0  0  0  0  0  0  0  0  0  0
   17.3942   17.2567   20.1219 H   0  0  0  0  0  0  0  0  0  0  0  0
   17.2497   18.0009   21.7262 H   0  0  0  0  0  0  0  0  0  0  0  0
   18.3577   16.6335   21.4753 H   0  0  0  0  0  0  0  0  0  0  0  0
  1  2  1  0  0  0  0
  1  3  1  0  0  0  0
  1  4  1  0  0  0  0
  1  5  1  0  0  0  0
  5  6  1  0  0  0  0
  5  7  1  0  0  0  0
  5  8  1  0  0  0  0
  8  9  1  0  0  0  0
  8 10  1  0  0  0  0
  8 11  1  0  0  0  0
 11 12  1  0  0  0  0
 11 13  1  0  0  0  0
 11 14  1  0  0  0  0
 14 15  1  0  0  0  0
 14 16  1  0  0  0  0
 14 17  1  0  0  0  0
M  END
> <VConfSearch Rank>
985

> <Conf_Id>
7

> <Delta U+W>
0.000

> <U+W>
-15.865

> <U>
44.664

> <W>
-60.529

> <W(PB)>
-62.309

> <W(SA)>
1.780

> <Valence>
0.872

> <Coulomb>
43.648

> <VdW>
0.144

> <VdW6>
-2.370

> <VdW12>
2.515

> <Bond>
0.080

> <Angle>
0.376

> <Pdih>
0.416

> <Idih>
0.000

> <Tether>
0.000

$$$$
VeraChem MOL file


 17 16  0  0  0  0  0  0  0  0999 V2000     
   20.6549   20.1142   23.6851 N   0  3  0  0  0  0  0  0  0  0  0  0
   21.6718   20.2344   23.6521 H   0  0  0  0  0  0  0  0  0  0  0  0
   20.4659   19.3215   24.3060 H   0  0  0  0  0  0  0  0  0  0  0  0
   20.2729   20.9476   24.1437 H   0  0  0  0  0  0  0  0  0  0  0  0
   20.0623   19.9084   22.3053 C   0  0  0  0  0  0  0  0  0  0  0  0
   20.2751   20.8002   21.7097 H   0  0  0  0  0  0  0  0  0  0  0  0
   18.9784   19.8200   22.4151 H   0  0  0  0  0  0  0  0  0  0  0  0
   20.6153   18.6625   21.5871 C   0  0  0  0  0  0  0  0  0  0  0  0
   21.7083   18.7427   21.5177 H   0  0  0  0  0  0  0  0  0  0  0  0
   20.4031   17.7670   22.1862 H   0  0  0  0  0  0  0  0  0  0  0  0
   20.0325   18.4856   20.1655 C   0  0  0  0  0  0  0  0  0  0  0  0
   20.5252   17.6306   19.6815 H   0  0  0  0  0  0  0  0  0  0  0  0
   20.2729   19.3670   19.5544 H   0  0  0  0  0  0  0  0  0  0  0  0
   18.5040   18.2538   20.1637 C   0  0  0  0  0  0  0  0  0  0  0  0
   18.2360   17.3809   20.7732 H   0  0  0  0  0  0  0  0  0  0  0  0
   18.1434   18.0726   19.1428 H   0  0  0  0  0  0  0  0  0  0  0  0
   17.9634   19.1246   20.5556 H   0  0  0  0  0  0  0  0  0  0  0  0
  1  2  1  0  0  0  0
  1  3  1  0  0  0  0
  1  4  1  0  0  0  0
  1  5  1  0  0  0  0
  5  6  1  0  0  0  0
  5  7  1  0  0  0  0
  5  8  1  0  0  0  0
  8  9  1  0  0  0  0
  8 10  1  0  0  0  0
  8 11  1  0  0  0  0
 11 12  1  0  0  0  0
 11 13  1  0  0  0  0
 11 14  1  0  0  0  0
 14 15  1  0  0  0  0
 14 16  1  0  0  0  0
 14 17  1  0  0  0  0
M  END
> <VConfSearch Rank>
986

> <Conf_Id>
36

> <Delta U+W>
0.275

> <U+W>
-15.590

> <U>
45.174

> <W>
-60.765

> <W(PB)>
-62.518

> <W(SA)>
1.754

> <Valence>
1.161

> <Coulomb>
43.789

> <VdW>
0.224

> <VdW6>
-2.897

> <VdW12>
3.121

> <Bond>
0.100

> <Angle>
0.500

> <Pdih>
0.561

> <Idih>
0.000

> <Tether>
0.000

$$$$
VeraChem MOL file


 17 16  0  0  0  0  0  0  0  0999 V2000     
   21.4839   19.4292   22.5350 N   0  3  0  0  0  0  0  0  0  0  0  0
   21.6007   18.5556   22.0154 H   0  0  0  0  0  0  0  0  0  0  0  0
   21.3062   19.1772   23.5119 H   0  0  0  0  0  0  0  0  0  0  0  0
   22.3851   19.9171   22.5130 H   0  0  0  0  0  0  0  0  0  0  0  0
   20.3676   20.2801   21.9605 C   0  0  0  0  0  0  0  0  0  0  0  0
   20.6421   20.5744   20.9440 H   0  0  0  0  0  0  0  0  0  0  0  0
   20.3096   21.1857   22.5704 H   0  0  0  0  0  0  0  0  0  0  0  0
   18.9864   19.5917   21.9499 C   0  0  0  0  0  0  0  0  0  0  0  0
   18.8154   19.0781   22.9053 H   0  0  0  0  0  0  0  0  0  0  0  0
   18.2213   20.3771   21.8891 H   0  0  0  0  0  0  0  0  0  0  0  0
   18.7634   18.6165   20.7660 C   0  0  0  0  0  0  0  0  0  0  0  0
   18.8751   19.1572   19.8156 H   0  0  0  0  0  0  0  0  0  0  0  0
   17.7214   18.2679   20.7964 H   0  0  0  0  0  0  0  0  0  0  0  0
   19.6951   17.3833   20.7695 C   0  0  0  0  0  0  0  0  0  0  0  0
   20.7291   17.6596   20.5324 H   0  0  0  0  0  0  0  0  0  0  0  0
   19.3724   16.6603   20.0091 H   0  0  0  0  0  0  0  0  0  0  0  0
   19.6782   16.8737   21.7417 H   0  0  0  0  0  0  0  0  0  0  0  0
  1  2  1  0  0  0  0
  1  3  1  0  0  0  0
  1  4  1  0  0  0  0
  1  5  1  0  0  0  0
  5  6  1  0  0  0  0
  5  7  1  0  0  0  0
  5  8  1  0  0  0  0
  8  9  1  0  0  0  0
  8 10  1  0  0  0  0
  8 11  1  0  0  0  0
 11 12  1  0  0  0  0
 11 13  1  0  0  0  0
 11 14  1  0  0  0  0
 14 15  1  0  0  0  0
 14 16  1  0  0  0  0
 14 17  1  0  0  0  0
M  END
> <VConfSearch Rank>
987

> <Conf_Id>
19

> <Delta U+W>
2.662

> <U+W>
-13.203

> <U>
47.423

> <W>
-60.626

> <W(PB)>
-62.328

> <W(SA)>
1.702

> <Valence>
2.414

> <Coulomb>
44.831

> <VdW>
0.178

> <VdW6>
-3.743

> <VdW12>
3.921

> <Bond>
0.138

> <Angle>
0.941

> <Pdih>
1.335

> <Idih>
0.000

> <Tether>
0.000

$$$$
VeraChem MOL file


 17 16  0  0  0  0  0  0  0  0999 V2000     
   20.0970   20.3639   20.2919 N   0  3  0  0  0  0  0  0  0  0  0  0
   19.6391   21.0646   19.7001 H   0  0  0  0  0  0  0  0  0  0  0  0
   21.0506   20.2511   19.9350 H   0  0  0  0  0  0  0  0  0  0  0  0
   20.1723   20.7642   21.2305 H   0  0  0  0  0  0  0  0  0  0  0  0
   19.3392   19.0503   20.3001 C   0  0  0  0  0  0  0  0  0  0  0  0
   19.3068   18.6933   19.2670 H   0  0  0  0  0  0  0  0  0  0  0  0
   18.3126   19.2425   20.6233 H   0  0  0  0  0  0  0  0  0  0  0  0
   19.9711   17.9588   21.1895 C   0  0  0  0  0  0  0  0  0  0  0  0
   19.5987   16.9862   20.8416 H   0  0  0  0  0  0  0  0  0  0  0  0
   21.0587   17.9358   21.0402 H   0  0  0  0  0  0  0  0  0  0  0  0
   19.6365   18.0854   22.6977 C   0  0  0  0  0  0  0  0  0  0  0  0
   20.0446   17.2072   23.2176 H   0  0  0  0  0  0  0  0  0  0  0  0
   18.5474   18.0434   22.8395 H   0  0  0  0  0  0  0  0  0  0  0  0
   20.1948   19.3595   23.3714 C   0  0  0  0  0  0  0  0  0  0  0  0
   21.2666   19.4812   23.1678 H   0  0  0  0  0  0  0  0  0  0  0  0
   20.0673   19.3012   24.4602 H   0  0  0  0  0  0  0  0  0  0  0  0
   19.6658   20.2582   23.0333 H   0  0  0  0  0  0  0  0  0  0  0  0
  1  2  1  0  0  0  0
  1  3  1  0  0  0  0
  1  4  1  0  0  0  0
  1  5  1  0  0  0  0
  5  6  1  0  0  0  0
  5  7  1  0  0  0  0
  5  8  1  0  0  0  0
  8  9  1  0  0  0  0
  8 10  1  0  0  0  0
  8 11  1  0  0  0  0
 11 12  1  0  0  0  0
 11 13  1  0  0  0  0
 11 14  1  0  0  0  0
 14 15  1  0  0  0  0
 14 16  1  0  0  0  0
 14 17  1  0  0  0  0
M  END
> <VConfSearch Rank>
988

> <Conf_Id>
44

> <Delta U+W>
2.712

> <U+W>
-13.153

> <U>
47.423

> <W>
-60.576

> <W(PB)>
-62.262

> <W(SA)>
1.687

> <Valence>
2.414

> <Coulomb>
44.831

> <VdW>
0.178

> <VdW6>
-3.743

> <VdW12>
3.922

> <Bond>
0.138

> <Angle>
0.941

> <Pdih>
1.335

> <Idih>
0.000

> <Tether>
0.000

$$$$
VeraChem MOL file


 17 16  0  0  0  0  0  0  0  0999 V2000     
   19.1858   20.3528   22.8960 N   0  3  0  0  0  0  0  0  0  0  0  0
   20.1097   20.6920   22.6135 H   0  0  0  0  0  0  0  0  0  0  0  0
   19.2686   20.0162   23.8600 H   0  0  0  0  0  0  0  0  0  0  0  0
   18.5622   21.1660   22.9173 H   0  0  0  0  0  0  0  0  0  0  0  0
   18.6737   19.2736   21.9618 C   0  0  0  0  0  0  0  0  0  0  0  0
   18.5814   19.7057   20.9620 H   0  0  0  0  0  0  0  0  0  0  0  0
   17.6740   18.9875   22.2998 H   0  0  0  0  0  0  0  0  0  0  0  0
   19.5719   18.0206   21.9060 C   0  0  0  0  0  0  0  0  0  0  0  0
   19.6255   17.5707   22.9063 H   0  0  0  0  0  0  0  0  0  0  0  0
   19.0924   17.2732   21.2600 H   0  0  0  0  0  0  0  0  0  0  0  0
   21.0059   18.2959   21.3888 C   0  0  0  0  0  0  0  0  0  0  0  0
   21.5722   17.3540   21.3979 H   0  0  0  0  0  0  0  0  0  0  0  0
   21.5318   18.9723   22.0761 H   0  0  0  0  0  0  0  0  0  0  0  0
   21.0315   18.8833   19.9591 C   0  0  0  0  0  0  0  0  0  0  0  0
   20.5119   18.2236   19.2520 H   0  0  0  0  0  0  0  0  0  0  0  0
   22.0654   19.0005   19.6094 H   0  0  0  0  0  0  0  0  0  0  0  0
   20.5549   19.8709   19.9195 H   0  0  0  0  0  0  0  0  0  0  0  0
  1  2  1  0  0  0  0
  1  3  1  0  0  0  0
  1  4  1  0  0  0  0
  1  5  1  0  0  0  0
  5  6  1  0  0  0  0
  5  7  1  0  0  0  0
  5  8  1  0  0  0  0
  8  9  1  0  0  0  0
  8 10  1  0  0  0  0
  8 11  1  0  0  0  0
 11 12  1  0  0  0  0
 11 13  1  0  0  0  0
 11 14  1  0  0  0  0
 14 15  1  0  0  0  0
 14 16  1  0  0  0  0
 14 17  1  0  0  0  0
M  END
> <VConfSearch Rank>
989

> <Conf_Id>
1

> <Delta U+W>
0.685

> <U+W>
-15.179

> <U>
45.697

> <W>
-60.876

> <W(PB)>
-62.586

> <W(SA)>
1.710

> <Valence>
1.263

> <Coulomb>
44.179

> <VdW>
0.255

> <VdW6>
-3.552

> <VdW12>
3.807

> <Bond>
0.125

> <Angle>
0.616

> <Pdih>
0.521

> <Idih>
0.000

> <Tether>
0.000

$$$$
VeraChem MOL file


 17 16  0  0  0  0  0  0  0  0999 V2000     
   20.4142   19.4027   23.4881 N   0  3  0  0  0  0  0  0  0  0  0  0
   20.1131   18.6469   24.1106 H   0  0  0  0  0  0  0  0  0  0  0  0
   19.5866   19.9665   23.2743 H   0  0  0  0  0  0  0  0  0  0  0  0
   21.0502   19.9978   24.0285 H   0  0  0  0  0  0  0  0  0  0  0  0
   21.0721   18.8710   22.2295 C   0  0  0  0  0  0  0  0  0  0  0  0
   21.9640   18.3142   22.5298 H   0  0  0  0  0  0  0  0  0  0  0  0
   21.3938   19.7250   21.6279 H   0  0  0  0  0  0  0  0  0  0  0  0
   20.1584   17.9564   21.3878 C   0  0  0  0  0  0  0  0  0  0  0  0
   20.7356   17.5698   20.5374 H   0  0  0  0  0  0  0  0  0  0  0  0
   19.8738   17.0813   21.9871 H   0  0  0  0  0  0  0  0  0  0  0  0
   18.8807   18.6556   20.8604 C   0  0  0  0  0  0  0  0  0  0  0  0
   18.2464   18.9675   21.7012 H   0  0  0  0  0  0  0  0  0  0  0  0
   18.2892   17.9270   20.2884 H   0  0  0  0  0  0  0  0  0  0  0  0
   19.1855   19.8736   19.9585 C   0  0  0  0  0  0  0  0  0  0  0  0
   18.2561   20.2967   19.5558 H   0  0  0  0  0  0  0  0  0  0  0  0
   19.8184   19.5868   19.1086 H   0  0  0  0  0  0  0  0  0  0  0  0
   19.6978   20.6693   20.5138 H   0  0  0  0  0  0  0  0  0  0  0  0
  1  2  1  0  0  0  0
  1  3  1  0  0  0  0
  1  4  1  0  0  0  0
  1  5  1  0  0  0  0
  5  6  1  0  0  0  0
  5  7  1  0  0  0  0
  5  8  1  0  0  0  0
  8  9  1  0  0  0  0
  8 10  1  0  0  0  0
  8 11  1  0  0  0  0
 11 12  1  0  0  0  0
 11 13  1  0  0  0  0
 11 14  1  0  0  0  0
 14 15  1  0  0  0  0
 14 16  1  0  0  0  0
 14 17  1  0  0  0  0
M  END
> <VConfSearch Rank>
990

> <Conf_Id>
43

> <Delta U+W>
0.642

> <U+W>
-15.222

> <U>
45.697

> <W>
-60.919

> <W(PB)>
-62.631

> <W(SA)>
1.712

> <Valence>
1.262

> <Coulomb>
44.179

> <VdW>
0.255

> <VdW6>
-3.552

> <VdW12>
3.807

> <Bond>
0.125

> <Angle>
0.616

> <Pdih>
0.521

> <Idih>
0.000

> <Tether>
0.000

$$$$
VeraChem MOL file


 17 16  0  0  0  0  0  0  0  0999 V2000     
   20.4733   16.5526   21.4330 N   0  3  0  0  0  0  0  0  0  0  0  0
   19.6476   16.2129   21.9356 H   0  0  0  0  0  0  0  0  0  0  0  0
   21.2563   16.5337   22.0935 H   0  0  0  0  0  0  0  0  0  0  0  0
   20.6825   15.8613   20.7056 H   0  0  0  0  0  0  0  0  0  0  0  0
   20.2548   17.9349   20.8507 C   0  0  0  0  0  0  0  0  0  0  0  0
   19.4295   17.8736   20.1361 H   0  0  0  0  0  0  0  0  0  0  0  0
   21.1593   18.2185   20.3059 H   0  0  0  0  0  0  0  0  0  0  0  0
   19.9379   18.9993   21.9170 C   0  0  0  0  0  0  0  0  0  0  0  0
   19.0379   18.7033   22.4724 H   0  0  0  0  0  0  0  0  0  0  0  0
   20.7618   19.0472   22.6415 H   0  0  0  0  0  0  0  0  0  0  0  0
   19.7226   20.3908   21.2825 C   0  0  0  0  0  0  0  0  0  0  0  0
   18.9001   20.3427   20.5547 H   0  0  0  0  0  0  0  0  0  0  0  0
   20.6219   20.6862   20.7237 H   0  0  0  0  0  0  0  0  0  0  0  0
   19.4041   21.4638   22.3461 C   0  0  0  0  0  0  0  0  0  0  0  0
   19.2547   22.4442   21.8755 H   0  0  0  0  0  0  0  0  0  0  0  0
   20.2247   21.5595   23.0691 H   0  0  0  0  0  0  0  0  0  0  0  0
   18.4893   21.2132   22.8989 H   0  0  0  0  0  0  0  0  0  0  0  0
  1  2  1  0  0  0  0
  1  3  1  0  0  0  0
  1  4  1  0  0  0  0
  1  5  1  0  0  0  0
  5  6  1  0  0  0  0
  5  7  1  0  0  0  0
  5  8  1  0  0  0  0
  8  9  1  0  0  0  0
  8 10  1  0  0  0  0
  8 11  1  0  0  0  0
 11 12  1  0  0  0  0
 11 13  1  0  0  0  0
 11 14  1  0  0  0  0
 14 15  1  0  0  0  0
 14 16  1  0  0  0  0
 14 17  1  0  0  0  0
M  END
> <VConfSearch Rank>
991

> <Conf_Id>
7

> <Delta U+W>
0.000

> <U+W>
-15.865

> <U>
44.664

> <W>
-60.529

> <W(PB)>
-62.309

> <W(SA)>
1.780

> <Valence>
0.872

> <Coulomb>
43.648

> <VdW>
0.144

> <VdW6>
-2.370

> <VdW12>
2.515

> <Bond>
0.080

> <Angle>
0.376

> <Pdih>
0.416

> <Idih>
0.000

> <Tether>
0.000

$$$$
VeraChem MOL file


 17 16  0  0  0  0  0  0  0  0999 V2000     
   20.3462   17.8929   19.5696 N   0  3  0  0  0  0  0  0  0  0  0  0
   21.2516   18.1899   19.1931 H   0  0  0  0  0  0  0  0  0  0  0  0
   19.6221   18.3370   18.9968 H   0  0  0  0  0  0  0  0  0  0  0  0
   20.2747   16.8832   19.4072 H   0  0  0  0  0  0  0  0  0  0  0  0
   20.2005   18.2394   21.0379 C   0  0  0  0  0  0  0  0  0  0  0  0
   20.9825   17.7103   21.5892 H   0  0  0  0  0  0  0  0  0  0  0  0
   19.2303   17.8667   21.3763 H   0  0  0  0  0  0  0  0  0  0  0  0
   20.3028   19.7511   21.3176 C   0  0  0  0  0  0  0  0  0  0  0  0
   21.2638   20.1230   20.9380 H   0  0  0  0  0  0  0  0  0  0  0  0
   19.5185   20.2827   20.7625 H   0  0  0  0  0  0  0  0  0  0  0  0
   20.1920   20.0881   22.8229 C   0  0  0  0  0  0  0  0  0  0  0  0
   20.3528   21.1667   22.9601 H   0  0  0  0  0  0  0  0  0  0  0  0
   20.9968   19.5832   23.3757 H   0  0  0  0  0  0  0  0  0  0  0  0
   18.8236   19.7013   23.4295 C   0  0  0  0  0  0  0  0  0  0  0  0
   18.0006   20.1885   22.8907 H   0  0  0  0  0  0  0  0  0  0  0  0
   18.7665   20.0131   24.4805 H   0  0  0  0  0  0  0  0  0  0  0  0
   18.6601   18.6167   23.3971 H   0  0  0  0  0  0  0  0  0  0  0  0
  1  2  1  0  0  0  0
  1  3  1  0  0  0  0
  1  4  1  0  0  0  0
  1  5  1  0  0  0  0
  5  6  1  0  0  0  0
  5  7  1  0  0  0  0
  5  8  1  0  0  0  0
  8  9  1  0  0  0  0
  8 10  1  0  0  0  0
  8 11  1  0  0  0  0
 11 12  1  0  0  0  0
 11 13  1  0  0  0  0
 11 14  1  0  0  0  0
 14 15  1  0  0  0  0
 14 16  1  0  0  0  0
 14 17  1  0  0  0  0
M  END
> <VConfSearch Rank>
992

> <Conf_Id>
36

> <Delta U+W>
0.275

> <U+W>
-15.590

> <U>
45.174

> <W>
-60.765

> <W(PB)>
-62.518

> <W(SA)>
1.754

> <Valence>
1.161

> <Coulomb>
43.789

> <VdW>
0.224

> <VdW6>
-2.897

> <VdW12>
3.121

> <Bond>
0.100

> <Angle>
0.500

> <Pdih>
0.561

> <Idih>
0.000

> <Tether>
0.000

$$$$
VeraChem MOL file


 17 16  0  0  0  0  0  0  0  0999 V2000     
   19.7309   17.1563   21.8449 N   0  3  0  0  0  0  0  0  0  0  0  0
   19.1597   17.4946   21.0664 H   0  0  0  0  0  0  0  0  0  0  0  0
   19.1077   17.0468   22.6506 H   0  0  0  0  0  0  0  0  0  0  0  0
   20.0596   16.2184   21.5937 H   0  0  0  0  0  0  0  0  0  0  0  0
   20.8826   18.0956   22.1470 C   0  0  0  0  0  0  0  0  0  0  0  0
   21.5482   18.1204   21.2800 H   0  0  0  0  0  0  0  0  0  0  0  0
   21.4359   17.6639   22.9855 H   0  0  0  0  0  0  0  0  0  0  0  0
   20.4509   19.5308   22.5153 C   0  0  0  0  0  0  0  0  0  0  0  0
   19.6025   19.5008   23.2117 H   0  0  0  0  0  0  0  0  0  0  0  0
   21.2774   19.9977   23.0674 H   0  0  0  0  0  0  0  0  0  0  0  0
   20.1193   20.4340   21.3000 C   0  0  0  0  0  0  0  0  0  0  0  0
   20.9974   20.5068   20.6430 H   0  0  0  0  0  0  0  0  0  0  0  0
   19.9295   21.4524   21.6674 H   0  0  0  0  0  0  0  0  0  0  0  0
   18.8961   19.9724   20.4756 C   0  0  0  0  0  0  0  0  0  0  0  0
   19.1115   19.0550   19.9155 H   0  0  0  0  0  0  0  0  0  0  0  0
   18.6200   20.7406   19.7417 H   0  0  0  0  0  0  0  0  0  0  0  0
   18.0241   19.7984   21.1195 H   0  0  0  0  0  0  0  0  0  0  0  0
  1  2  1  0  0  0  0
  1  3  1  0  0  0  0
  1  4  1  0  0  0  0
  1  5  1  0  0  0  0
  5  6  1  0  0  0  0
  5  7  1  0  0  0  0
  5  8  1  0  0  0  0
  8  9  1  0  0  0  0
  8 10  1  0  0  0  0
  8 11  1  0  0  0  0
 11 12  1  0  0  0  0
 11 13  1  0  0  0  0
 11 14  1  0  0  0  0
 14 15  1  0  0  0  0
 14 16  1  0  0  0  0
 14 17  1  0  0  0  0
M  END
> <VConfSearch Rank>
993

> <Conf_Id>
19

> <Delta U+W>
2.662

> <U+W>
-13.203

> <U>
47.423

> <W>
-60.626

> <W(PB)>
-62.328

> <W(SA)>
1.702

> <Valence>
2.414

> <Coulomb>
44.831

> <VdW>
0.178

> <VdW6>
-3.743

> <VdW12>
3.921

> <Bond>
0.138

> <Angle>
0.941

> <Pdih>
1.335

> <Idih>
0.000

> <Tether>
0.000

$$$$
VeraChem MOL file


 17 16  0  0  0  0  0  0  0  0999 V2000     
   20.5675   19.0011   23.3265 N   0  3  0  0  0  0  0  0  0  0  0  0
   21.4096   18.9932   23.9110 H   0  0  0  0  0  0  0  0  0  0  0  0
   19.7805   18.7593   23.9362 H   0  0  0  0  0  0  0  0  0  0  0  0
   20.4234   19.9658   23.0176 H   0  0  0  0  0  0  0  0  0  0  0  0
   20.6857   18.0469   22.1537 C   0  0  0  0  0  0  0  0  0  0  0  0
   20.8346   17.0465   22.5691 H   0  0  0  0  0  0  0  0  0  0  0  0
   21.5779   18.3103   21.5792 H   0  0  0  0  0  0  0  0  0  0  0  0
   19.4534   18.0273   21.2250 C   0  0  0  0  0  0  0  0  0  0  0  0
   19.4679   17.0804   20.6692 H   0  0  0  0  0  0  0  0  0  0  0  0
   18.5326   18.0114   21.8230 H   0  0  0  0  0  0  0  0  0  0  0  0
   19.4069   19.1841   20.1943 C   0  0  0  0  0  0  0  0  0  0  0  0
   18.5537   19.0148   19.5224 H   0  0  0  0  0  0  0  0  0  0  0  0
   20.3041   19.1505   19.5603 H   0  0  0  0  0  0  0  0  0  0  0  0
   19.2699   20.5913   20.8187 C   0  0  0  0  0  0  0  0  0  0  0  0
   18.4366   20.6314   21.5322 H   0  0  0  0  0  0  0  0  0  0  0  0
   19.0750   21.3371   20.0370 H   0  0  0  0  0  0  0  0  0  0  0  0
   20.1900   20.8954   21.3312 H   0  0  0  0  0  0  0  0  0  0  0  0
  1  2  1  0  0  0  0
  1  3  1  0  0  0  0
  1  4  1  0  0  0  0
  1  5  1  0  0  0  0
  5  6  1  0  0  0  0
  5  7  1  0  0  0  0
  5  8  1  0  0  0  0
  8  9  1  0  0  0  0
  8 10  1  0  0  0  0
  8 11  1  0  0  0  0
 11 12  1  0  0  0  0
 11 13  1  0  0  0  0
 11 14  1  0  0  0  0
 14 15  1  0  0  0  0
 14 16  1  0  0  0  0
 14 17  1  0  0  0  0
M  END
> <VConfSearch Rank>
994

> <Conf_Id>
44

> <Delta U+W>
2.712

> <U+W>
-13.153

> <U>
47.423

> <W>
-60.576

> <W(PB)>
-62.262

> <W(SA)>
1.687

> <Valence>
2.414

> <Coulomb>
44.831

> <VdW>
0.178

> <VdW6>
-3.743

> <VdW12>
3.922

> <Bond>
0.138

> <Angle>
0.941

> <Pdih>
1.335

> <Idih>
0.000

> <Tether>
0.000

$$$$
VeraChem MOL file


 17 16  0  0  0  0  0  0  0  0999 V2000     
   18.5420   18.5729   20.2451 N   0  3  0  0  0  0  0  0  0  0  0  0
   19.4346   18.2030   19.9063 H   0  0  0  0  0  0  0  0  0  0  0  0
   18.3051   19.3778   19.6574 H   0  0  0  0  0  0  0  0  0  0  0  0
   17.8331   17.8546   20.0659 H   0  0  0  0  0  0  0  0  0  0  0  0
   18.6092   18.9451   21.7138 C   0  0  0  0  0  0  0  0  0  0  0  0
   18.8354   18.0399   22.2833 H   0  0  0  0  0  0  0  0  0  0  0  0
   17.6177   19.2944   22.0144 H   0  0  0  0  0  0  0  0  0  0  0  0
   19.6533   20.0350   22.0329 C   0  0  0  0  0  0  0  0  0  0  0  0
   19.3945   20.9525   21.4879 H   0  0  0  0  0  0  0  0  0  0  0  0
   19.5859   20.2842   23.1002 H   0  0  0  0  0  0  0  0  0  0  0  0
   21.1099   19.6302   21.6954 C   0  0  0  0  0  0  0  0  0  0  0  0
   21.7762   20.4690   21.9413 H   0  0  0  0  0  0  0  0  0  0  0  0
   21.2155   19.4663   20.6144 H   0  0  0  0  0  0  0  0  0  0  0  0
   21.5818   18.3730   22.4612 C   0  0  0  0  0  0  0  0  0  0  0  0
   21.4868   18.5128   23.5459 H   0  0  0  0  0  0  0  0  0  0  0  0
   22.6365   18.1620   22.2421 H   0  0  0  0  0  0  0  0  0  0  0  0
   21.0013   17.4860   22.1781 H   0  0  0  0  0  0  0  0  0  0  0  0
  1  2  1  0  0  0  0
  1  3  1  0  0  0  0
  1  4  1  0  0  0  0
  1  5  1  0  0  0  0
  5  6  1  0  0  0  0
  5  7  1  0  0  0  0
  5  8  1  0  0  0  0
  8  9  1  0  0  0  0
  8 10  1  0  0  0  0
  8 11  1  0  0  0  0
 11 12  1  0  0  0  0
 11 13  1  0  0  0  0
 11 14  1  0  0  0  0
 14 15  1  0  0  0  0
 14 16  1  0  0  0  0
 14 17  1  0  0  0  0
M  END
> <VConfSearch Rank>
995

> <Conf_Id>
1

> <Delta U+W>
0.685

> <U+W>
-15.179

> <U>
45.697

> <W>
-60.876

> <W(PB)>
-62.586

> <W(SA)>
1.710

> <Valence>
1.263

> <Coulomb>
44.179

> <VdW>
0.255

> <VdW6>
-3.552

> <VdW12>
3.807

> <Bond>
0.125

> <Angle>
0.616

> <Pdih>
0.521

> <Idih>
0.000

> <Tether>
0.000

$$$$
VeraChem MOL file


 17 16  0  0  0  0  0  0  0  0999 V2000     
   18.2988   19.8431   22.3977 N   0  3  0  0  0  0  0  0  0  0  0  0
   17.7172   19.1404   22.8639 H   0  0  0  0  0  0  0  0  0  0  0  0
   18.1295   19.7570   21.3915 H   0  0  0  0  0  0  0  0  0  0  0  0
   17.9431   20.7610   22.6835 H   0  0  0  0  0  0  0  0  0  0  0  0
   19.7677   19.6770   22.7365 C   0  0  0  0  0  0  0  0  0  0  0  0
   19.8786   19.8179   23.8151 H   0  0  0  0  0  0  0  0  0  0  0  0
   20.3241   20.4718   22.2330 H   0  0  0  0  0  0  0  0  0  0  0  0
   20.3471   18.3038   22.3385 C   0  0  0  0  0  0  0  0  0  0  0  0
   21.3900   18.2508   22.6782 H   0  0  0  0  0  0  0  0  0  0  0  0
   19.8088   17.5148   22.8802 H   0  0  0  0  0  0  0  0  0  0  0  0
   20.2914   18.0132   20.8180 C   0  0  0  0  0  0  0  0  0  0  0  0
   19.2472   17.9717   20.4795 H   0  0  0  0  0  0  0  0  0  0  0  0
   20.7099   17.0138   20.6332 H   0  0  0  0  0  0  0  0  0  0  0  0
   21.0713   19.0479   19.9748 C   0  0  0  0  0  0  0  0  0  0  0  0
   21.0599   18.7671   18.9137 H   0  0  0  0  0  0  0  0  0  0  0  0
   22.1200   19.1071   20.2940 H   0  0  0  0  0  0  0  0  0  0  0  0
   20.6313   20.0497   20.0566 H   0  0  0  0  0  0  0  0  0  0  0  0
  1  2  1  0  0  0  0
  1  3  1  0  0  0  0
  1  4  1  0  0  0  0
  1  5  1  0  0  0  0
  5  6  1  0  0  0  0
  5  7  1  0  0  0  0
  5  8  1  0  0  0  0
  8  9  1  0  0  0  0
  8 10  1  0  0  0  0
  8 11  1  0  0  0  0
 11 12  1  0  0  0  0
 11 13  1  0  0  0  0
 11 14  1  0  0  0  0
 14 15  1  0  0  0  0
 14 16  1  0  0  0  0
 14 17  1  0  0  0  0
M  END
> <VConfSearch Rank>
996

> <Conf_Id>
43

> <Delta U+W>
0.642

> <U+W>
-15.222

> <U>
45.697

> <W>
-60.919

> <W(PB)>
-62.631

> <W(SA)>
1.712

> <Valence>
1.262

> <Coulomb>
44.179

> <VdW>
0.255

> <VdW6>
-3.552

> <VdW12>
3.807

> <Bond>
0.125

> <Angle>
0.616

> <Pdih>
0.521

> <Idih>
0.000

> <Tether>
0.000

$$$$
